MODEL 1
REMARK VINA RESULT:      -9.7      0.000      0.000
REMARK  Name = 119607
REMARK  4 active torsions:
REMARK  status: ('A' for Active; 'I' for Inactive)
REMARK    1  A    between atoms: C_3  and  C_7
REMARK    2  A    between atoms: C_4  and  C_19
REMARK    3  A    between atoms: C_8  and  S_13
REMARK    4  A    between atoms: S_13  and  N_16
REMARK                            x       y       z     vdW  Elec       q    Type
REMARK                         _______ _______ _______ _____ _____    ______ ____
ROOT
ATOM      1  O   UNL     1      32.981 -22.370 -18.594  0.00  0.00    -0.358 OA
ATOM      2  N   UNL     1      31.927 -22.739 -17.765  0.00  0.00    -0.077 NA
ATOM      3  C   UNL     1      33.906 -23.115 -16.712  0.00  0.00    +0.054 A 
ATOM      4  C   UNL     1      32.507 -23.181 -16.646  0.00  0.00    +0.123 A 
ATOM      5  C   UNL     1      34.156 -22.600 -17.953  0.00  0.00    +0.155 A 
ATOM      6  C   UNL     1      35.375 -22.260 -18.701  0.00  0.00    +0.075 C 
ENDROOT
BRANCH   3   7
ATOM      7  C   UNL     1      34.928 -23.473 -15.769  0.00  0.00    +0.004 C 
ATOM      8  C   UNL     1      36.914 -24.169 -13.937  0.00  0.00    +0.122 C 
ATOM      9  C   UNL     1      35.765 -22.490 -15.240  0.00  0.00    +0.002 C 
ATOM     10  C   UNL     1      35.084 -24.804 -15.381  0.00  0.00    +0.002 C 
ATOM     11  C   UNL     1      36.758 -22.838 -14.324  0.00  0.00    +0.020 C 
ATOM     12  C   UNL     1      36.077 -25.152 -14.465  0.00  0.00    +0.020 C 
BRANCH   8  13
ATOM     13  S   UNL     1      38.156 -24.604 -12.790  0.00  0.00    +0.057 S 
ATOM     14  O   UNL     1      37.669 -25.716 -11.985  0.00  0.00    -0.153 OA
ATOM     15  O   UNL     1      39.420 -24.726 -13.501  0.00  0.00    -0.153 OA
BRANCH  13  16
ATOM     16  N   UNL     1      38.206 -23.201 -11.817  0.00  0.00    -0.203 NA
ATOM     17  H   UNL     1      38.213 -23.469 -10.833  0.00  0.00    +0.144 HD
ATOM     18  H   UNL     1      37.386 -22.625 -12.007  0.00  0.00    +0.144 HD
ENDBRANCH  13  16
ENDBRANCH   8  13
ENDBRANCH   3   7
BRANCH   4  19
ATOM     19  C   UNL     1      31.699 -23.652 -15.550  0.00  0.00    +0.021 C 
ATOM     20  C   UNL     1      30.749 -24.648 -15.767  0.00  0.00    +0.002 C 
ATOM     21  C   UNL     1      31.871 -23.110 -14.279  0.00  0.00    +0.002 C 
ATOM     22  C   UNL     1      29.967 -25.103 -14.706  0.00  0.00    +0.000 C 
ATOM     23  C   UNL     1      31.088 -23.566 -13.218  0.00  0.00    +0.000 C 
ATOM     24  C   UNL     1      30.136 -24.563 -13.431  0.00  0.00    +0.000 C 
ENDBRANCH   4  19
TORSDOF 4
ENDMDL
MODEL 2
REMARK VINA RESULT:      -9.5      1.138      4.110
REMARK  Name = 119607
REMARK  4 active torsions:
REMARK  status: ('A' for Active; 'I' for Inactive)
REMARK    1  A    between atoms: C_3  and  C_7
REMARK    2  A    between atoms: C_4  and  C_19
REMARK    3  A    between atoms: C_8  and  S_13
REMARK    4  A    between atoms: S_13  and  N_16
REMARK                            x       y       z     vdW  Elec       q    Type
REMARK                         _______ _______ _______ _____ _____    ______ ____
ROOT
ATOM      1  O   UNL     1      31.373 -23.390 -16.586  0.00  0.00    -0.358 OA
ATOM      2  N   UNL     1      32.092 -22.779 -17.606  0.00  0.00    -0.077 NA
ATOM      3  C   UNL     1      33.513 -23.504 -15.988  0.00  0.00    +0.054 A 
ATOM      4  C   UNL     1      33.369 -22.861 -17.224  0.00  0.00    +0.123 A 
ATOM      5  C   UNL     1      32.232 -23.819 -15.626  0.00  0.00    +0.155 A 
ATOM      6  C   UNL     1      31.624 -24.491 -14.469  0.00  0.00    +0.075 C 
ENDROOT
BRANCH   3   7
ATOM      7  C   UNL     1      34.671 -23.815 -15.197  0.00  0.00    +0.004 C 
ATOM      8  C   UNL     1      36.922 -24.416 -13.662  0.00  0.00    +0.122 C 
ATOM      9  C   UNL     1      35.192 -22.863 -14.320  0.00  0.00    +0.002 C 
ATOM     10  C   UNL     1      35.275 -25.067 -15.306  0.00  0.00    +0.002 C 
ATOM     11  C   UNL     1      36.318 -23.164 -13.552  0.00  0.00    +0.020 C 
ATOM     12  C   UNL     1      36.401 -25.368 -14.538  0.00  0.00    +0.020 C 
BRANCH   8  13
ATOM     13  S   UNL     1      38.329 -24.794 -12.700  0.00  0.00    +0.057 S 
ATOM     14  O   UNL     1      38.013 -25.933 -11.851  0.00  0.00    -0.153 OA
ATOM     15  O   UNL     1      39.489 -24.846 -13.579  0.00  0.00    -0.153 OA
BRANCH  13  16
ATOM     16  N   UNL     1      38.442 -23.395 -11.725  0.00  0.00    -0.203 NA
ATOM     17  H   UNL     1      39.055 -22.716 -12.176  0.00  0.00    +0.144 HD
ATOM     18  H   UNL     1      38.823 -23.646 -10.813  0.00  0.00    +0.144 HD
ENDBRANCH  13  16
ENDBRANCH   8  13
ENDBRANCH   3   7
BRANCH   4  19
ATOM     19  C   UNL     1      34.410 -22.318 -18.059  0.00  0.00    +0.021 C 
ATOM     20  C   UNL     1      35.707 -22.203 -17.564  0.00  0.00    +0.002 C 
ATOM     21  C   UNL     1      34.115 -21.909 -19.358  0.00  0.00    +0.002 C 
ATOM     22  C   UNL     1      36.715 -21.677 -18.373  0.00  0.00    +0.000 C 
ATOM     23  C   UNL     1      35.123 -21.382 -20.166  0.00  0.00    +0.000 C 
ATOM     24  C   UNL     1      36.423 -21.267 -19.674  0.00  0.00    +0.000 C 
ENDBRANCH   4  19
TORSDOF 4
ENDMDL
MODEL 3
REMARK VINA RESULT:      -9.2      6.209      9.113
REMARK  Name = 119607
REMARK  4 active torsions:
REMARK  status: ('A' for Active; 'I' for Inactive)
REMARK    1  A    between atoms: C_3  and  C_7
REMARK    2  A    between atoms: C_4  and  C_19
REMARK    3  A    between atoms: C_8  and  S_13
REMARK    4  A    between atoms: S_13  and  N_16
REMARK                            x       y       z     vdW  Elec       q    Type
REMARK                         _______ _______ _______ _____ _____    ______ ____
ROOT
ATOM      1  O   UNL     1      34.828 -17.801 -25.345  0.00  0.00    -0.358 OA
ATOM      2  N   UNL     1      34.563 -16.658 -24.601  0.00  0.00    -0.077 NA
ATOM      3  C   UNL     1      34.474 -18.489 -23.259  0.00  0.00    +0.054 A 
ATOM      4  C   UNL     1      34.355 -17.096 -23.357  0.00  0.00    +0.123 A 
ATOM      5  C   UNL     1      34.772 -18.888 -24.532  0.00  0.00    +0.155 A 
ATOM      6  C   UNL     1      35.031 -20.185 -25.172  0.00  0.00    +0.075 C 
ENDROOT
BRANCH   3   7
ATOM      7  C   UNL     1      34.339 -19.387 -22.146  0.00  0.00    +0.004 C 
ATOM      8  C   UNL     1      34.075 -21.130 -19.983  0.00  0.00    +0.122 C 
ATOM      9  C   UNL     1      33.074 -19.680 -21.636  0.00  0.00    +0.002 C 
ATOM     10  C   UNL     1      35.472 -19.967 -21.575  0.00  0.00    +0.002 C 
ATOM     11  C   UNL     1      32.942 -20.552 -20.554  0.00  0.00    +0.020 C 
ATOM     12  C   UNL     1      35.340 -20.838 -20.493  0.00  0.00    +0.020 C 
BRANCH   8  13
ATOM     13  S   UNL     1      33.910 -22.222 -18.632  0.00  0.00    +0.057 S 
ATOM     14  O   UNL     1      35.071 -22.062 -17.767  0.00  0.00    -0.153 OA
ATOM     15  O   UNL     1      32.571 -22.075 -18.079  0.00  0.00    -0.153 OA
BRANCH  13  16
ATOM     16  N   UNL     1      34.016 -23.735 -19.420  0.00  0.00    -0.203 NA
ATOM     17  H   UNL     1      33.538 -24.442 -18.862  0.00  0.00    +0.144 HD
ATOM     18  H   UNL     1      34.996 -23.993 -19.530  0.00  0.00    +0.144 HD
ENDBRANCH  13  16
ENDBRANCH   8  13
ENDBRANCH   3   7
BRANCH   4  19
ATOM     19  C   UNL     1      34.049 -16.163 -22.303  0.00  0.00    +0.021 C 
ATOM     20  C   UNL     1      33.008 -15.251 -22.464  0.00  0.00    +0.002 C 
ATOM     21  C   UNL     1      34.794 -16.177 -21.126  0.00  0.00    +0.002 C 
ATOM     22  C   UNL     1      32.712 -14.347 -21.444  0.00  0.00    +0.000 C 
ATOM     23  C   UNL     1      34.498 -15.273 -20.106  0.00  0.00    +0.000 C 
ATOM     24  C   UNL     1      33.456 -14.358 -20.265  0.00  0.00    +0.000 C 
ENDBRANCH   4  19
TORSDOF 4
ENDMDL
MODEL 4
REMARK VINA RESULT:      -9.2      1.443      4.248
REMARK  Name = 119607
REMARK  4 active torsions:
REMARK  status: ('A' for Active; 'I' for Inactive)
REMARK    1  A    between atoms: C_3  and  C_7
REMARK    2  A    between atoms: C_4  and  C_19
REMARK    3  A    between atoms: C_8  and  S_13
REMARK    4  A    between atoms: S_13  and  N_16
REMARK                            x       y       z     vdW  Elec       q    Type
REMARK                         _______ _______ _______ _____ _____    ______ ____
ROOT
ATOM      1  O   UNL     1      31.310 -23.380 -16.519  0.00  0.00    -0.358 OA
ATOM      2  N   UNL     1      32.044 -22.763 -17.525  0.00  0.00    -0.077 NA
ATOM      3  C   UNL     1      33.449 -23.593 -15.943  0.00  0.00    +0.054 A 
ATOM      4  C   UNL     1      33.320 -22.904 -17.157  0.00  0.00    +0.123 A 
ATOM      5  C   UNL     1      32.161 -23.871 -15.580  0.00  0.00    +0.155 A 
ATOM      6  C   UNL     1      31.537 -24.558 -14.441  0.00  0.00    +0.075 C 
ENDROOT
BRANCH   3   7
ATOM      7  C   UNL     1      34.601 -23.970 -15.173  0.00  0.00    +0.004 C 
ATOM      8  C   UNL     1      36.838 -24.705 -13.676  0.00  0.00    +0.122 C 
ATOM      9  C   UNL     1      35.252 -25.176 -15.436  0.00  0.00    +0.002 C 
ATOM     10  C   UNL     1      35.069 -23.133 -14.160  0.00  0.00    +0.002 C 
ATOM     11  C   UNL     1      36.371 -25.543 -14.688  0.00  0.00    +0.020 C 
ATOM     12  C   UNL     1      36.188 -23.500 -13.412  0.00  0.00    +0.020 C 
BRANCH   8  13
ATOM     13  S   UNL     1      38.239 -25.164 -12.740  0.00  0.00    +0.057 S 
ATOM     14  O   UNL     1      38.964 -23.956 -12.375  0.00  0.00    -0.153 OA
ATOM     15  O   UNL     1      37.817 -26.096 -11.703  0.00  0.00    -0.153 OA
BRANCH  13  16
ATOM     16  N   UNL     1      39.146 -26.018 -13.909  0.00  0.00    -0.203 NA
ATOM     17  H   UNL     1      38.511 -26.463 -14.573  0.00  0.00    +0.144 HD
ATOM     18  H   UNL     1      39.710 -26.731 -13.447  0.00  0.00    +0.144 HD
ENDBRANCH  13  16
ENDBRANCH   8  13
ENDBRANCH   3   7
BRANCH   4  19
ATOM     19  C   UNL     1      34.374 -22.373 -17.983  0.00  0.00    +0.021 C 
ATOM     20  C   UNL     1      34.113 -22.035 -19.309  0.00  0.00    +0.002 C 
ATOM     21  C   UNL     1      35.651 -22.199 -17.452  0.00  0.00    +0.002 C 
ATOM     22  C   UNL     1      35.134 -21.521 -20.109  0.00  0.00    +0.000 C 
ATOM     23  C   UNL     1      36.671 -21.685 -18.253  0.00  0.00    +0.000 C 
ATOM     24  C   UNL     1      36.413 -21.346 -19.581  0.00  0.00    +0.000 C 
ENDBRANCH   4  19
TORSDOF 4
ENDMDL
MODEL 5
REMARK VINA RESULT:      -9.0     11.486     14.450
REMARK  Name = 119607
REMARK  4 active torsions:
REMARK  status: ('A' for Active; 'I' for Inactive)
REMARK    1  A    between atoms: C_3  and  C_7
REMARK    2  A    between atoms: C_4  and  C_19
REMARK    3  A    between atoms: C_8  and  S_13
REMARK    4  A    between atoms: S_13  and  N_16
REMARK                            x       y       z     vdW  Elec       q    Type
REMARK                         _______ _______ _______ _____ _____    ______ ____
ROOT
ATOM      1  O   UNL     1      33.506 -15.515 -26.605  0.00  0.00    -0.358 OA
ATOM      2  N   UNL     1      33.911 -16.189 -25.459  0.00  0.00    -0.077 NA
ATOM      3  C   UNL     1      33.416 -14.030 -24.951  0.00  0.00    +0.054 A 
ATOM      4  C   UNL     1      33.848 -15.279 -24.484  0.00  0.00    +0.123 A 
ATOM      5  C   UNL     1      33.213 -14.228 -26.288  0.00  0.00    +0.155 A 
ATOM      6  C   UNL     1      32.766 -13.376 -27.399  0.00  0.00    +0.075 C 
ENDROOT
BRANCH   3   7
ATOM      7  C   UNL     1      33.200 -12.778 -24.281  0.00  0.00    +0.004 C 
ATOM      8  C   UNL     1      32.781 -10.346 -22.980  0.00  0.00    +0.122 C 
ATOM      9  C   UNL     1      32.241 -12.682 -23.272  0.00  0.00    +0.002 C 
ATOM     10  C   UNL     1      33.950 -11.657 -24.639  0.00  0.00    +0.002 C 
ATOM     11  C   UNL     1      32.032 -11.466 -22.622  0.00  0.00    +0.020 C 
ATOM     12  C   UNL     1      33.740 -10.441 -23.988  0.00  0.00    +0.020 C 
BRANCH   8  13
ATOM     13  S   UNL     1      32.520  -8.824 -22.165  0.00  0.00    +0.057 S 
ATOM     14  O   UNL     1      32.048  -9.100 -20.816  0.00  0.00    -0.153 OA
ATOM     15  O   UNL     1      33.695  -7.987 -22.362  0.00  0.00    -0.153 OA
BRANCH  13  16
ATOM     16  N   UNL     1      31.229  -8.181 -23.080  0.00  0.00    -0.203 NA
ATOM     17  H   UNL     1      30.808  -7.403 -22.573  0.00  0.00    +0.144 HD
ATOM     18  H   UNL     1      30.528  -8.906 -23.235  0.00  0.00    +0.144 HD
ENDBRANCH  13  16
ENDBRANCH   8  13
ENDBRANCH   3   7
BRANCH   4  19
ATOM     19  C   UNL     1      34.205 -15.638 -23.135  0.00  0.00    +0.021 C 
ATOM     20  C   UNL     1      34.550 -16.954 -22.836  0.00  0.00    +0.002 C 
ATOM     21  C   UNL     1      34.204 -14.668 -22.136  0.00  0.00    +0.002 C 
ATOM     22  C   UNL     1      34.895 -17.302 -21.530  0.00  0.00    +0.000 C 
ATOM     23  C   UNL     1      34.550 -15.016 -20.829  0.00  0.00    +0.000 C 
ATOM     24  C   UNL     1      34.895 -16.333 -20.527  0.00  0.00    +0.000 C 
ENDBRANCH   4  19
TORSDOF 4
ENDMDL
MODEL 6
REMARK VINA RESULT:      -8.4     15.046     18.029
REMARK  Name = 119607
REMARK  4 active torsions:
REMARK  status: ('A' for Active; 'I' for Inactive)
REMARK    1  A    between atoms: C_3  and  C_7
REMARK    2  A    between atoms: C_4  and  C_19
REMARK    3  A    between atoms: C_8  and  S_13
REMARK    4  A    between atoms: S_13  and  N_16
REMARK                            x       y       z     vdW  Elec       q    Type
REMARK                         _______ _______ _______ _____ _____    ______ ____
ROOT
ATOM      1  O   UNL     1      31.938 -12.608 -21.694  0.00  0.00    -0.358 OA
ATOM      2  N   UNL     1      32.852 -12.677 -22.739  0.00  0.00    -0.077 NA
ATOM      3  C   UNL     1      32.107 -10.543 -22.505  0.00  0.00    +0.054 A 
ATOM      4  C   UNL     1      32.935 -11.430 -23.207  0.00  0.00    +0.123 A 
ATOM      5  C   UNL     1      31.501 -11.329 -21.565  0.00  0.00    +0.155 A 
ATOM      6  C   UNL     1      30.522 -11.087 -20.496  0.00  0.00    +0.075 C 
ENDROOT
BRANCH   3   7
ATOM      7  C   UNL     1      31.871  -9.134 -22.649  0.00  0.00    +0.004 C 
ATOM      8  C   UNL     1      31.414  -6.396 -22.930  0.00  0.00    +0.122 C 
ATOM      9  C   UNL     1      31.067  -8.663 -23.687  0.00  0.00    +0.002 C 
ATOM     10  C   UNL     1      32.447  -8.234 -21.751  0.00  0.00    +0.002 C 
ATOM     11  C   UNL     1      30.838  -7.294 -23.827  0.00  0.00    +0.020 C 
ATOM     12  C   UNL     1      32.219  -6.865 -21.892  0.00  0.00    +0.020 C 
BRANCH   8  13
ATOM     13  S   UNL     1      31.127  -4.683 -23.104  0.00  0.00    +0.057 S 
ATOM     14  O   UNL     1      32.365  -3.976 -22.808  0.00  0.00    -0.153 OA
ATOM     15  O   UNL     1      30.450  -4.454 -24.373  0.00  0.00    -0.153 OA
BRANCH  13  16
ATOM     16  N   UNL     1      30.018  -4.408 -21.834  0.00  0.00    -0.203 NA
ATOM     17  H   UNL     1      30.241  -5.020 -21.050  0.00  0.00    +0.144 HD
ATOM     18  H   UNL     1      29.072  -4.603 -22.161  0.00  0.00    +0.144 HD
ENDBRANCH  13  16
ENDBRANCH   8  13
ENDBRANCH   3   7
BRANCH   4  19
ATOM     19  C   UNL     1      33.808 -11.129 -24.314  0.00  0.00    +0.021 C 
ATOM     20  C   UNL     1      33.770 -11.918 -25.461  0.00  0.00    +0.002 C 
ATOM     21  C   UNL     1      34.686 -10.051 -24.232  0.00  0.00    +0.002 C 
ATOM     22  C   UNL     1      34.615 -11.628 -26.532  0.00  0.00    +0.000 C 
ATOM     23  C   UNL     1      35.531  -9.761 -25.303  0.00  0.00    +0.000 C 
ATOM     24  C   UNL     1      35.495 -10.549 -26.453  0.00  0.00    +0.000 C 
ENDBRANCH   4  19
TORSDOF 4
ENDMDL
MODEL 7
REMARK VINA RESULT:      -8.4      3.241      5.976
REMARK  Name = 119607
REMARK  4 active torsions:
REMARK  status: ('A' for Active; 'I' for Inactive)
REMARK    1  A    between atoms: C_3  and  C_7
REMARK    2  A    between atoms: C_4  and  C_19
REMARK    3  A    between atoms: C_8  and  S_13
REMARK    4  A    between atoms: S_13  and  N_16
REMARK                            x       y       z     vdW  Elec       q    Type
REMARK                         _______ _______ _______ _____ _____    ______ ____
ROOT
ATOM      1  O   UNL     1      37.675 -22.174 -17.207  0.00  0.00    -0.358 OA
ATOM      2  N   UNL     1      38.113 -22.801 -16.046  0.00  0.00    -0.077 NA
ATOM      3  C   UNL     1      35.847 -22.913 -16.177  0.00  0.00    +0.054 A 
ATOM      4  C   UNL     1      37.000 -23.235 -15.448  0.00  0.00    +0.123 A 
ATOM      5  C   UNL     1      36.321 -22.247 -17.273  0.00  0.00    +0.155 A 
ATOM      6  C   UNL     1      35.699 -21.626 -18.450  0.00  0.00    +0.075 C 
ENDROOT
BRANCH   3   7
ATOM      7  C   UNL     1      34.455 -23.168 -15.931  0.00  0.00    +0.004 C 
ATOM      8  C   UNL     1      31.751 -23.661 -15.453  0.00  0.00    +0.122 C 
ATOM      9  C   UNL     1      33.544 -23.150 -16.988  0.00  0.00    +0.002 C 
ATOM     10  C   UNL     1      34.012 -23.432 -14.634  0.00  0.00    +0.002 C 
ATOM     11  C   UNL     1      32.192 -23.397 -16.749  0.00  0.00    +0.020 C 
ATOM     12  C   UNL     1      32.660 -23.679 -14.395  0.00  0.00    +0.020 C 
BRANCH   8  13
ATOM     13  S   UNL     1      30.059 -23.972 -15.154  0.00  0.00    +0.057 S 
ATOM     14  O   UNL     1      29.385 -22.697 -14.956  0.00  0.00    -0.153 OA
ATOM     15  O   UNL     1      29.573 -24.898 -16.167  0.00  0.00    -0.153 OA
BRANCH  13  16
ATOM     16  N   UNL     1      30.138 -24.791 -13.656  0.00  0.00    -0.203 NA
ATOM     17  H   UNL     1      31.092 -25.115 -13.496  0.00  0.00    +0.144 HD
ATOM     18  H   UNL     1      29.505 -25.591 -13.673  0.00  0.00    +0.144 HD
ENDBRANCH  13  16
ENDBRANCH   8  13
ENDBRANCH   3   7
BRANCH   4  19
ATOM     19  C   UNL     1      37.080 -23.944 -14.196  0.00  0.00    +0.021 C 
ATOM     20  C   UNL     1      37.152 -23.233 -13.000  0.00  0.00    +0.002 C 
ATOM     21  C   UNL     1      37.086 -25.336 -14.187  0.00  0.00    +0.002 C 
ATOM     22  C   UNL     1      37.231 -23.919 -11.789  0.00  0.00    +0.000 C 
ATOM     23  C   UNL     1      37.164 -26.023 -12.975  0.00  0.00    +0.000 C 
ATOM     24  C   UNL     1      37.236 -25.314 -11.776  0.00  0.00    +0.000 C 
ENDBRANCH   4  19
TORSDOF 4
ENDMDL
MODEL 8
REMARK VINA RESULT:      -8.3      1.653      2.136
REMARK  Name = 119607
REMARK  4 active torsions:
REMARK  status: ('A' for Active; 'I' for Inactive)
REMARK    1  A    between atoms: C_3  and  C_7
REMARK    2  A    between atoms: C_4  and  C_19
REMARK    3  A    between atoms: C_8  and  S_13
REMARK    4  A    between atoms: S_13  and  N_16
REMARK                            x       y       z     vdW  Elec       q    Type
REMARK                         _______ _______ _______ _____ _____    ______ ____
ROOT
ATOM      1  O   UNL     1      33.776 -22.281 -18.682  0.00  0.00    -0.358 OA
ATOM      2  N   UNL     1      32.486 -22.624 -18.295  0.00  0.00    -0.077 NA
ATOM      3  C   UNL     1      33.927 -22.969 -16.572  0.00  0.00    +0.054 A 
ATOM      4  C   UNL     1      32.603 -23.033 -17.029  0.00  0.00    +0.123 A 
ATOM      5  C   UNL     1      34.626 -22.491 -17.645  0.00  0.00    +0.155 A 
ATOM      6  C   UNL     1      36.039 -22.174 -17.895  0.00  0.00    +0.075 C 
ENDROOT
BRANCH   3   7
ATOM      7  C   UNL     1      34.521 -23.298 -15.306  0.00  0.00    +0.004 C 
ATOM      8  C   UNL     1      35.675 -23.937 -12.848  0.00  0.00    +0.122 C 
ATOM      9  C   UNL     1      33.715 -23.694 -14.239  0.00  0.00    +0.002 C 
ATOM     10  C   UNL     1      35.904 -23.222 -15.144  0.00  0.00    +0.002 C 
ATOM     11  C   UNL     1      34.292 -24.013 -13.009  0.00  0.00    +0.020 C 
ATOM     12  C   UNL     1      36.482 -23.542 -13.915  0.00  0.00    +0.020 C 
BRANCH   8  13
ATOM     13  S   UNL     1      36.397 -24.338 -11.310  0.00  0.00    +0.057 S 
ATOM     14  O   UNL     1      37.132 -23.177 -10.829  0.00  0.00    -0.153 OA
ATOM     15  O   UNL     1      35.380 -24.950 -10.467  0.00  0.00    -0.153 OA
BRANCH  13  16
ATOM     16  N   UNL     1      37.516 -25.541 -11.780  0.00  0.00    -0.203 NA
ATOM     17  H   UNL     1      37.908 -25.304 -12.690  0.00  0.00    +0.144 HD
ATOM     18  H   UNL     1      37.041 -26.442 -11.838  0.00  0.00    +0.144 HD
ENDBRANCH  13  16
ENDBRANCH   8  13
ENDBRANCH   3   7
BRANCH   4  19
ATOM     19  C   UNL     1      31.441 -23.471 -16.299  0.00  0.00    +0.021 C 
ATOM     20  C   UNL     1      30.456 -22.551 -15.947  0.00  0.00    +0.002 C 
ATOM     21  C   UNL     1      31.307 -24.812 -15.948  0.00  0.00    +0.002 C 
ATOM     22  C   UNL     1      29.331 -22.975 -15.239  0.00  0.00    +0.000 C 
ATOM     23  C   UNL     1      30.182 -25.236 -15.241  0.00  0.00    +0.000 C 
ATOM     24  C   UNL     1      29.193 -24.318 -14.887  0.00  0.00    +0.000 C 
ENDBRANCH   4  19
TORSDOF 4
ENDMDL
MODEL 9
REMARK VINA RESULT:      -8.2     10.636     13.211
REMARK  Name = 119607
REMARK  4 active torsions:
REMARK  status: ('A' for Active; 'I' for Inactive)
REMARK    1  A    between atoms: C_3  and  C_7
REMARK    2  A    between atoms: C_4  and  C_19
REMARK    3  A    between atoms: C_8  and  S_13
REMARK    4  A    between atoms: S_13  and  N_16
REMARK                            x       y       z     vdW  Elec       q    Type
REMARK                         _______ _______ _______ _____ _____    ______ ____
ROOT
ATOM      1  O   UNL     1      34.011 -15.660 -26.628  0.00  0.00    -0.358 OA
ATOM      2  N   UNL     1      34.490 -16.581 -25.704  0.00  0.00    -0.077 NA
ATOM      3  C   UNL     1      33.536 -14.826 -24.621  0.00  0.00    +0.054 A 
ATOM      4  C   UNL     1      34.193 -16.059 -24.511  0.00  0.00    +0.123 A 
ATOM      5  C   UNL     1      33.444 -14.617 -25.969  0.00  0.00    +0.155 A 
ATOM      6  C   UNL     1      32.885 -13.550 -26.810  0.00  0.00    +0.075 C 
ENDROOT
BRANCH   3   7
ATOM      7  C   UNL     1      33.035 -13.915 -23.630  0.00  0.00    +0.004 C 
ATOM      8  C   UNL     1      32.063 -12.146 -21.704  0.00  0.00    +0.122 C 
ATOM      9  C   UNL     1      33.129 -12.538 -23.836  0.00  0.00    +0.002 C 
ATOM     10  C   UNL     1      32.454 -14.406 -22.461  0.00  0.00    +0.002 C 
ATOM     11  C   UNL     1      32.643 -11.654 -22.873  0.00  0.00    +0.020 C 
ATOM     12  C   UNL     1      31.968 -13.522 -21.498  0.00  0.00    +0.020 C 
BRANCH   8  13
ATOM     13  S   UNL     1      31.452 -11.039 -20.500  0.00  0.00    +0.057 S 
ATOM     14  O   UNL     1      29.998 -11.042 -20.567  0.00  0.00    -0.153 OA
ATOM     15  O   UNL     1      32.118 -11.318 -19.235  0.00  0.00    -0.153 OA
BRANCH  13  16
ATOM     16  N   UNL     1      32.029  -9.549 -21.105  0.00  0.00    -0.203 NA
ATOM     17  H   UNL     1      31.393  -8.801 -20.829  0.00  0.00    +0.144 HD
ATOM     18  H   UNL     1      32.081  -9.593 -22.123  0.00  0.00    +0.144 HD
ENDBRANCH  13  16
ENDBRANCH   8  13
ENDBRANCH   3   7
BRANCH   4  19
ATOM     19  C   UNL     1      34.551 -16.761 -23.305  0.00  0.00    +0.021 C 
ATOM     20  C   UNL     1      34.768 -16.049 -22.127  0.00  0.00    +0.002 C 
ATOM     21  C   UNL     1      34.680 -18.147 -23.322  0.00  0.00    +0.002 C 
ATOM     22  C   UNL     1      35.115 -16.729 -20.959  0.00  0.00    +0.000 C 
ATOM     23  C   UNL     1      35.027 -18.827 -22.154  0.00  0.00    +0.000 C 
ATOM     24  C   UNL     1      35.245 -18.117 -20.973  0.00  0.00    +0.000 C 
ENDBRANCH   4  19
TORSDOF 4
ENDMDL
