MODEL 1
REMARK VINA RESULT:      -7.4      0.000      0.000
REMARK  Name = 4456
REMARK  3 active torsions:
REMARK  status: ('A' for Active; 'I' for Inactive)
REMARK    1  A    between atoms: C_1  and  N_7
REMARK    2  A    between atoms: C_4  and  O_11
REMARK    3  A    between atoms: O_11  and  C_14
REMARK                            x       y       z     vdW  Elec       q    Type
REMARK                         _______ _______ _______ _____ _____    ______ ____
ROOT
ATOM      1  C   UNL     1      34.455 -16.467 -22.291  0.00  0.00    +0.037 C 
ATOM      2  C   UNL     1      34.714 -17.292 -21.248  0.00  0.00    +0.051 C 
ATOM      3  C   UNL     1      34.590 -16.771 -23.604  0.00  0.00    +0.013 C 
ATOM      4  C   UNL     1      35.163 -18.577 -21.556  0.00  0.00    +0.151 C 
ATOM      5  C   UNL     1      35.039 -18.055 -23.912  0.00  0.00    +0.004 C 
ATOM      6  C   UNL     1      35.325 -18.958 -22.888  0.00  0.00    +0.038 C 
ENDROOT
BRANCH   1   7
ATOM      7  N   UNL     1      33.961 -15.058 -21.953  0.00  0.00    -0.351 NA
ATOM      8  C   UNL     1      34.215 -14.150 -23.152  0.00  0.00    +0.096 C 
ATOM      9  C   UNL     1      34.712 -14.557 -20.722  0.00  0.00    +0.096 C 
ATOM     10  C   UNL     1      32.466 -15.030 -21.642  0.00  0.00    +0.096 C 
ENDBRANCH   1   7
BRANCH   4  11
ATOM     11  O   UNL     1      35.442 -19.458 -20.556  0.00  0.00    -0.410 OA
BRANCH  11  14
ATOM     12  O   UNL     1      33.287 -20.284 -20.720  0.00  0.00    -0.226 OA
ATOM     13  N   UNL     1      34.845 -21.449 -19.447  0.00  0.00    -0.242 N 
ATOM     14  C   UNL     1      34.427 -20.399 -20.272  0.00  0.00    +0.410 C 
ATOM     15  C   UNL     1      33.910 -22.498 -19.065  0.00  0.00    +0.118 C 
ATOM     16  C   UNL     1      36.201 -21.579 -18.923  0.00  0.00    +0.118 C 
ENDBRANCH  11  14
ENDBRANCH   4  11
TORSDOF 3
ENDMDL
MODEL 2
REMARK VINA RESULT:      -7.3      2.377      4.002
REMARK  Name = 4456
REMARK  3 active torsions:
REMARK  status: ('A' for Active; 'I' for Inactive)
REMARK    1  A    between atoms: C_1  and  N_7
REMARK    2  A    between atoms: C_4  and  O_11
REMARK    3  A    between atoms: O_11  and  C_14
REMARK                            x       y       z     vdW  Elec       q    Type
REMARK                         _______ _______ _______ _____ _____    ______ ____
ROOT
ATOM      1  C   UNL     1      34.743 -19.525 -21.070  0.00  0.00    +0.037 C 
ATOM      2  C   UNL     1      35.485 -20.473 -20.447  0.00  0.00    +0.051 C 
ATOM      3  C   UNL     1      33.399 -19.377 -20.984  0.00  0.00    +0.013 C 
ATOM      4  C   UNL     1      34.800 -21.382 -19.641  0.00  0.00    +0.151 C 
ATOM      5  C   UNL     1      32.715 -20.287 -20.178  0.00  0.00    +0.004 C 
ATOM      6  C   UNL     1      33.415 -21.288 -19.506  0.00  0.00    +0.038 C 
ENDROOT
BRANCH   1   7
ATOM      7  N   UNL     1      35.495 -18.526 -21.953  0.00  0.00    -0.351 NA
ATOM      8  C   UNL     1      36.994 -18.728 -21.755  0.00  0.00    +0.096 C 
ATOM      9  C   UNL     1      35.079 -17.112 -21.558  0.00  0.00    +0.096 C 
ATOM     10  C   UNL     1      35.181 -18.717 -23.436  0.00  0.00    +0.096 C 
ENDBRANCH   1   7
BRANCH   4  11
ATOM     11  O   UNL     1      35.484 -22.359 -18.985  0.00  0.00    -0.410 OA
BRANCH  11  14
ATOM     12  O   UNL     1      36.914 -21.187 -17.595  0.00  0.00    -0.226 OA
ATOM     13  N   UNL     1      35.375 -22.651 -16.650  0.00  0.00    -0.242 N 
ATOM     14  C   UNL     1      35.999 -22.000 -17.719  0.00  0.00    +0.410 C 
ATOM     15  C   UNL     1      35.797 -22.384 -15.282  0.00  0.00    +0.118 C 
ATOM     16  C   UNL     1      34.287 -23.612 -16.808  0.00  0.00    +0.118 C 
ENDBRANCH  11  14
ENDBRANCH   4  11
TORSDOF 3
ENDMDL
MODEL 3
REMARK VINA RESULT:      -7.0      5.616      8.141
REMARK  Name = 4456
REMARK  3 active torsions:
REMARK  status: ('A' for Active; 'I' for Inactive)
REMARK    1  A    between atoms: C_1  and  N_7
REMARK    2  A    between atoms: C_4  and  O_11
REMARK    3  A    between atoms: O_11  and  C_14
REMARK                            x       y       z     vdW  Elec       q    Type
REMARK                         _______ _______ _______ _____ _____    ______ ____
ROOT
ATOM      1  C   UNL     1      31.998  -9.127 -21.239  0.00  0.00    +0.037 C 
ATOM      2  C   UNL     1      31.909 -10.159 -22.113  0.00  0.00    +0.051 C 
ATOM      3  C   UNL     1      31.922  -9.214 -19.889  0.00  0.00    +0.013 C 
ATOM      4  C   UNL     1      31.721 -11.430 -21.571  0.00  0.00    +0.151 C 
ATOM      5  C   UNL     1      31.734 -10.485 -19.348  0.00  0.00    +0.004 C 
ATOM      6  C   UNL     1      31.634 -11.593 -20.189  0.00  0.00    +0.038 C 
ENDROOT
BRANCH   1   7
ATOM      7  N   UNL     1      32.206  -7.732 -21.833  0.00  0.00    -0.351 NA
ATOM      8  C   UNL     1      33.596  -7.667 -22.458  0.00  0.00    +0.096 C 
ATOM      9  C   UNL     1      32.062  -6.698 -20.719  0.00  0.00    +0.096 C 
ATOM     10  C   UNL     1      31.181  -7.408 -22.918  0.00  0.00    +0.096 C 
ENDBRANCH   1   7
BRANCH   4  11
ATOM     11  O   UNL     1      31.624 -12.512 -22.392  0.00  0.00    -0.410 OA
BRANCH  11  14
ATOM     12  O   UNL     1      33.476 -12.325 -23.767  0.00  0.00    -0.226 OA
ATOM     13  N   UNL     1      33.242 -14.224 -22.446  0.00  0.00    -0.242 N 
ATOM     14  C   UNL     1      32.842 -12.976 -22.937  0.00  0.00    +0.410 C 
ATOM     15  C   UNL     1      34.478 -14.834 -22.914  0.00  0.00    +0.118 C 
ATOM     16  C   UNL     1      32.485 -14.988 -21.459  0.00  0.00    +0.118 C 
ENDBRANCH  11  14
ENDBRANCH   4  11
TORSDOF 3
ENDMDL
MODEL 4
REMARK VINA RESULT:      -7.0      7.594      9.268
REMARK  Name = 4456
REMARK  3 active torsions:
REMARK  status: ('A' for Active; 'I' for Inactive)
REMARK    1  A    between atoms: C_1  and  N_7
REMARK    2  A    between atoms: C_4  and  O_11
REMARK    3  A    between atoms: O_11  and  C_14
REMARK                            x       y       z     vdW  Elec       q    Type
REMARK                         _______ _______ _______ _____ _____    ______ ____
ROOT
ATOM      1  C   UNL     1      32.043 -23.523 -15.570  0.00  0.00    +0.037 C 
ATOM      2  C   UNL     1      33.225 -23.622 -14.913  0.00  0.00    +0.051 C 
ATOM      3  C   UNL     1      31.880 -23.205 -16.877  0.00  0.00    +0.013 C 
ATOM      4  C   UNL     1      34.381 -23.373 -15.653  0.00  0.00    +0.151 C 
ATOM      5  C   UNL     1      33.035 -22.956 -17.616  0.00  0.00    +0.004 C 
ATOM      6  C   UNL     1      34.286 -23.040 -17.005  0.00  0.00    +0.038 C 
ENDROOT
BRANCH   1   7
ATOM      7  N   UNL     1      30.775 -23.798 -14.760  0.00  0.00    -0.351 NA
ATOM      8  C   UNL     1      29.663 -22.885 -15.266  0.00  0.00    +0.096 C 
ATOM      9  C   UNL     1      31.068 -23.532 -13.285  0.00  0.00    +0.096 C 
ATOM     10  C   UNL     1      30.304 -25.244 -14.898  0.00  0.00    +0.096 C 
ENDBRANCH   1   7
BRANCH   4  11
ATOM     11  O   UNL     1      35.602 -23.455 -15.056  0.00  0.00    -0.410 OA
BRANCH  11  14
ATOM     12  O   UNL     1      35.928 -25.689 -15.564  0.00  0.00    -0.226 OA
ATOM     13  N   UNL     1      36.632 -24.891 -13.497  0.00  0.00    -0.242 N 
ATOM     14  C   UNL     1      36.050 -24.763 -14.763  0.00  0.00    +0.410 C 
ATOM     15  C   UNL     1      37.142 -26.180 -13.052  0.00  0.00    +0.118 C 
ATOM     16  C   UNL     1      36.776 -23.785 -12.555  0.00  0.00    +0.118 C 
ENDBRANCH  11  14
ENDBRANCH   4  11
TORSDOF 3
ENDMDL
MODEL 5
REMARK VINA RESULT:      -6.9      5.404      8.189
REMARK  Name = 4456
REMARK  3 active torsions:
REMARK  status: ('A' for Active; 'I' for Inactive)
REMARK    1  A    between atoms: C_1  and  N_7
REMARK    2  A    between atoms: C_4  and  O_11
REMARK    3  A    between atoms: O_11  and  C_14
REMARK                            x       y       z     vdW  Elec       q    Type
REMARK                         _______ _______ _______ _____ _____    ______ ____
ROOT
ATOM      1  C   UNL     1      32.008  -9.178 -21.220  0.00  0.00    +0.037 C 
ATOM      2  C   UNL     1      31.883 -10.308 -21.959  0.00  0.00    +0.051 C 
ATOM      3  C   UNL     1      31.953  -9.097 -19.869  0.00  0.00    +0.013 C 
ATOM      4  C   UNL     1      31.679 -11.499 -21.262  0.00  0.00    +0.151 C 
ATOM      5  C   UNL     1      31.749 -10.288 -19.173  0.00  0.00    +0.004 C 
ATOM      6  C   UNL     1      31.612 -11.489 -19.868  0.00  0.00    +0.038 C 
ENDROOT
BRANCH   1   7
ATOM      7  N   UNL     1      32.233  -7.872 -21.984  0.00  0.00    -0.351 NA
ATOM      8  C   UNL     1      32.017  -6.702 -21.030  0.00  0.00    +0.096 C 
ATOM      9  C   UNL     1      31.251  -7.810 -23.151  0.00  0.00    +0.096 C 
ATOM     10  C   UNL     1      33.649  -7.770 -22.549  0.00  0.00    +0.096 C 
ENDBRANCH   1   7
BRANCH   4  11
ATOM     11  O   UNL     1      31.546 -12.671 -21.942  0.00  0.00    -0.410 OA
BRANCH  11  14
ATOM     12  O   UNL     1      32.658 -14.226 -20.639  0.00  0.00    -0.226 OA
ATOM     13  N   UNL     1      33.415 -13.820 -22.800  0.00  0.00    -0.242 N 
ATOM     14  C   UNL     1      32.558 -13.629 -21.710  0.00  0.00    +0.410 C 
ATOM     15  C   UNL     1      34.509 -14.777 -22.712  0.00  0.00    +0.118 C 
ATOM     16  C   UNL     1      33.287 -13.109 -24.068  0.00  0.00    +0.118 C 
ENDBRANCH  11  14
ENDBRANCH   4  11
TORSDOF 3
ENDMDL
MODEL 6
REMARK VINA RESULT:      -6.8      3.407      6.901
REMARK  Name = 4456
REMARK  3 active torsions:
REMARK  status: ('A' for Active; 'I' for Inactive)
REMARK    1  A    between atoms: C_1  and  N_7
REMARK    2  A    between atoms: C_4  and  O_11
REMARK    3  A    between atoms: O_11  and  C_14
REMARK                            x       y       z     vdW  Elec       q    Type
REMARK                         _______ _______ _______ _____ _____    ______ ____
ROOT
ATOM      1  C   UNL     1      34.524 -16.734 -22.170  0.00  0.00    +0.037 C 
ATOM      2  C   UNL     1      33.736 -15.938 -22.933  0.00  0.00    +0.051 C 
ATOM      3  C   UNL     1      34.893 -16.499 -20.887  0.00  0.00    +0.013 C 
ATOM      4  C   UNL     1      33.261 -14.767 -22.342  0.00  0.00    +0.151 C 
ATOM      5  C   UNL     1      34.419 -15.328 -20.298  0.00  0.00    +0.004 C 
ATOM      6  C   UNL     1      33.603 -14.462 -21.025  0.00  0.00    +0.038 C 
ENDROOT
BRANCH   1   7
ATOM      7  N   UNL     1      35.043 -18.020 -22.817  0.00  0.00    -0.351 NA
ATOM      8  C   UNL     1      36.491 -18.235 -22.385  0.00  0.00    +0.096 C 
ATOM      9  C   UNL     1      34.943 -17.881 -24.334  0.00  0.00    +0.096 C 
ATOM     10  C   UNL     1      34.234 -19.245 -22.396  0.00  0.00    +0.096 C 
ENDBRANCH   1   7
BRANCH   4  11
ATOM     11  O   UNL     1      32.464 -13.922 -23.053  0.00  0.00    -0.410 OA
BRANCH  11  14
ATOM     12  O   UNL     1      34.015 -12.796 -24.350  0.00  0.00    -0.226 OA
ATOM     13  N   UNL     1      32.571 -11.568 -23.003  0.00  0.00    -0.242 N 
ATOM     14  C   UNL     1      33.093 -12.752 -23.536  0.00  0.00    +0.410 C 
ATOM     15  C   UNL     1      33.118 -10.280 -23.405  0.00  0.00    +0.118 C 
ATOM     16  C   UNL     1      31.475 -11.526 -22.040  0.00  0.00    +0.118 C 
ENDBRANCH  11  14
ENDBRANCH   4  11
TORSDOF 3
ENDMDL
MODEL 7
REMARK VINA RESULT:      -6.8      4.880      7.507
REMARK  Name = 4456
REMARK  3 active torsions:
REMARK  status: ('A' for Active; 'I' for Inactive)
REMARK    1  A    between atoms: C_1  and  N_7
REMARK    2  A    between atoms: C_4  and  O_11
REMARK    3  A    between atoms: O_11  and  C_14
REMARK                            x       y       z     vdW  Elec       q    Type
REMARK                         _______ _______ _______ _____ _____    ______ ____
ROOT
ATOM      1  C   UNL     1      33.243  -9.594 -23.317  0.00  0.00    +0.037 C 
ATOM      2  C   UNL     1      32.763 -10.860 -23.364  0.00  0.00    +0.051 C 
ATOM      3  C   UNL     1      34.319  -9.121 -23.992  0.00  0.00    +0.013 C 
ATOM      4  C   UNL     1      33.439 -11.761 -24.187  0.00  0.00    +0.151 C 
ATOM      5  C   UNL     1      34.994 -10.022 -24.813  0.00  0.00    +0.004 C 
ATOM      6  C   UNL     1      34.555 -11.342 -24.911  0.00  0.00    +0.038 C 
ENDROOT
BRANCH   1   7
ATOM      7  N   UNL     1      32.501  -8.604 -22.416  0.00  0.00    -0.351 NA
ATOM      8  C   UNL     1      33.452  -7.472 -22.042  0.00  0.00    +0.096 C 
ATOM      9  C   UNL     1      32.017  -9.342 -21.170  0.00  0.00    +0.096 C 
ATOM     10  C   UNL     1      31.284  -7.994 -23.109  0.00  0.00    +0.096 C 
ENDBRANCH   1   7
BRANCH   4  11
ATOM     11  O   UNL     1      33.009 -13.050 -24.282  0.00  0.00    -0.410 OA
BRANCH  11  14
ATOM     12  O   UNL     1      34.352 -13.833 -22.568  0.00  0.00    -0.226 OA
ATOM     13  N   UNL     1      34.016 -15.174 -24.438  0.00  0.00    -0.242 N 
ATOM     14  C   UNL     1      33.840 -14.016 -23.672  0.00  0.00    +0.410 C 
ATOM     15  C   UNL     1      34.848 -16.261 -23.941  0.00  0.00    +0.118 C 
ATOM     16  C   UNL     1      33.402 -15.384 -25.745  0.00  0.00    +0.118 C 
ENDBRANCH  11  14
ENDBRANCH   4  11
TORSDOF 3
ENDMDL
MODEL 8
REMARK VINA RESULT:      -6.7      3.427      6.723
REMARK  Name = 4456
REMARK  3 active torsions:
REMARK  status: ('A' for Active; 'I' for Inactive)
REMARK    1  A    between atoms: C_1  and  N_7
REMARK    2  A    between atoms: C_4  and  O_11
REMARK    3  A    between atoms: O_11  and  C_14
REMARK                            x       y       z     vdW  Elec       q    Type
REMARK                         _______ _______ _______ _____ _____    ______ ____
ROOT
ATOM      1  C   UNL     1      34.570 -17.080 -23.080  0.00  0.00    +0.037 C 
ATOM      2  C   UNL     1      33.852 -15.933 -23.147  0.00  0.00    +0.051 C 
ATOM      3  C   UNL     1      35.030 -17.798 -24.133  0.00  0.00    +0.013 C 
ATOM      4  C   UNL     1      33.558 -15.446 -24.421  0.00  0.00    +0.151 C 
ATOM      5  C   UNL     1      34.735 -17.311 -25.406  0.00  0.00    +0.004 C 
ATOM      6  C   UNL     1      34.000 -16.135 -25.550  0.00  0.00    +0.038 C 
ENDROOT
BRANCH   1   7
ATOM      7  N   UNL     1      34.894 -17.614 -21.683  0.00  0.00    -0.351 NA
ATOM      8  C   UNL     1      34.901 -16.446 -20.702  0.00  0.00    +0.096 C 
ATOM      9  C   UNL     1      36.259 -18.298 -21.723  0.00  0.00    +0.096 C 
ATOM     10  C   UNL     1      33.865 -18.635 -21.202  0.00  0.00    +0.096 C 
ENDBRANCH   1   7
BRANCH   4  11
ATOM     11  O   UNL     1      32.840 -14.297 -24.560  0.00  0.00    -0.410 OA
BRANCH  11  14
ATOM     12  O   UNL     1      33.919 -12.761 -23.207  0.00  0.00    -0.226 OA
ATOM     13  N   UNL     1      33.799 -12.358 -25.495  0.00  0.00    -0.242 N 
ATOM     14  C   UNL     1      33.555 -13.100 -24.333  0.00  0.00    +0.410 C 
ATOM     15  C   UNL     1      34.525 -11.098 -25.420  0.00  0.00    +0.118 C 
ATOM     16  C   UNL     1      33.367 -12.770 -26.826  0.00  0.00    +0.118 C 
ENDBRANCH  11  14
ENDBRANCH   4  11
TORSDOF 3
ENDMDL
MODEL 9
REMARK VINA RESULT:      -6.7      3.329      6.756
REMARK  Name = 4456
REMARK  3 active torsions:
REMARK  status: ('A' for Active; 'I' for Inactive)
REMARK    1  A    between atoms: C_1  and  N_7
REMARK    2  A    between atoms: C_4  and  O_11
REMARK    3  A    between atoms: O_11  and  C_14
REMARK                            x       y       z     vdW  Elec       q    Type
REMARK                         _______ _______ _______ _____ _____    ______ ____
ROOT
ATOM      1  C   UNL     1      34.548 -16.800 -22.174  0.00  0.00    +0.037 C 
ATOM      2  C   UNL     1      33.808 -16.081 -23.053  0.00  0.00    +0.051 C 
ATOM      3  C   UNL     1      34.854 -16.439 -20.905  0.00  0.00    +0.013 C 
ATOM      4  C   UNL     1      33.314 -14.855 -22.607  0.00  0.00    +0.151 C 
ATOM      5  C   UNL     1      34.361 -15.213 -20.460  0.00  0.00    +0.004 C 
ATOM      6  C   UNL     1      33.590 -14.421 -21.311  0.00  0.00    +0.038 C 
ENDROOT
BRANCH   1   7
ATOM      7  N   UNL     1      35.089 -18.146 -22.662  0.00  0.00    -0.351 NA
ATOM      8  C   UNL     1      36.533 -18.293 -22.193  0.00  0.00    +0.096 C 
ATOM      9  C   UNL     1      35.005 -18.186 -24.186  0.00  0.00    +0.096 C 
ATOM     10  C   UNL     1      34.287 -19.324 -22.111  0.00  0.00    +0.096 C 
ENDBRANCH   1   7
BRANCH   4  11
ATOM     11  O   UNL     1      32.562 -14.083 -23.439  0.00  0.00    -0.410 OA
BRANCH  11  14
ATOM     12  O   UNL     1      33.782 -12.121 -23.558  0.00  0.00    -0.226 OA
ATOM     13  N   UNL     1      33.307 -13.272 -25.522  0.00  0.00    -0.242 N 
ATOM     14  C   UNL     1      33.264 -13.075 -24.137  0.00  0.00    +0.410 C 
ATOM     15  C   UNL     1      33.996 -12.316 -26.377  0.00  0.00    +0.118 C 
ATOM     16  C   UNL     1      32.692 -14.410 -26.199  0.00  0.00    +0.118 C 
ENDBRANCH  11  14
ENDBRANCH   4  11
TORSDOF 3
ENDMDL
