MODEL 1
REMARK VINA RESULT:     -10.1      0.000      0.000
REMARK  Name = 4347
REMARK  5 active torsions:
REMARK  status: ('A' for Active; 'I' for Inactive)
REMARK    1  A    between atoms: C_1  and  C_9
REMARK    2  A    between atoms: C_2  and  S_18
REMARK    3  A    between atoms: N_8  and  C_11
REMARK    4  A    between atoms: C_11  and  C_12
REMARK    5  A    between atoms: S_18  and  N_21
REMARK                            x       y       z     vdW  Elec       q    Type
REMARK                         _______ _______ _______ _____ _____    ______ ____
ROOT
ATOM      1  C   UNL     1      35.076 -19.372 -21.063  0.00  0.00    +0.053 C 
ATOM      2  C   UNL     1      34.214 -21.522 -19.509  0.00  0.00    +0.122 C 
ATOM      3  C   UNL     1      36.010 -20.211 -20.454  0.00  0.00    +0.006 C 
ATOM      4  C   UNL     1      33.713 -19.608 -20.895  0.00  0.00    +0.006 C 
ATOM      5  C   UNL     1      35.578 -21.287 -19.677  0.00  0.00    +0.020 C 
ATOM      6  C   UNL     1      33.281 -20.683 -20.118  0.00  0.00    +0.020 C 
ENDROOT
BRANCH   1   9
ATOM      7  O   UNL     1      36.648 -18.270 -22.412  0.00  0.00    -0.270 OA
ATOM      8  N   UNL     1      34.635 -17.183 -22.029  0.00  0.00    -0.297 N 
ATOM      9  C   UNL     1      35.526 -18.251 -21.873  0.00  0.00    +0.246 C 
ATOM     10  H   UNL     1      33.764 -17.233 -21.575  0.00  0.00    +0.150 HD
BRANCH   8  11
ATOM     11  C   UNL     1      34.927 -16.009 -22.821  0.00  0.00    +0.117 C 
BRANCH  11  12
ATOM     12  C   UNL     1      33.968 -14.888 -22.538  0.00  0.00    -0.003 C 
ATOM     13  C   UNL     1      33.839 -13.848 -23.451  0.00  0.00    -0.003 C 
ATOM     14  C   UNL     1      33.222 -14.901 -21.366  0.00  0.00    -0.003 C 
ATOM     15  C   UNL     1      32.948 -12.807 -23.189  0.00  0.00    -0.000 C 
ATOM     16  C   UNL     1      32.331 -13.860 -21.103  0.00  0.00    -0.000 C 
ATOM     17  C   UNL     1      32.196 -12.813 -22.015  0.00  0.00    -0.000 C 
ENDBRANCH  11  12
ENDBRANCH   8  11
ENDBRANCH   1   9
BRANCH   2  18
ATOM     18  S   UNL     1      33.674 -22.867 -18.536  0.00  0.00    +0.057 S 
ATOM     19  O   UNL     1      32.356 -22.549 -18.002  0.00  0.00    -0.153 OA
ATOM     20  O   UNL     1      33.869 -24.095 -19.296  0.00  0.00    -0.153 OA
BRANCH  18  21
ATOM     21  N   UNL     1      34.811 -22.824 -17.261  0.00  0.00    -0.203 NA
ATOM     22  H   UNL     1      34.580 -22.059 -16.626  0.00  0.00    +0.144 HD
ATOM     23  H   UNL     1      35.744 -22.680 -17.643  0.00  0.00    +0.144 HD
ENDBRANCH  18  21
ENDBRANCH   2  18
TORSDOF 5
ENDMDL
MODEL 2
REMARK VINA RESULT:     -10.0      5.029      7.676
REMARK  Name = 4347
REMARK  5 active torsions:
REMARK  status: ('A' for Active; 'I' for Inactive)
REMARK    1  A    between atoms: C_1  and  C_9
REMARK    2  A    between atoms: C_2  and  S_18
REMARK    3  A    between atoms: N_8  and  C_11
REMARK    4  A    between atoms: C_11  and  C_12
REMARK    5  A    between atoms: S_18  and  N_21
REMARK                            x       y       z     vdW  Elec       q    Type
REMARK                         _______ _______ _______ _____ _____    ______ ____
ROOT
ATOM      1  C   UNL     1      34.264 -23.485 -15.154  0.00  0.00    +0.053 C 
ATOM      2  C   UNL     1      35.801 -23.820 -12.851  0.00  0.00    +0.122 C 
ATOM      3  C   UNL     1      33.725 -24.136 -14.044  0.00  0.00    +0.006 C 
ATOM      4  C   UNL     1      35.571 -23.002 -15.112  0.00  0.00    +0.006 C 
ATOM      5  C   UNL     1      34.494 -24.303 -12.892  0.00  0.00    +0.020 C 
ATOM      6  C   UNL     1      36.340 -23.169 -13.960  0.00  0.00    +0.020 C 
ENDROOT
BRANCH   1   9
ATOM      7  O   UNL     1      32.246 -23.574 -16.346  0.00  0.00    -0.270 OA
ATOM      8  N   UNL     1      34.117 -22.819 -17.490  0.00  0.00    -0.297 N 
ATOM      9  C   UNL     1      33.462 -23.312 -16.355  0.00  0.00    +0.246 C 
ATOM     10  H   UNL     1      35.081 -22.632 -17.427  0.00  0.00    +0.150 HD
BRANCH   8  11
ATOM     11  C   UNL     1      33.454 -22.571 -18.750  0.00  0.00    +0.117 C 
BRANCH  11  12
ATOM     12  C   UNL     1      34.125 -21.479 -19.533  0.00  0.00    -0.003 C 
ATOM     13  C   UNL     1      33.351 -20.554 -20.224  0.00  0.00    -0.003 C 
ATOM     14  C   UNL     1      35.512 -21.404 -19.558  0.00  0.00    -0.003 C 
ATOM     15  C   UNL     1      33.974 -19.539 -20.951  0.00  0.00    -0.000 C 
ATOM     16  C   UNL     1      36.136 -20.390 -20.285  0.00  0.00    -0.000 C 
ATOM     17  C   UNL     1      35.366 -19.458 -20.982  0.00  0.00    -0.000 C 
ENDBRANCH  11  12
ENDBRANCH   8  11
ENDBRANCH   1   9
BRANCH   2  18
ATOM     18  S   UNL     1      36.764 -24.030 -11.409  0.00  0.00    +0.057 S 
ATOM     19  O   UNL     1      37.642 -25.176 -11.604  0.00  0.00    -0.153 OA
ATOM     20  O   UNL     1      37.331 -22.739 -11.041  0.00  0.00    -0.153 OA
BRANCH  18  21
ATOM     21  N   UNL     1      35.560 -24.445 -10.270  0.00  0.00    -0.203 NA
ATOM     22  H   UNL     1      35.395 -23.654  -9.646  0.00  0.00    +0.144 HD
ATOM     23  H   UNL     1      35.870 -25.249  -9.726  0.00  0.00    +0.144 HD
ENDBRANCH  18  21
ENDBRANCH   2  18
TORSDOF 5
ENDMDL
MODEL 3
REMARK VINA RESULT:      -9.8      1.258      2.163
REMARK  Name = 4347
REMARK  5 active torsions:
REMARK  status: ('A' for Active; 'I' for Inactive)
REMARK    1  A    between atoms: C_1  and  C_9
REMARK    2  A    between atoms: C_2  and  S_18
REMARK    3  A    between atoms: N_8  and  C_11
REMARK    4  A    between atoms: C_11  and  C_12
REMARK    5  A    between atoms: S_18  and  N_21
REMARK                            x       y       z     vdW  Elec       q    Type
REMARK                         _______ _______ _______ _____ _____    ______ ____
ROOT
ATOM      1  C   UNL     1      35.084 -19.679 -21.308  0.00  0.00    +0.053 C 
ATOM      2  C   UNL     1      34.199 -21.565 -19.453  0.00  0.00    +0.122 C 
ATOM      3  C   UNL     1      33.720 -19.814 -21.047  0.00  0.00    +0.006 C 
ATOM      4  C   UNL     1      36.004 -20.486 -20.643  0.00  0.00    +0.006 C 
ATOM      5  C   UNL     1      33.278 -20.757 -20.118  0.00  0.00    +0.020 C 
ATOM      6  C   UNL     1      35.563 -21.430 -19.715  0.00  0.00    +0.020 C 
ENDROOT
BRANCH   1   9
ATOM      7  O   UNL     1      36.694 -18.227 -22.203  0.00  0.00    -0.270 OA
ATOM      8  N   UNL     1      34.647 -18.333 -23.288  0.00  0.00    -0.297 N 
ATOM      9  C   UNL     1      35.544 -18.695 -22.276  0.00  0.00    +0.246 C 
ATOM     10  H   UNL     1      33.752 -18.742 -23.286  0.00  0.00    +0.150 HD
BRANCH   8  11
ATOM     11  C   UNL     1      34.964 -17.388 -24.335  0.00  0.00    +0.117 C 
BRANCH  11  12
ATOM     12  C   UNL     1      34.383 -16.030 -24.061  0.00  0.00    -0.003 C 
ATOM     13  C   UNL     1      34.633 -15.408 -22.844  0.00  0.00    -0.003 C 
ATOM     14  C   UNL     1      33.600 -15.409 -25.028  0.00  0.00    -0.003 C 
ATOM     15  C   UNL     1      34.095 -14.147 -22.589  0.00  0.00    -0.000 C 
ATOM     16  C   UNL     1      33.061 -14.148 -24.774  0.00  0.00    -0.000 C 
ATOM     17  C   UNL     1      33.308 -13.518 -23.554  0.00  0.00    -0.000 C 
ENDBRANCH  11  12
ENDBRANCH   8  11
ENDBRANCH   1   9
BRANCH   2  18
ATOM     18  S   UNL     1      33.647 -22.746 -18.292  0.00  0.00    +0.057 S 
ATOM     19  O   UNL     1      34.619 -22.818 -17.210  0.00  0.00    -0.153 OA
ATOM     20  O   UNL     1      32.247 -22.477 -17.989  0.00  0.00    -0.153 OA
BRANCH  18  21
ATOM     21  N   UNL     1      33.742 -24.180 -19.216  0.00  0.00    -0.203 NA
ATOM     22  H   UNL     1      34.675 -24.583 -19.122  0.00  0.00    +0.144 HD
ATOM     23  H   UNL     1      33.561 -23.965 -20.196  0.00  0.00    +0.144 HD
ENDBRANCH  18  21
ENDBRANCH   2  18
TORSDOF 5
ENDMDL
MODEL 4
REMARK VINA RESULT:      -9.6      3.806      8.246
REMARK  Name = 4347
REMARK  5 active torsions:
REMARK  status: ('A' for Active; 'I' for Inactive)
REMARK    1  A    between atoms: C_1  and  C_9
REMARK    2  A    between atoms: C_2  and  S_18
REMARK    3  A    between atoms: N_8  and  C_11
REMARK    4  A    between atoms: C_11  and  C_12
REMARK    5  A    between atoms: S_18  and  N_21
REMARK                            x       y       z     vdW  Elec       q    Type
REMARK                         _______ _______ _______ _____ _____    ______ ____
ROOT
ATOM      1  C   UNL     1      34.396 -21.532 -19.580  0.00  0.00    +0.053 C 
ATOM      2  C   UNL     1      34.914 -19.293 -21.160  0.00  0.00    +0.122 C 
ATOM      3  C   UNL     1      33.338 -20.771 -20.079  0.00  0.00    +0.006 C 
ATOM      4  C   UNL     1      35.711 -21.174 -19.870  0.00  0.00    +0.006 C 
ATOM      5  C   UNL     1      33.598 -19.651 -20.869  0.00  0.00    +0.020 C 
ATOM      6  C   UNL     1      35.971 -20.054 -20.661  0.00  0.00    +0.020 C 
ENDROOT
BRANCH   1   9
ATOM      7  O   UNL     1      33.835 -23.790 -19.280  0.00  0.00    -0.270 OA
ATOM      8  N   UNL     1      34.231 -22.536 -17.369  0.00  0.00    -0.297 N 
ATOM      9  C   UNL     1      34.125 -22.700 -18.756  0.00  0.00    +0.246 C 
ATOM     10  H   UNL     1      34.464 -21.645 -17.022  0.00  0.00    +0.150 HD
BRANCH   8  11
ATOM     11  C   UNL     1      34.016 -23.605 -16.420  0.00  0.00    +0.117 C 
BRANCH  11  12
ATOM     12  C   UNL     1      32.707 -23.460 -15.699  0.00  0.00    -0.003 C 
ATOM     13  C   UNL     1      31.553 -23.176 -16.419  0.00  0.00    -0.003 C 
ATOM     14  C   UNL     1      32.662 -23.612 -14.317  0.00  0.00    -0.003 C 
ATOM     15  C   UNL     1      30.337 -23.042 -15.749  0.00  0.00    -0.000 C 
ATOM     16  C   UNL     1      31.447 -23.478 -13.647  0.00  0.00    -0.000 C 
ATOM     17  C   UNL     1      30.284 -23.192 -14.364  0.00  0.00    -0.000 C 
ENDBRANCH  11  12
ENDBRANCH   8  11
ENDBRANCH   1   9
BRANCH   2  18
ATOM     18  S   UNL     1      35.239 -17.890 -22.148  0.00  0.00    +0.057 S 
ATOM     19  O   UNL     1      34.435 -17.985 -23.360  0.00  0.00    -0.153 OA
ATOM     20  O   UNL     1      35.146 -16.702 -21.310  0.00  0.00    -0.153 OA
BRANCH  18  21
ATOM     21  N   UNL     1      36.879 -18.150 -22.552  0.00  0.00    -0.203 NA
ATOM     22  H   UNL     1      37.475 -17.708 -21.852  0.00  0.00    +0.144 HD
ATOM     23  H   UNL     1      37.071 -17.745 -23.468  0.00  0.00    +0.144 HD
ENDBRANCH  18  21
ENDBRANCH   2  18
TORSDOF 5
ENDMDL
MODEL 5
REMARK VINA RESULT:      -9.5      1.485      2.261
REMARK  Name = 4347
REMARK  5 active torsions:
REMARK  status: ('A' for Active; 'I' for Inactive)
REMARK    1  A    between atoms: C_1  and  C_9
REMARK    2  A    between atoms: C_2  and  S_18
REMARK    3  A    between atoms: N_8  and  C_11
REMARK    4  A    between atoms: C_11  and  C_12
REMARK    5  A    between atoms: S_18  and  N_21
REMARK                            x       y       z     vdW  Elec       q    Type
REMARK                         _______ _______ _______ _____ _____    ______ ____
ROOT
ATOM      1  C   UNL     1      35.157 -19.132 -20.984  0.00  0.00    +0.053 C 
ATOM      2  C   UNL     1      34.401 -21.418 -19.577  0.00  0.00    +0.122 C 
ATOM      3  C   UNL     1      36.130 -19.961 -20.426  0.00  0.00    +0.006 C 
ATOM      4  C   UNL     1      33.806 -19.445 -20.837  0.00  0.00    +0.006 C 
ATOM      5  C   UNL     1      35.751 -21.105 -19.723  0.00  0.00    +0.020 C 
ATOM      6  C   UNL     1      33.428 -20.589 -20.134  0.00  0.00    +0.020 C 
ENDROOT
BRANCH   1   9
ATOM      7  O   UNL     1      36.573 -17.943 -22.428  0.00  0.00    -0.270 OA
ATOM      8  N   UNL     1      34.721 -16.818 -21.600  0.00  0.00    -0.297 N 
ATOM      9  C   UNL     1      35.551 -17.939 -21.717  0.00  0.00    +0.246 C 
ATOM     10  H   UNL     1      33.929 -16.884 -21.020  0.00  0.00    +0.150 HD
BRANCH   8  11
ATOM     11  C   UNL     1      34.966 -15.568 -22.284  0.00  0.00    +0.117 C 
BRANCH  11  12
ATOM     12  C   UNL     1      34.293 -15.521 -23.626  0.00  0.00    -0.003 C 
ATOM     13  C   UNL     1      34.410 -16.601 -24.491  0.00  0.00    -0.003 C 
ATOM     14  C   UNL     1      33.560 -14.397 -23.988  0.00  0.00    -0.003 C 
ATOM     15  C   UNL     1      33.785 -16.558 -25.738  0.00  0.00    -0.000 C 
ATOM     16  C   UNL     1      32.934 -14.353 -25.234  0.00  0.00    -0.000 C 
ATOM     17  C   UNL     1      33.048 -15.434 -26.109  0.00  0.00    -0.000 C 
ENDBRANCH  11  12
ENDBRANCH   8  11
ENDBRANCH   1   9
BRANCH   2  18
ATOM     18  S   UNL     1      33.927 -22.849 -18.695  0.00  0.00    +0.057 S 
ATOM     19  O   UNL     1      33.873 -23.967 -19.628  0.00  0.00    -0.153 OA
ATOM     20  O   UNL     1      34.750 -22.947 -17.496  0.00  0.00    -0.153 OA
BRANCH  18  21
ATOM     21  N   UNL     1      32.334 -22.436 -18.236  0.00  0.00    -0.203 NA
ATOM     22  H   UNL     1      31.809 -22.140 -19.060  0.00  0.00    +0.144 HD
ATOM     23  H   UNL     1      32.363 -21.675 -17.559  0.00  0.00    +0.144 HD
ENDBRANCH  18  21
ENDBRANCH   2  18
TORSDOF 5
ENDMDL
MODEL 6
REMARK VINA RESULT:      -9.5      4.091      8.287
REMARK  Name = 4347
REMARK  5 active torsions:
REMARK  status: ('A' for Active; 'I' for Inactive)
REMARK    1  A    between atoms: C_1  and  C_9
REMARK    2  A    between atoms: C_2  and  S_18
REMARK    3  A    between atoms: N_8  and  C_11
REMARK    4  A    between atoms: C_11  and  C_12
REMARK    5  A    between atoms: S_18  and  N_21
REMARK                            x       y       z     vdW  Elec       q    Type
REMARK                         _______ _______ _______ _____ _____    ______ ____
ROOT
ATOM      1  C   UNL     1      34.166 -22.000 -19.058  0.00  0.00    +0.053 C 
ATOM      2  C   UNL     1      35.065 -19.930 -20.697  0.00  0.00    +0.122 C 
ATOM      3  C   UNL     1      35.534 -21.795 -19.235  0.00  0.00    +0.006 C 
ATOM      4  C   UNL     1      33.248 -21.172 -19.701  0.00  0.00    +0.006 C 
ATOM      5  C   UNL     1      35.983 -20.759 -20.054  0.00  0.00    +0.020 C 
ATOM      6  C   UNL     1      33.696 -20.135 -20.520  0.00  0.00    +0.020 C 
ENDROOT
BRANCH   1   9
ATOM      7  O   UNL     1      33.662 -24.250 -18.627  0.00  0.00    -0.270 OA
ATOM      8  N   UNL     1      33.321 -22.741 -16.899  0.00  0.00    -0.297 N 
ATOM      9  C   UNL     1      33.698 -23.081 -18.204  0.00  0.00    +0.246 C 
ATOM     10  H   UNL     1      33.374 -21.795 -16.631  0.00  0.00    +0.150 HD
BRANCH   8  11
ATOM     11  C   UNL     1      32.858 -23.703 -15.926  0.00  0.00    +0.117 C 
BRANCH  11  12
ATOM     12  C   UNL     1      31.360 -23.720 -15.820  0.00  0.00    -0.003 C 
ATOM     13  C   UNL     1      30.615 -22.744 -16.472  0.00  0.00    -0.003 C 
ATOM     14  C   UNL     1      30.734 -24.709 -15.072  0.00  0.00    -0.003 C 
ATOM     15  C   UNL     1      29.223 -22.759 -16.375  0.00  0.00    -0.000 C 
ATOM     16  C   UNL     1      29.343 -24.725 -14.974  0.00  0.00    -0.000 C 
ATOM     17  C   UNL     1      28.588 -23.749 -15.626  0.00  0.00    -0.000 C 
ENDBRANCH  11  12
ENDBRANCH   8  11
ENDBRANCH   1   9
BRANCH   2  18
ATOM     18  S   UNL     1      35.627 -18.634 -21.723  0.00  0.00    +0.057 S 
ATOM     19  O   UNL     1      37.082 -18.683 -21.772  0.00  0.00    -0.153 OA
ATOM     20  O   UNL     1      34.861 -18.660 -22.962  0.00  0.00    -0.153 OA
BRANCH  18  21
ATOM     21  N   UNL     1      35.152 -17.268 -20.813  0.00  0.00    -0.203 NA
ATOM     22  H   UNL     1      35.947 -16.637 -20.707  0.00  0.00    +0.144 HD
ATOM     23  H   UNL     1      34.832 -17.569 -19.892  0.00  0.00    +0.144 HD
ENDBRANCH  18  21
ENDBRANCH   2  18
TORSDOF 5
ENDMDL
MODEL 7
REMARK VINA RESULT:      -9.2      4.383      8.065
REMARK  Name = 4347
REMARK  5 active torsions:
REMARK  status: ('A' for Active; 'I' for Inactive)
REMARK    1  A    between atoms: C_1  and  C_9
REMARK    2  A    between atoms: C_2  and  S_18
REMARK    3  A    between atoms: N_8  and  C_11
REMARK    4  A    between atoms: C_11  and  C_12
REMARK    5  A    between atoms: S_18  and  N_21
REMARK                            x       y       z     vdW  Elec       q    Type
REMARK                         _______ _______ _______ _____ _____    ______ ____
ROOT
ATOM      1  C   UNL     1      33.622 -15.146 -22.211  0.00  0.00    +0.053 C 
ATOM      2  C   UNL     1      32.287 -12.790 -21.546  0.00  0.00    +0.122 C 
ATOM      3  C   UNL     1      33.180 -14.940 -20.903  0.00  0.00    +0.006 C 
ATOM      4  C   UNL     1      33.396 -14.175 -23.185  0.00  0.00    +0.006 C 
ATOM      5  C   UNL     1      32.512 -13.761 -20.572  0.00  0.00    +0.020 C 
ATOM      6  C   UNL     1      32.728 -12.996 -22.853  0.00  0.00    +0.020 C 
ENDROOT
BRANCH   1   9
ATOM      7  O   UNL     1      34.414 -16.736 -23.743  0.00  0.00    -0.270 OA
ATOM      8  N   UNL     1      34.886 -17.101 -21.502  0.00  0.00    -0.297 N 
ATOM      9  C   UNL     1      34.319 -16.375 -22.556  0.00  0.00    +0.246 C 
ATOM     10  H   UNL     1      34.773 -16.758 -20.587  0.00  0.00    +0.150 HD
BRANCH   8  11
ATOM     11  C   UNL     1      35.629 -18.328 -21.686  0.00  0.00    +0.117 C 
BRANCH  11  12
ATOM     12  C   UNL     1      35.020 -19.472 -20.927  0.00  0.00    -0.003 C 
ATOM     13  C   UNL     1      35.846 -20.414 -20.326  0.00  0.00    -0.003 C 
ATOM     14  C   UNL     1      33.638 -19.578 -20.834  0.00  0.00    -0.003 C 
ATOM     15  C   UNL     1      35.282 -21.477 -19.620  0.00  0.00    -0.000 C 
ATOM     16  C   UNL     1      33.073 -20.640 -20.129  0.00  0.00    -0.000 C 
ATOM     17  C   UNL     1      33.895 -21.590 -19.523  0.00  0.00    -0.000 C 
ENDBRANCH  11  12
ENDBRANCH   8  11
ENDBRANCH   1   9
BRANCH   2  18
ATOM     18  S   UNL     1      31.451 -11.313 -21.131  0.00  0.00    +0.057 S 
ATOM     19  O   UNL     1      32.127 -10.202 -21.786  0.00  0.00    -0.153 OA
ATOM     20  O   UNL     1      30.023 -11.516 -21.340  0.00  0.00    -0.153 OA
BRANCH  18  21
ATOM     21  N   UNL     1      31.753 -11.230 -19.451  0.00  0.00    -0.203 NA
ATOM     22  H   UNL     1      31.308 -12.022 -18.986  0.00  0.00    +0.144 HD
ATOM     23  H   UNL     1      31.372 -10.360 -19.081  0.00  0.00    +0.144 HD
ENDBRANCH  18  21
ENDBRANCH   2  18
TORSDOF 5
ENDMDL
MODEL 8
REMARK VINA RESULT:      -9.2      4.392      8.077
REMARK  Name = 4347
REMARK  5 active torsions:
REMARK  status: ('A' for Active; 'I' for Inactive)
REMARK    1  A    between atoms: C_1  and  C_9
REMARK    2  A    between atoms: C_2  and  S_18
REMARK    3  A    between atoms: N_8  and  C_11
REMARK    4  A    between atoms: C_11  and  C_12
REMARK    5  A    between atoms: S_18  and  N_21
REMARK                            x       y       z     vdW  Elec       q    Type
REMARK                         _______ _______ _______ _____ _____    ______ ____
ROOT
ATOM      1  C   UNL     1      33.617 -15.123 -22.212  0.00  0.00    +0.053 C 
ATOM      2  C   UNL     1      32.276 -12.772 -21.537  0.00  0.00    +0.122 C 
ATOM      3  C   UNL     1      33.366 -14.159 -23.189  0.00  0.00    +0.006 C 
ATOM      4  C   UNL     1      33.197 -14.913 -20.900  0.00  0.00    +0.006 C 
ATOM      5  C   UNL     1      32.696 -12.983 -22.850  0.00  0.00    +0.020 C 
ATOM      6  C   UNL     1      32.527 -13.737 -20.561  0.00  0.00    +0.020 C 
ENDROOT
BRANCH   1   9
ATOM      7  O   UNL     1      34.435 -16.688 -23.756  0.00  0.00    -0.270 OA
ATOM      8  N   UNL     1      34.855 -17.098 -21.512  0.00  0.00    -0.297 N 
ATOM      9  C   UNL     1      34.315 -16.350 -22.565  0.00  0.00    +0.246 C 
ATOM     10  H   UNL     1      34.723 -16.772 -20.594  0.00  0.00    +0.150 HD
BRANCH   8  11
ATOM     11  C   UNL     1      35.596 -18.325 -21.703  0.00  0.00    +0.117 C 
BRANCH  11  12
ATOM     12  C   UNL     1      34.998 -19.467 -20.932  0.00  0.00    -0.003 C 
ATOM     13  C   UNL     1      33.617 -19.576 -20.826  0.00  0.00    -0.003 C 
ATOM     14  C   UNL     1      35.832 -20.403 -20.332  0.00  0.00    -0.003 C 
ATOM     15  C   UNL     1      33.061 -20.637 -20.111  0.00  0.00    -0.000 C 
ATOM     16  C   UNL     1      35.277 -21.464 -19.617  0.00  0.00    -0.000 C 
ATOM     17  C   UNL     1      33.891 -21.580 -19.506  0.00  0.00    -0.000 C 
ENDBRANCH  11  12
ENDBRANCH   8  11
ENDBRANCH   1   9
BRANCH   2  18
ATOM     18  S   UNL     1      31.437 -11.301 -21.114  0.00  0.00    +0.057 S 
ATOM     19  O   UNL     1      32.093 -10.187 -21.785  0.00  0.00    -0.153 OA
ATOM     20  O   UNL     1      30.007 -11.515 -21.298  0.00  0.00    -0.153 OA
BRANCH  18  21
ATOM     21  N   UNL     1      31.766 -11.208 -19.440  0.00  0.00    -0.203 NA
ATOM     22  H   UNL     1      31.597 -12.118 -19.010  0.00  0.00    +0.144 HD
ATOM     23  H   UNL     1      31.158 -10.510 -19.012  0.00  0.00    +0.144 HD
ENDBRANCH  18  21
ENDBRANCH   2  18
TORSDOF 5
ENDMDL
MODEL 9
REMARK VINA RESULT:      -9.1      3.796      5.965
REMARK  Name = 4347
REMARK  5 active torsions:
REMARK  status: ('A' for Active; 'I' for Inactive)
REMARK    1  A    between atoms: C_1  and  C_9
REMARK    2  A    between atoms: C_2  and  S_18
REMARK    3  A    between atoms: N_8  and  C_11
REMARK    4  A    between atoms: C_11  and  C_12
REMARK    5  A    between atoms: S_18  and  N_21
REMARK                            x       y       z     vdW  Elec       q    Type
REMARK                         _______ _______ _______ _____ _____    ______ ____
ROOT
ATOM      1  C   UNL     1      33.059 -14.132 -21.523  0.00  0.00    +0.053 C 
ATOM      2  C   UNL     1      34.310 -16.619 -21.685  0.00  0.00    +0.122 C 
ATOM      3  C   UNL     1      34.047 -14.354 -22.482  0.00  0.00    +0.006 C 
ATOM      4  C   UNL     1      32.697 -15.152 -20.646  0.00  0.00    +0.006 C 
ATOM      5  C   UNL     1      34.672 -15.599 -22.563  0.00  0.00    +0.020 C 
ATOM      6  C   UNL     1      33.322 -16.397 -20.726  0.00  0.00    +0.020 C 
ENDROOT
BRANCH   1   9
ATOM      7  O   UNL     1      31.910 -12.445 -20.367  0.00  0.00    -0.270 OA
ATOM      8  N   UNL     1      32.395 -12.053 -22.601  0.00  0.00    -0.297 N 
ATOM      9  C   UNL     1      32.407 -12.834 -21.439  0.00  0.00    +0.246 C 
ATOM     10  H   UNL     1      32.807 -12.423 -23.415  0.00  0.00    +0.150 HD
BRANCH   8  11
ATOM     11  C   UNL     1      31.808 -10.734 -22.671  0.00  0.00    +0.117 C 
BRANCH  11  12
ATOM     12  C   UNL     1      32.833  -9.678 -22.967  0.00  0.00    -0.003 C 
ATOM     13  C   UNL     1      32.754  -8.445 -22.331  0.00  0.00    -0.003 C 
ATOM     14  C   UNL     1      33.852  -9.943 -23.875  0.00  0.00    -0.003 C 
ATOM     15  C   UNL     1      33.706  -7.464 -22.605  0.00  0.00    -0.000 C 
ATOM     16  C   UNL     1      34.804  -8.963 -24.150  0.00  0.00    -0.000 C 
ATOM     17  C   UNL     1      34.730  -7.722 -23.516  0.00  0.00    -0.000 C 
ENDBRANCH  11  12
ENDBRANCH   8  11
ENDBRANCH   1   9
BRANCH   2  18
ATOM     18  S   UNL     1      35.093 -18.177 -21.786  0.00  0.00    +0.057 S 
ATOM     19  O   UNL     1      35.897 -18.366 -20.586  0.00  0.00    -0.153 OA
ATOM     20  O   UNL     1      34.095 -19.173 -22.152  0.00  0.00    -0.153 OA
BRANCH  18  21
ATOM     21  N   UNL     1      36.137 -17.931 -23.116  0.00  0.00    -0.203 NA
ATOM     22  H   UNL     1      35.590 -17.646 -23.929  0.00  0.00    +0.144 HD
ATOM     23  H   UNL     1      36.631 -18.798 -23.324  0.00  0.00    +0.144 HD
ENDBRANCH  18  21
ENDBRANCH   2  18
TORSDOF 5
ENDMDL
