MODEL 1
REMARK VINA RESULT:     -10.4      0.000      0.000
REMARK  Name = 40467109
REMARK  5 active torsions:
REMARK  status: ('A' for Active; 'I' for Inactive)
REMARK    1  A    between atoms: N_2  and  CA_9
REMARK    2  A    between atoms: C_3  and  CA_18
REMARK    3  A    between atoms: CA_11  and  C_17
REMARK    4  A    between atoms: CA_18  and  C_19
REMARK    5  A    between atoms: CA_18  and  N_25
REMARK                            x       y       z     vdW  Elec       q    Type
REMARK                         _______ _______ _______ _____ _____    ______ ____
ROOT
ATOM      1  O   UNL     1      36.637 -20.734 -20.612  0.00  0.00    -0.277 OA
ATOM      2  N   UNL     1      34.910 -19.187 -20.699  0.00  0.00    -0.298 N 
ATOM      3  C   UNL     1      35.453 -20.446 -20.443  0.00  0.00    +0.206 C 
ATOM      4  H   UNL     1      33.949 -19.048 -20.535  0.00  0.00    +0.150 HD
ENDROOT
BRANCH   2   9
ATOM      5  S   UNL     1      34.785 -18.940 -23.757  0.00  0.00    -0.114 S 
ATOM      6  O   UNL     1      34.609 -15.978 -20.177  0.00  0.00    -0.273 OA
ATOM      7  N   UNL     1      34.862 -16.651 -22.419  0.00  0.00    -0.242 N 
ATOM      8  C   UNL     1      35.712 -17.786 -22.719  0.00  0.00    +0.155 C 
ATOM      9  CA  UNL     1      35.705 -18.068 -21.200  0.00  0.00    +0.178 C 
ATOM     10  C   UNL     1      34.988 -16.691 -21.077  0.00  0.00    +0.251 C 
ATOM     11  CA  UNL     1      34.219 -15.908 -23.355  0.00  0.00    +0.128 C 
ATOM     12  C   UNL     1      34.557 -17.722 -25.099  0.00  0.00    +0.083 C 
ATOM     13  C   UNL     1      34.092 -16.345 -24.629  0.00  0.00    -0.013 C 
ATOM     14  C   UNL     1      33.463 -15.545 -25.743  0.00  0.00    +0.029 C 
BRANCH  11  17
ATOM     15  O   UNL     1      32.419 -14.711 -22.439  0.00  0.00    -0.239 OA
ATOM     16  OXT UNL     1      34.279 -13.571 -23.129  0.00  0.00    -0.239 OA
ATOM     17  C   UNL     1      33.572 -14.595 -22.930  0.00  0.00    +0.401 C 
ENDBRANCH  11  17
ENDBRANCH   2   9
BRANCH   3  18
ATOM     18  CA  UNL     1      34.437 -21.448 -19.924  0.00  0.00    +0.036 C 
BRANCH  18  19
ATOM     19  C   UNL     1      34.911 -21.951 -18.602  0.00  0.00    -0.034 C 
ATOM     20  C   UNL     1      33.910 -22.749 -17.799  0.00  0.00    -0.006 C 
ATOM     21  C   UNL     1      36.155 -21.710 -18.152  0.00  0.00    -0.006 C 
ATOM     22  C   UNL     1      36.671 -22.199 -16.830  0.00  0.00    -0.000 C 
ATOM     23  C   UNL     1      34.429 -23.238 -16.479  0.00  0.00    -0.000 C 
ATOM     24  C   UNL     1      35.672 -22.990 -16.042  0.00  0.00    -0.000 C 
ENDBRANCH  18  19
BRANCH  18  25
ATOM     25  N   UNL     1      33.108 -20.774 -19.851  0.00  0.00    +0.390 N 
ATOM     26  H1  UNL     1      32.580 -20.973 -20.701  0.00  0.00    -0.088 HD
ATOM     27  H2  UNL     1      33.242 -19.767 -19.763  0.00  0.00    -0.088 HD
ATOM     28  H3  UNL     1      32.594 -21.122 -19.042  0.00  0.00    -0.088 HD
ENDBRANCH  18  25
ENDBRANCH   3  18
TORSDOF 5
ENDMDL
MODEL 2
REMARK VINA RESULT:      -9.7      5.741     10.849
REMARK  Name = 40467109
REMARK  5 active torsions:
REMARK  status: ('A' for Active; 'I' for Inactive)
REMARK    1  A    between atoms: N_2  and  CA_9
REMARK    2  A    between atoms: C_3  and  CA_18
REMARK    3  A    between atoms: CA_11  and  C_17
REMARK    4  A    between atoms: CA_18  and  C_19
REMARK    5  A    between atoms: CA_18  and  N_25
REMARK                            x       y       z     vdW  Elec       q    Type
REMARK                         _______ _______ _______ _____ _____    ______ ____
ROOT
ATOM      1  O   UNL     1      31.374  -9.400 -19.885  0.00  0.00    -0.277 OA
ATOM      2  N   UNL     1      32.417 -10.128 -21.825  0.00  0.00    -0.298 N 
ATOM      3  C   UNL     1      32.212  -9.238 -20.771  0.00  0.00    +0.206 C 
ATOM      4  H   UNL     1      33.111  -9.916 -22.490  0.00  0.00    +0.150 HD
ENDROOT
BRANCH   2   9
ATOM      5  S   UNL     1      33.504 -11.904 -24.082  0.00  0.00    -0.114 S 
ATOM      6  O   UNL     1      31.949 -12.612 -19.757  0.00  0.00    -0.273 OA
ATOM      7  N   UNL     1      32.580 -13.186 -21.952  0.00  0.00    -0.242 N 
ATOM      8  C   UNL     1      32.095 -12.380 -23.055  0.00  0.00    +0.155 C 
ATOM      9  CA  UNL     1      31.647 -11.360 -21.984  0.00  0.00    +0.178 C 
ATOM     10  C   UNL     1      32.025 -12.467 -20.955  0.00  0.00    +0.251 C 
ATOM     11  CA  UNL     1      33.353 -14.292 -22.094  0.00  0.00    +0.128 C 
ATOM     12  C   UNL     1      33.943 -13.633 -24.474  0.00  0.00    +0.083 C 
ATOM     13  C   UNL     1      33.972 -14.566 -23.266  0.00  0.00    -0.013 C 
ATOM     14  C   UNL     1      34.783 -15.813 -23.527  0.00  0.00    +0.029 C 
BRANCH  11  17
ATOM     15  O   UNL     1      32.636 -15.991 -20.642  0.00  0.00    -0.239 OA
ATOM     16  OXT UNL     1      34.672 -15.010 -20.289  0.00  0.00    -0.239 OA
ATOM     17  C   UNL     1      33.577 -15.191 -20.883  0.00  0.00    +0.401 C 
ENDBRANCH  11  17
ENDBRANCH   2   9
BRANCH   3  18
ATOM     18  CA  UNL     1      33.132  -8.031 -20.811  0.00  0.00    +0.036 C 
BRANCH  18  19
ATOM     19  C   UNL     1      32.920  -7.326 -22.109  0.00  0.00    -0.034 C 
ATOM     20  C   UNL     1      34.053  -7.415 -23.104  0.00  0.00    -0.006 C 
ATOM     21  C   UNL     1      31.788  -6.652 -22.376  0.00  0.00    -0.006 C 
ATOM     22  C   UNL     1      31.534  -5.930 -23.668  0.00  0.00    -0.000 C 
ATOM     23  C   UNL     1      33.797  -6.694 -24.395  0.00  0.00    -0.000 C 
ATOM     24  C   UNL     1      32.664  -6.025 -24.649  0.00  0.00    -0.000 C 
ENDBRANCH  18  19
BRANCH  18  25
ATOM     25  N   UNL     1      32.835  -7.175 -19.625  0.00  0.00    +0.390 N 
ATOM     26  H1  UNL     1      32.302  -6.359 -19.921  0.00  0.00    -0.088 HD
ATOM     27  H2  UNL     1      33.710  -6.873 -19.197  0.00  0.00    -0.088 HD
ATOM     28  H3  UNL     1      32.292  -7.710 -18.948  0.00  0.00    -0.088 HD
ENDBRANCH  18  25
ENDBRANCH   3  18
TORSDOF 5
ENDMDL
MODEL 3
REMARK VINA RESULT:      -9.2      4.443      7.218
REMARK  Name = 40467109
REMARK  5 active torsions:
REMARK  status: ('A' for Active; 'I' for Inactive)
REMARK    1  A    between atoms: N_2  and  CA_9
REMARK    2  A    between atoms: C_3  and  CA_18
REMARK    3  A    between atoms: CA_11  and  C_17
REMARK    4  A    between atoms: CA_18  and  C_19
REMARK    5  A    between atoms: CA_18  and  N_25
REMARK                            x       y       z     vdW  Elec       q    Type
REMARK                         _______ _______ _______ _____ _____    ______ ____
ROOT
ATOM      1  O   UNL     1      31.673 -15.389 -21.429  0.00  0.00    -0.277 OA
ATOM      2  N   UNL     1      33.145 -13.671 -21.945  0.00  0.00    -0.298 N 
ATOM      3  C   UNL     1      32.809 -14.915 -21.412  0.00  0.00    +0.206 C 
ATOM      4  H   UNL     1      34.081 -13.372 -21.886  0.00  0.00    +0.150 HD
ENDROOT
BRANCH   2   9
ATOM      5  S   UNL     1      31.927 -11.643 -19.988  0.00  0.00    -0.114 S 
ATOM      6  O   UNL     1      33.516 -11.499 -24.355  0.00  0.00    -0.273 OA
ATOM      7  N   UNL     1      32.346 -10.755 -22.452  0.00  0.00    -0.242 N 
ATOM      8  C   UNL     1      31.495 -11.690 -21.742  0.00  0.00    +0.155 C 
ATOM      9  CA  UNL     1      32.169 -12.794 -22.588  0.00  0.00    +0.178 C 
ATOM     10  C   UNL     1      32.814 -11.617 -23.378  0.00  0.00    +0.251 C 
ATOM     11  CA  UNL     1      32.492  -9.448 -22.118  0.00  0.00    +0.128 C 
ATOM     12  C   UNL     1      31.505  -9.874 -19.818  0.00  0.00    +0.083 C 
ATOM     13  C   UNL     1      32.074  -8.982 -20.919  0.00  0.00    -0.013 C 
ATOM     14  C   UNL     1      32.129  -7.531 -20.506  0.00  0.00    +0.029 C 
BRANCH  11  17
ATOM     15  O   UNL     1      32.452  -7.934 -23.912  0.00  0.00    -0.239 OA
ATOM     16  OXT UNL     1      34.457  -8.463 -22.944  0.00  0.00    -0.239 OA
ATOM     17  C   UNL     1      33.208  -8.519 -23.092  0.00  0.00    +0.401 C 
ENDBRANCH  11  17
ENDBRANCH   2   9
BRANCH   3  18
ATOM     18  CA  UNL     1      33.988 -15.649 -20.800  0.00  0.00    +0.036 C 
BRANCH  18  19
ATOM     19  C   UNL     1      34.346 -16.787 -21.696  0.00  0.00    -0.034 C 
ATOM     20  C   UNL     1      34.802 -16.417 -23.087  0.00  0.00    -0.006 C 
ATOM     21  C   UNL     1      34.270 -18.066 -21.287  0.00  0.00    -0.006 C 
ATOM     22  C   UNL     1      34.621 -19.239 -22.155  0.00  0.00    -0.000 C 
ATOM     23  C   UNL     1      35.154 -17.591 -23.953  0.00  0.00    -0.000 C 
ATOM     24  C   UNL     1      35.073 -18.862 -23.534  0.00  0.00    -0.000 C 
ENDBRANCH  18  19
BRANCH  18  25
ATOM     25  N   UNL     1      35.104 -14.674 -20.618  0.00  0.00    +0.390 N 
ATOM     26  H1  UNL     1      35.732 -14.724 -21.420  0.00  0.00    -0.088 HD
ATOM     27  H2  UNL     1      35.620 -14.903 -19.768  0.00  0.00    -0.088 HD
ATOM     28  H3  UNL     1      34.723 -13.732 -20.542  0.00  0.00    -0.088 HD
ENDBRANCH  18  25
ENDBRANCH   3  18
TORSDOF 5
ENDMDL
MODEL 4
REMARK VINA RESULT:      -8.9      5.396     10.504
REMARK  Name = 40467109
REMARK  5 active torsions:
REMARK  status: ('A' for Active; 'I' for Inactive)
REMARK    1  A    between atoms: N_2  and  CA_9
REMARK    2  A    between atoms: C_3  and  CA_18
REMARK    3  A    between atoms: CA_11  and  C_17
REMARK    4  A    between atoms: CA_18  and  C_19
REMARK    5  A    between atoms: CA_18  and  N_25
REMARK                            x       y       z     vdW  Elec       q    Type
REMARK                         _______ _______ _______ _____ _____    ______ ____
ROOT
ATOM      1  O   UNL     1      30.709 -10.222 -20.407  0.00  0.00    -0.277 OA
ATOM      2  N   UNL     1      32.351 -11.131 -21.770  0.00  0.00    -0.298 N 
ATOM      3  C   UNL     1      31.777 -10.114 -21.008  0.00  0.00    +0.206 C 
ATOM      4  H   UNL     1      33.210 -10.955 -22.218  0.00  0.00    +0.150 HD
ENDROOT
BRANCH   2   9
ATOM      5  S   UNL     1      33.515 -12.686 -24.148  0.00  0.00    -0.114 S 
ATOM      6  O   UNL     1      32.324 -13.715 -19.772  0.00  0.00    -0.273 OA
ATOM      7  N   UNL     1      32.889 -14.139 -22.018  0.00  0.00    -0.242 N 
ATOM      8  C   UNL     1      32.241 -13.369 -23.062  0.00  0.00    +0.155 C 
ATOM      9  CA  UNL     1      31.734 -12.447 -21.931  0.00  0.00    +0.178 C 
ATOM     10  C   UNL     1      32.309 -13.526 -20.966  0.00  0.00    +0.251 C 
ATOM     11  CA  UNL     1      33.785 -15.132 -22.245  0.00  0.00    +0.128 C 
ATOM     12  C   UNL     1      34.144 -14.333 -24.628  0.00  0.00    +0.083 C 
ATOM     13  C   UNL     1      34.362 -15.290 -23.458  0.00  0.00    -0.013 C 
ATOM     14  C   UNL     1      35.305 -16.415 -23.810  0.00  0.00    +0.029 C 
BRANCH  11  17
ATOM     15  O   UNL     1      34.990 -15.502 -20.264  0.00  0.00    -0.239 OA
ATOM     16  OXT UNL     1      33.676 -17.179 -21.099  0.00  0.00    -0.239 OA
ATOM     17  C   UNL     1      34.193 -16.030 -21.083  0.00  0.00    +0.401 C 
ENDBRANCH  11  17
ENDBRANCH   2   9
BRANCH   3  18
ATOM     18  CA  UNL     1      32.601  -8.839 -20.983  0.00  0.00    +0.036 C 
BRANCH  18  19
ATOM     19  C   UNL     1      31.988  -7.868 -21.935  0.00  0.00    -0.034 C 
ATOM     20  C   UNL     1      31.953  -6.428 -21.482  0.00  0.00    -0.006 C 
ATOM     21  C   UNL     1      31.498  -8.252 -23.127  0.00  0.00    -0.006 C 
ATOM     22  C   UNL     1      30.875  -7.308 -24.114  0.00  0.00    -0.000 C 
ATOM     23  C   UNL     1      31.331  -5.485 -22.470  0.00  0.00    -0.000 C 
ATOM     24  C   UNL     1      30.846  -5.881 -23.655  0.00  0.00    -0.000 C 
ENDBRANCH  18  19
BRANCH  18  25
ATOM     25  N   UNL     1      32.642  -8.335 -19.578  0.00  0.00    +0.390 N 
ATOM     26  H1  UNL     1      32.777  -9.119 -18.941  0.00  0.00    -0.088 HD
ATOM     27  H2  UNL     1      31.762  -7.867 -19.360  0.00  0.00    -0.088 HD
ATOM     28  H3  UNL     1      33.413  -7.676 -19.476  0.00  0.00    -0.088 HD
ENDBRANCH  18  25
ENDBRANCH   3  18
TORSDOF 5
ENDMDL
MODEL 5
REMARK VINA RESULT:      -8.1      4.369      9.053
REMARK  Name = 40467109
REMARK  5 active torsions:
REMARK  status: ('A' for Active; 'I' for Inactive)
REMARK    1  A    between atoms: N_2  and  CA_9
REMARK    2  A    between atoms: C_3  and  CA_18
REMARK    3  A    between atoms: CA_11  and  C_17
REMARK    4  A    between atoms: CA_18  and  C_19
REMARK    5  A    between atoms: CA_18  and  N_25
REMARK                            x       y       z     vdW  Elec       q    Type
REMARK                         _______ _______ _______ _____ _____    ______ ____
ROOT
ATOM      1  O   UNL     1      33.942 -22.866 -20.190  0.00  0.00    -0.277 OA
ATOM      2  N   UNL     1      33.008 -22.266 -18.152  0.00  0.00    -0.298 N 
ATOM      3  C   UNL     1      33.481 -22.007 -19.439  0.00  0.00    +0.206 C 
ATOM      4  H   UNL     1      32.656 -21.515 -17.621  0.00  0.00    +0.150 HD
ENDROOT
BRANCH   2   9
ATOM      5  S   UNL     1      35.429 -22.725 -16.320  0.00  0.00    -0.114 S 
ATOM      6  O   UNL     1      30.884 -23.686 -16.119  0.00  0.00    -0.273 OA
ATOM      7  N   UNL     1      33.158 -23.844 -15.529  0.00  0.00    -0.242 N 
ATOM      8  C   UNL     1      34.148 -23.973 -16.580  0.00  0.00    +0.155 C 
ATOM      9  CA  UNL     1      33.012 -23.602 -17.560  0.00  0.00    +0.178 C 
ATOM     10  C   UNL     1      32.074 -23.738 -16.325  0.00  0.00    +0.251 C 
ATOM     11  CA  UNL     1      33.445 -23.846 -14.202  0.00  0.00    +0.128 C 
ATOM     12  C   UNL     1      35.895 -23.385 -14.682  0.00  0.00    +0.083 C 
ATOM     13  C   UNL     1      34.713 -23.681 -13.761  0.00  0.00    -0.013 C 
ATOM     14  C   UNL     1      35.123 -23.751 -12.310  0.00  0.00    +0.029 C 
BRANCH  11  17
ATOM     15  O   UNL     1      31.929 -22.872 -12.697  0.00  0.00    -0.239 OA
ATOM     16  OXT UNL     1      31.876 -25.136 -13.024  0.00  0.00    -0.239 OA
ATOM     17  C   UNL     1      32.298 -23.963 -13.205  0.00  0.00    +0.401 C 
ENDBRANCH  11  17
ENDBRANCH   2   9
BRANCH   3  18
ATOM     18  CA  UNL     1      33.371 -20.547 -19.840  0.00  0.00    +0.036 C 
BRANCH  18  19
ATOM     19  C   UNL     1      34.711 -20.091 -20.313  0.00  0.00    -0.034 C 
ATOM     20  C   UNL     1      34.710 -19.008 -21.365  0.00  0.00    -0.006 C 
ATOM     21  C   UNL     1      35.852 -20.612 -19.829  0.00  0.00    -0.006 C 
ATOM     22  C   UNL     1      37.219 -20.181 -20.275  0.00  0.00    -0.000 C 
ATOM     23  C   UNL     1      36.077 -18.577 -21.809  0.00  0.00    -0.000 C 
ATOM     24  C   UNL     1      37.207 -19.106 -21.319  0.00  0.00    -0.000 C 
ENDBRANCH  18  19
BRANCH  18  25
ATOM     25  N   UNL     1      32.311 -20.425 -20.883  0.00  0.00    +0.390 N 
ATOM     26  H1  UNL     1      31.399 -20.349 -20.432  0.00  0.00    -0.088 HD
ATOM     27  H2  UNL     1      32.326 -21.251 -21.482  0.00  0.00    -0.088 HD
ATOM     28  H3  UNL     1      32.482 -19.593 -21.447  0.00  0.00    -0.088 HD
ENDBRANCH  18  25
ENDBRANCH   3  18
TORSDOF 5
ENDMDL
MODEL 6
REMARK VINA RESULT:      -8.0      4.894      9.449
REMARK  Name = 40467109
REMARK  5 active torsions:
REMARK  status: ('A' for Active; 'I' for Inactive)
REMARK    1  A    between atoms: N_2  and  CA_9
REMARK    2  A    between atoms: C_3  and  CA_18
REMARK    3  A    between atoms: CA_11  and  C_17
REMARK    4  A    between atoms: CA_18  and  C_19
REMARK    5  A    between atoms: CA_18  and  N_25
REMARK                            x       y       z     vdW  Elec       q    Type
REMARK                         _______ _______ _______ _____ _____    ______ ____
ROOT
ATOM      1  O   UNL     1      34.044 -23.861 -19.391  0.00  0.00    -0.277 OA
ATOM      2  N   UNL     1      34.030 -22.949 -17.258  0.00  0.00    -0.298 N 
ATOM      3  C   UNL     1      33.875 -22.899 -18.643  0.00  0.00    +0.206 C 
ATOM      4  H   UNL     1      33.874 -22.128 -16.737  0.00  0.00    +0.150 HD
ENDROOT
BRANCH   2   9
ATOM      5  S   UNL     1      36.815 -22.731 -15.983  0.00  0.00    -0.114 S 
ATOM      6  O   UNL     1      32.681 -24.396 -14.660  0.00  0.00    -0.273 OA
ATOM      7  N   UNL     1      35.014 -24.087 -14.587  0.00  0.00    -0.242 N 
ATOM      8  C   UNL     1      35.776 -24.199 -15.815  0.00  0.00    +0.155 C 
ATOM      9  CA  UNL     1      34.414 -24.167 -16.546  0.00  0.00    +0.178 C 
ATOM     10  C   UNL     1      33.791 -24.279 -15.123  0.00  0.00    +0.251 C 
ATOM     11  CA  UNL     1      35.560 -23.851 -13.367  0.00  0.00    +0.128 C 
ATOM     12  C   UNL     1      37.724 -23.062 -14.434  0.00  0.00    +0.083 C 
ATOM     13  C   UNL     1      36.834 -23.415 -13.244  0.00  0.00    -0.013 C 
ATOM     14  C   UNL     1      37.537 -23.206 -11.924  0.00  0.00    +0.029 C 
BRANCH  11  17
ATOM     15  O   UNL     1      34.994 -24.985 -11.391  0.00  0.00    -0.239 OA
ATOM     16  OXT UNL     1      33.772 -23.154 -12.013  0.00  0.00    -0.239 OA
ATOM     17  C   UNL     1      34.685 -24.013 -12.129  0.00  0.00    +0.401 C 
ENDBRANCH  11  17
ENDBRANCH   2   9
BRANCH   3  18
ATOM     18  CA  UNL     1      33.467 -21.529 -19.156  0.00  0.00    +0.036 C 
BRANCH  18  19
ATOM     19  C   UNL     1      34.681 -20.856 -19.704  0.00  0.00    -0.034 C 
ATOM     20  C   UNL     1      34.432 -19.752 -20.704  0.00  0.00    -0.006 C 
ATOM     21  C   UNL     1      35.922 -21.211 -19.329  0.00  0.00    -0.006 C 
ATOM     22  C   UNL     1      37.169 -20.559 -19.854  0.00  0.00    -0.000 C 
ATOM     23  C   UNL     1      35.678 -19.102 -21.227  0.00  0.00    -0.000 C 
ATOM     24  C   UNL     1      36.911 -19.465 -20.845  0.00  0.00    -0.000 C 
ENDBRANCH  18  19
BRANCH  18  25
ATOM     25  N   UNL     1      32.390 -21.711 -20.173  0.00  0.00    +0.390 N 
ATOM     26  H1  UNL     1      31.647 -22.288 -19.779  0.00  0.00    -0.088 HD
ATOM     27  H2  UNL     1      32.775 -22.169 -20.998  0.00  0.00    -0.088 HD
ATOM     28  H3  UNL     1      32.012 -20.800 -20.434  0.00  0.00    -0.088 HD
ENDBRANCH  18  25
ENDBRANCH   3  18
TORSDOF 5
ENDMDL
MODEL 7
REMARK VINA RESULT:      -7.9      8.727     10.971
REMARK  Name = 40467109
REMARK  5 active torsions:
REMARK  status: ('A' for Active; 'I' for Inactive)
REMARK    1  A    between atoms: N_2  and  CA_9
REMARK    2  A    between atoms: C_3  and  CA_18
REMARK    3  A    between atoms: CA_11  and  C_17
REMARK    4  A    between atoms: CA_18  and  C_19
REMARK    5  A    between atoms: CA_18  and  N_25
REMARK                            x       y       z     vdW  Elec       q    Type
REMARK                         _______ _______ _______ _____ _____    ______ ____
ROOT
ATOM      1  O   UNL     1      32.167 -23.068 -16.090  0.00  0.00    -0.277 OA
ATOM      2  N   UNL     1      33.252 -23.290 -14.051  0.00  0.00    -0.298 N 
ATOM      3  C   UNL     1      32.132 -23.306 -14.883  0.00  0.00    +0.206 C 
ATOM      4  H   UNL     1      33.130 -23.492 -13.095  0.00  0.00    +0.150 HD
ENDROOT
BRANCH   2   9
ATOM      5  S   UNL     1      35.394 -23.680 -11.886  0.00  0.00    -0.114 S 
ATOM      6  O   UNL     1      35.018 -24.701 -16.407  0.00  0.00    -0.273 OA
ATOM      7  N   UNL     1      36.110 -24.358 -14.349  0.00  0.00    -0.242 N 
ATOM      8  C   UNL     1      35.792 -23.174 -13.575  0.00  0.00    +0.155 C 
ATOM      9  CA  UNL     1      34.597 -22.986 -14.537  0.00  0.00    +0.178 C 
ATOM     10  C   UNL     1      35.238 -24.145 -15.356  0.00  0.00    +0.251 C 
ATOM     11  CA  UNL     1      37.036 -25.282 -13.988  0.00  0.00    +0.128 C 
ATOM     12  C   UNL     1      37.042 -24.416 -11.601  0.00  0.00    +0.083 C 
ATOM     13  C   UNL     1      37.533 -25.319 -12.730  0.00  0.00    -0.013 C 
ATOM     14  C   UNL     1      38.620 -26.262 -12.274  0.00  0.00    +0.029 C 
BRANCH  11  17
ATOM     15  O   UNL     1      36.588 -27.214 -15.244  0.00  0.00    -0.239 OA
ATOM     16  OXT UNL     1      38.616 -26.181 -15.474  0.00  0.00    -0.239 OA
ATOM     17  C   UNL     1      37.456 -26.334 -15.007  0.00  0.00    +0.401 C 
ENDBRANCH  11  17
ENDBRANCH   2   9
BRANCH   3  18
ATOM     18  CA  UNL     1      30.845 -23.651 -14.156  0.00  0.00    +0.036 C 
BRANCH  18  19
ATOM     19  C   UNL     1      29.707 -23.446 -15.099  0.00  0.00    -0.034 C 
ATOM     20  C   UNL     1      29.382 -24.607 -16.008  0.00  0.00    -0.006 C 
ATOM     21  C   UNL     1      29.012 -22.295 -15.136  0.00  0.00    -0.006 C 
ATOM     22  C   UNL     1      27.860 -22.048 -16.067  0.00  0.00    -0.000 C 
ATOM     23  C   UNL     1      28.230 -24.358 -16.937  0.00  0.00    -0.000 C 
ATOM     24  C   UNL     1      27.545 -23.207 -16.965  0.00  0.00    -0.000 C 
ENDBRANCH  18  19
BRANCH  18  25
ATOM     25  N   UNL     1      30.948 -25.055 -13.661  0.00  0.00    +0.390 N 
ATOM     26  H1  UNL     1      31.751 -25.510 -14.095  0.00  0.00    -0.088 HD
ATOM     27  H2  UNL     1      30.098 -25.564 -13.902  0.00  0.00    -0.088 HD
ATOM     28  H3  UNL     1      31.066 -25.051 -12.648  0.00  0.00    -0.088 HD
ENDBRANCH  18  25
ENDBRANCH   3  18
TORSDOF 5
ENDMDL
MODEL 8
REMARK VINA RESULT:      -7.9      7.832     11.071
REMARK  Name = 40467109
REMARK  5 active torsions:
REMARK  status: ('A' for Active; 'I' for Inactive)
REMARK    1  A    between atoms: N_2  and  CA_9
REMARK    2  A    between atoms: C_3  and  CA_18
REMARK    3  A    between atoms: CA_11  and  C_17
REMARK    4  A    between atoms: CA_18  and  C_19
REMARK    5  A    between atoms: CA_18  and  N_25
REMARK                            x       y       z     vdW  Elec       q    Type
REMARK                         _______ _______ _______ _____ _____    ______ ____
ROOT
ATOM      1  O   UNL     1      32.705  -9.370 -19.474  0.00  0.00    -0.277 OA
ATOM      2  N   UNL     1      31.614  -8.408 -21.282  0.00  0.00    -0.298 N 
ATOM      3  C   UNL     1      31.853  -9.427 -20.360  0.00  0.00    +0.206 C 
ATOM      4  H   UNL     1      30.911  -8.541 -21.958  0.00  0.00    +0.150 HD
ENDROOT
BRANCH   2   9
ATOM      5  S   UNL     1      33.552  -8.210 -23.655  0.00  0.00    -0.114 S 
ATOM      6  O   UNL     1      30.571  -5.325 -21.554  0.00  0.00    -0.273 OA
ATOM      7  N   UNL     1      32.367  -5.945 -22.945  0.00  0.00    -0.242 N 
ATOM      8  C   UNL     1      33.351  -6.884 -22.443  0.00  0.00    +0.155 C 
ATOM      9  CA  UNL     1      32.362  -7.152 -21.286  0.00  0.00    +0.178 C 
ATOM     10  C   UNL     1      31.557  -5.951 -21.866  0.00  0.00    +0.251 C 
ATOM     11  CA  UNL     1      32.425  -5.356 -24.166  0.00  0.00    +0.128 C 
ATOM     12  C   UNL     1      34.114  -7.072 -24.969  0.00  0.00    +0.083 C 
ATOM     13  C   UNL     1      33.257  -5.818 -25.126  0.00  0.00    -0.013 C 
ATOM     14  C   UNL     1      33.437  -5.170 -26.478  0.00  0.00    +0.029 C 
BRANCH  11  17
ATOM     15  O   UNL     1      31.938  -3.059 -24.204  0.00  0.00    -0.239 OA
ATOM     16  OXT UNL     1      30.361  -4.545 -24.937  0.00  0.00    -0.239 OA
ATOM     17  C   UNL     1      31.477  -4.201 -24.467  0.00  0.00    +0.401 C 
ENDBRANCH  11  17
ENDBRANCH   2   9
BRANCH   3  18
ATOM     18  CA  UNL     1      30.950 -10.634 -20.547  0.00  0.00    +0.036 C 
BRANCH  18  19
ATOM     19  C   UNL     1      31.744 -11.713 -21.202  0.00  0.00    -0.034 C 
ATOM     20  C   UNL     1      32.061 -12.917 -20.346  0.00  0.00    -0.006 C 
ATOM     21  C   UNL     1      32.152 -11.622 -22.480  0.00  0.00    -0.006 C 
ATOM     22  C   UNL     1      32.951 -12.685 -23.178  0.00  0.00    -0.000 C 
ATOM     23  C   UNL     1      32.858 -13.979 -21.045  0.00  0.00    -0.000 C 
ATOM     24  C   UNL     1      33.259 -13.874 -22.320  0.00  0.00    -0.000 C 
ENDBRANCH  18  19
BRANCH  18  25
ATOM     25  N   UNL     1      30.415 -11.030 -19.211  0.00  0.00    +0.390 N 
ATOM     26  H1  UNL     1      30.941 -10.553 -18.480  0.00  0.00    -0.088 HD
ATOM     27  H2  UNL     1      30.508 -12.039 -19.093  0.00  0.00    -0.088 HD
ATOM     28  H3  UNL     1      29.431 -10.769 -19.148  0.00  0.00    -0.088 HD
ENDBRANCH  18  25
ENDBRANCH   3  18
TORSDOF 5
ENDMDL
MODEL 9
REMARK VINA RESULT:      -7.8      5.406     10.728
REMARK  Name = 40467109
REMARK  5 active torsions:
REMARK  status: ('A' for Active; 'I' for Inactive)
REMARK    1  A    between atoms: N_2  and  CA_9
REMARK    2  A    between atoms: C_3  and  CA_18
REMARK    3  A    between atoms: CA_11  and  C_17
REMARK    4  A    between atoms: CA_18  and  C_19
REMARK    5  A    between atoms: CA_18  and  N_25
REMARK                            x       y       z     vdW  Elec       q    Type
REMARK                         _______ _______ _______ _____ _____    ______ ____
ROOT
ATOM      1  O   UNL     1      30.962  -9.715 -22.570  0.00  0.00    -0.277 OA
ATOM      2  N   UNL     1      32.511 -11.215 -23.428  0.00  0.00    -0.298 N 
ATOM      3  C   UNL     1      32.016  -9.938 -23.166  0.00  0.00    +0.206 C 
ATOM      4  H   UNL     1      33.364 -11.298 -23.913  0.00  0.00    +0.150 HD
ENDROOT
BRANCH   2   9
ATOM      5  S   UNL     1      33.459 -13.686 -24.985  0.00  0.00    -0.114 S 
ATOM      6  O   UNL     1      32.462 -12.743 -20.542  0.00  0.00    -0.273 OA
ATOM      7  N   UNL     1      32.879 -14.089 -22.428  0.00  0.00    -0.242 N 
ATOM      8  C   UNL     1      32.214 -13.772 -23.678  0.00  0.00    +0.155 C 
ATOM      9  CA  UNL     1      31.819 -12.434 -23.013  0.00  0.00    +0.178 C 
ATOM     10  C   UNL     1      32.390 -13.060 -21.706  0.00  0.00    +0.251 C 
ATOM     11  CA  UNL     1      33.709 -15.148 -22.251  0.00  0.00    +0.128 C 
ATOM     12  C   UNL     1      33.974 -15.424 -24.761  0.00  0.00    +0.083 C 
ATOM     13  C   UNL     1      34.208 -15.830 -23.307  0.00  0.00    -0.013 C 
ATOM     14  C   UNL     1      35.072 -17.063 -23.191  0.00  0.00    +0.029 C 
BRANCH  11  17
ATOM     15  O   UNL     1      35.103 -14.850 -20.385  0.00  0.00    -0.239 OA
ATOM     16  OXT UNL     1      33.457 -16.437 -20.304  0.00  0.00    -0.239 OA
ATOM     17  C   UNL     1      34.133 -15.516 -20.834  0.00  0.00    +0.401 C 
ENDBRANCH  11  17
ENDBRANCH   2   9
BRANCH   3  18
ATOM     18  CA  UNL     1      32.908  -8.825 -23.688  0.00  0.00    +0.036 C 
BRANCH  18  19
ATOM     19  C   UNL     1      32.347  -7.522 -23.226  0.00  0.00    -0.034 C 
ATOM     20  C   UNL     1      31.569  -6.734 -24.253  0.00  0.00    -0.006 C 
ATOM     21  C   UNL     1      32.522  -7.077 -21.969  0.00  0.00    -0.006 C 
ATOM     22  C   UNL     1      31.975  -5.773 -21.464  0.00  0.00    -0.000 C 
ATOM     23  C   UNL     1      31.022  -5.432 -23.746  0.00  0.00    -0.000 C 
ATOM     24  C   UNL     1      31.204  -4.999 -22.491  0.00  0.00    -0.000 C 
ENDBRANCH  18  19
BRANCH  18  25
ATOM     25  N   UNL     1      34.297  -9.070 -23.200  0.00  0.00    +0.390 N 
ATOM     26  H1  UNL     1      34.393  -8.704 -22.253  0.00  0.00    -0.088 HD
ATOM     27  H2  UNL     1      34.961  -8.601 -23.815  0.00  0.00    -0.088 HD
ATOM     28  H3  UNL     1      34.484 -10.073 -23.197  0.00  0.00    -0.088 HD
ENDBRANCH  18  25
ENDBRANCH   3  18
TORSDOF 5
ENDMDL
