MODEL 1
REMARK VINA RESULT:      -8.7      0.000      0.000
REMARK  Name = 445005
REMARK  9 active torsions:
REMARK  status: ('A' for Active; 'I' for Inactive)
REMARK    1  A    between atoms: C_2  and  C_10
REMARK    2  A    between atoms: C_3  and  C_21
REMARK    3  A    between atoms: C_4  and  O_8
REMARK    4  A    between atoms: C_10  and  N_11
REMARK    5  A    between atoms: N_11  and  C_17
REMARK    6  A    between atoms: C_21  and  O_22
REMARK    7  A    between atoms: O_22  and  P_23
REMARK    8  A    between atoms: P_23  and  O_25
REMARK    9  A    between atoms: P_23  and  O_27
REMARK                            x       y       z     vdW  Elec       q    Type
REMARK                         _______ _______ _______ _____ _____    ______ ____
ROOT
ATOM      1  N   UNL     1      35.969 -22.547 -17.192  0.00  0.00    -0.245 NA
ATOM      2  C   UNL     1      33.583 -23.364 -16.010  0.00  0.00    -0.009 C 
ATOM      3  C   UNL     1      34.767 -23.446 -15.296  0.00  0.00    +0.024 C 
ATOM      4  C   UNL     1      33.577 -22.879 -17.308  0.00  0.00    +0.141 C 
ATOM      5  C   UNL     1      34.790 -22.485 -17.850  0.00  0.00    +0.092 C 
ATOM      6  C   UNL     1      35.926 -23.027 -15.929  0.00  0.00    +0.096 C 
ATOM      7  C   UNL     1      34.850 -21.954 -19.245  0.00  0.00    +0.055 C 
ENDROOT
BRANCH   4   8
ATOM      8  O   UNL     1      32.426 -22.791 -18.026  0.00  0.00    -0.505 OA
ATOM      9  H   UNL     1      31.863 -22.048 -17.919  0.00  0.00    +0.292 HD
ENDBRANCH   4   8
BRANCH   2  10
ATOM     10  C   UNL     1      32.291 -23.804 -15.375  0.00  0.00    -0.050 C 
BRANCH  10  11
ATOM     11  N   UNL     1      31.433 -22.671 -15.046  0.00  0.00    +0.395 N 
ATOM     12  H   UNL     1      31.755 -22.252 -14.173  0.00  0.00    -0.083 HD
ATOM     13  H   UNL     1      31.482 -21.996 -15.809  0.00  0.00    -0.083 HD
BRANCH  11  17
ATOM     14  O   UNL     1      28.683 -24.971 -14.953  0.00  0.00    -0.268 OA
ATOM     15  O   UNL     1      29.507 -22.389 -17.150  0.00  0.00    -0.275 OA
ATOM     16  N   UNL     1      28.580 -24.296 -16.189  0.00  0.00    -0.195 N 
ATOM     17  C   UNL     1      30.053 -23.085 -14.887  0.00  0.00    +0.052 C 
ATOM     18  C   UNL     1      29.922 -24.516 -14.404  0.00  0.00    +0.159 C 
ATOM     19  C   UNL     1      29.384 -23.175 -16.223  0.00  0.00    +0.227 C 
ATOM     20  H   UNL     1      28.005 -24.588 -16.933  0.00  0.00    +0.182 HD
ENDBRANCH  11  17
ENDBRANCH  10  11
ENDBRANCH   2  10
BRANCH   3  21
ATOM     21  C   UNL     1      34.822 -23.960 -13.899  0.00  0.00    +0.181 C 
BRANCH  21  22
ATOM     22  O   UNL     1      36.179 -24.135 -13.510  0.00  0.00    -0.268 OA
BRANCH  22  23
ATOM     23  P   UNL     1      36.487 -24.927 -12.136  0.00  0.00    +0.473 P 
ATOM     24  O   UNL     1      37.542 -24.308 -11.267  0.00  0.00    -0.227 OA
BRANCH  23  25
ATOM     25  O   UNL     1      36.791 -26.440 -12.622  0.00  0.00    -0.303 OA
ATOM     26  H   UNL     1      35.955 -26.887 -12.827  0.00  0.00    +0.222 HD
ENDBRANCH  23  25
BRANCH  23  27
ATOM     27  O   UNL     1      35.023 -25.043 -11.456  0.00  0.00    -0.303 OA
ATOM     28  H   UNL     1      35.111 -25.405 -10.561  0.00  0.00    +0.222 HD
ENDBRANCH  23  27
ENDBRANCH  22  23
ENDBRANCH  21  22
ENDBRANCH   3  21
TORSDOF 9
ENDMDL
MODEL 2
REMARK VINA RESULT:      -8.6      1.612      2.138
REMARK  Name = 445005
REMARK  9 active torsions:
REMARK  status: ('A' for Active; 'I' for Inactive)
REMARK    1  A    between atoms: C_2  and  C_10
REMARK    2  A    between atoms: C_3  and  C_21
REMARK    3  A    between atoms: C_4  and  O_8
REMARK    4  A    between atoms: C_10  and  N_11
REMARK    5  A    between atoms: N_11  and  C_17
REMARK    6  A    between atoms: C_21  and  O_22
REMARK    7  A    between atoms: O_22  and  P_23
REMARK    8  A    between atoms: P_23  and  O_25
REMARK    9  A    between atoms: P_23  and  O_27
REMARK                            x       y       z     vdW  Elec       q    Type
REMARK                         _______ _______ _______ _____ _____    ______ ____
ROOT
ATOM      1  N   UNL     1      36.807 -21.902 -17.729  0.00  0.00    -0.245 NA
ATOM      2  C   UNL     1      34.853 -23.191 -16.220  0.00  0.00    -0.009 C 
ATOM      3  C   UNL     1      36.146 -23.093 -15.732  0.00  0.00    +0.024 C 
ATOM      4  C   UNL     1      34.526 -22.654 -17.454  0.00  0.00    +0.141 C 
ATOM      5  C   UNL     1      35.533 -22.022 -18.165  0.00  0.00    +0.092 C 
ATOM      6  C   UNL     1      37.080 -22.441 -16.520  0.00  0.00    +0.096 C 
ATOM      7  C   UNL     1      35.244 -21.422 -19.503  0.00  0.00    +0.055 C 
ENDROOT
BRANCH   4   8
ATOM      8  O   UNL     1      33.264 -22.741 -17.952  0.00  0.00    -0.505 OA
ATOM      9  H   UNL     1      33.110 -23.190 -18.761  0.00  0.00    +0.292 HD
ENDBRANCH   4   8
BRANCH   2  10
ATOM     10  C   UNL     1      33.794 -23.888 -15.407  0.00  0.00    -0.050 C 
BRANCH  10  11
ATOM     11  N   UNL     1      32.882 -22.940 -14.776  0.00  0.00    +0.395 N 
ATOM     12  H   UNL     1      33.289 -22.621 -13.897  0.00  0.00    -0.083 HD
ATOM     13  H   UNL     1      32.740 -22.156 -15.413  0.00  0.00    -0.083 HD
BRANCH  11  17
ATOM     14  O   UNL     1      30.497 -25.606 -14.530  0.00  0.00    -0.268 OA
ATOM     15  O   UNL     1      30.732 -22.861 -16.669  0.00  0.00    -0.275 OA
ATOM     16  N   UNL     1      30.176 -24.911 -15.716  0.00  0.00    -0.195 N 
ATOM     17  C   UNL     1      31.595 -23.549 -14.506  0.00  0.00    +0.052 C 
ATOM     18  C   UNL     1      31.711 -25.001 -14.082  0.00  0.00    +0.159 C 
ATOM     19  C   UNL     1      30.812 -23.687 -15.774  0.00  0.00    +0.227 C 
ATOM     20  H   UNL     1      29.575 -25.255 -16.415  0.00  0.00    +0.182 HD
ENDBRANCH  11  17
ENDBRANCH  10  11
ENDBRANCH   2  10
BRANCH   3  21
ATOM     21  C   UNL     1      36.544 -23.655 -14.411  0.00  0.00    +0.181 C 
BRANCH  21  22
ATOM     22  O   UNL     1      37.561 -24.633 -14.597  0.00  0.00    -0.268 OA
BRANCH  22  23
ATOM     23  P   UNL     1      37.134 -26.191 -14.600  0.00  0.00    +0.473 P 
ATOM     24  O   UNL     1      36.168 -26.584 -15.679  0.00  0.00    -0.227 OA
BRANCH  23  25
ATOM     25  O   UNL     1      36.626 -26.454 -13.087  0.00  0.00    -0.303 OA
ATOM     26  H   UNL     1      36.232 -25.642 -12.733  0.00  0.00    +0.222 HD
ENDBRANCH  23  25
BRANCH  23  27
ATOM     27  O   UNL     1      38.560 -26.952 -14.650  0.00  0.00    -0.303 OA
ATOM     28  H   UNL     1      38.494 -27.795 -14.176  0.00  0.00    +0.222 HD
ENDBRANCH  23  27
ENDBRANCH  22  23
ENDBRANCH  21  22
ENDBRANCH   3  21
TORSDOF 9
ENDMDL
MODEL 3
REMARK VINA RESULT:      -8.5      3.025      5.817
REMARK  Name = 445005
REMARK  9 active torsions:
REMARK  status: ('A' for Active; 'I' for Inactive)
REMARK    1  A    between atoms: C_2  and  C_10
REMARK    2  A    between atoms: C_3  and  C_21
REMARK    3  A    between atoms: C_4  and  O_8
REMARK    4  A    between atoms: C_10  and  N_11
REMARK    5  A    between atoms: N_11  and  C_17
REMARK    6  A    between atoms: C_21  and  O_22
REMARK    7  A    between atoms: O_22  and  P_23
REMARK    8  A    between atoms: P_23  and  O_25
REMARK    9  A    between atoms: P_23  and  O_27
REMARK                            x       y       z     vdW  Elec       q    Type
REMARK                         _______ _______ _______ _____ _____    ______ ____
ROOT
ATOM      1  N   UNL     1      33.355 -22.700 -18.442  0.00  0.00    -0.245 NA
ATOM      2  C   UNL     1      35.283 -22.784 -16.433  0.00  0.00    -0.009 C 
ATOM      3  C   UNL     1      34.022 -23.310 -16.199  0.00  0.00    +0.024 C 
ATOM      4  C   UNL     1      35.591 -22.216 -17.658  0.00  0.00    +0.141 C 
ATOM      5  C   UNL     1      34.597 -22.199 -18.624  0.00  0.00    +0.092 C 
ATOM      6  C   UNL     1      33.099 -23.244 -17.231  0.00  0.00    +0.096 C 
ATOM      7  C   UNL     1      34.867 -21.600 -19.966  0.00  0.00    +0.055 C 
ENDROOT
BRANCH   4   8
ATOM      8  O   UNL     1      36.820 -21.694 -17.908  0.00  0.00    -0.505 OA
ATOM      9  H   UNL     1      37.036 -20.836 -17.597  0.00  0.00    +0.292 HD
ENDBRANCH   4   8
BRANCH   2  10
ATOM     10  C   UNL     1      36.327 -22.828 -15.349  0.00  0.00    -0.050 C 
BRANCH  10  11
ATOM     11  N   UNL     1      37.314 -23.876 -15.587  0.00  0.00    +0.395 N 
ATOM     12  H   UNL     1      37.068 -24.377 -16.442  0.00  0.00    -0.083 HD
ATOM     13  H   UNL     1      38.232 -23.441 -15.676  0.00  0.00    -0.083 HD
BRANCH  11  17
ATOM     14  O   UNL     1      38.757 -26.366 -13.448  0.00  0.00    -0.268 OA
ATOM     15  O   UNL     1      36.160 -26.493 -15.773  0.00  0.00    -0.275 OA
ATOM     16  N   UNL     1      37.878 -27.059 -14.307  0.00  0.00    -0.195 N 
ATOM     17  C   UNL     1      37.357 -24.817 -14.486  0.00  0.00    +0.052 C 
ATOM     18  C   UNL     1      38.759 -25.027 -13.948  0.00  0.00    +0.159 C 
ATOM     19  C   UNL     1      37.030 -26.195 -14.970  0.00  0.00    +0.227 C 
ATOM     20  H   UNL     1      37.870 -28.037 -14.419  0.00  0.00    +0.182 HD
ENDBRANCH  11  17
ENDBRANCH  10  11
ENDBRANCH   2  10
BRANCH   3  21
ATOM     21  C   UNL     1      33.646 -23.930 -14.898  0.00  0.00    +0.181 C 
BRANCH  21  22
ATOM     22  O   UNL     1      32.276 -24.313 -14.934  0.00  0.00    -0.268 OA
BRANCH  22  23
ATOM     23  P   UNL     1      31.276 -23.684 -13.830  0.00  0.00    +0.473 P 
ATOM     24  O   UNL     1      30.136 -22.883 -14.388  0.00  0.00    -0.227 OA
BRANCH  23  25
ATOM     25  O   UNL     1      32.262 -22.881 -12.830  0.00  0.00    -0.303 OA
ATOM     26  H   UNL     1      32.969 -23.473 -12.530  0.00  0.00    +0.222 HD
ENDBRANCH  23  25
BRANCH  23  27
ATOM     27  O   UNL     1      30.842 -24.979 -12.964  0.00  0.00    -0.303 OA
ATOM     28  H   UNL     1      30.519 -25.673 -13.559  0.00  0.00    +0.222 HD
ENDBRANCH  23  27
ENDBRANCH  22  23
ENDBRANCH  21  22
ENDBRANCH   3  21
TORSDOF 9
ENDMDL
MODEL 4
REMARK VINA RESULT:      -8.4      2.207      4.987
REMARK  Name = 445005
REMARK  9 active torsions:
REMARK  status: ('A' for Active; 'I' for Inactive)
REMARK    1  A    between atoms: C_2  and  C_10
REMARK    2  A    between atoms: C_3  and  C_21
REMARK    3  A    between atoms: C_4  and  O_8
REMARK    4  A    between atoms: C_10  and  N_11
REMARK    5  A    between atoms: N_11  and  C_17
REMARK    6  A    between atoms: C_21  and  O_22
REMARK    7  A    between atoms: O_22  and  P_23
REMARK    8  A    between atoms: P_23  and  O_25
REMARK    9  A    between atoms: P_23  and  O_27
REMARK                            x       y       z     vdW  Elec       q    Type
REMARK                         _______ _______ _______ _____ _____    ______ ____
ROOT
ATOM      1  N   UNL     1      31.398 -24.264 -14.324  0.00  0.00    -0.245 NA
ATOM      2  C   UNL     1      33.237 -23.342 -16.201  0.00  0.00    -0.009 C 
ATOM      3  C   UNL     1      33.677 -24.064 -15.105  0.00  0.00    +0.024 C 
ATOM      4  C   UNL     1      31.888 -23.074 -16.371  0.00  0.00    +0.141 C 
ATOM      5  C   UNL     1      31.014 -23.555 -15.409  0.00  0.00    +0.092 C 
ATOM      6  C   UNL     1      32.723 -24.501 -14.200  0.00  0.00    +0.096 C 
ATOM      7  C   UNL     1      29.547 -23.299 -15.534  0.00  0.00    +0.055 C 
ENDROOT
BRANCH   4   8
ATOM      8  O   UNL     1      31.435 -22.366 -17.438  0.00  0.00    -0.505 OA
ATOM      9  H   UNL     1      32.010 -21.777 -17.888  0.00  0.00    +0.292 HD
ENDBRANCH   4   8
BRANCH   2  10
ATOM     10  C   UNL     1      34.228 -22.841 -17.218  0.00  0.00    -0.050 C 
BRANCH  10  11
ATOM     11  N   UNL     1      33.825 -23.176 -18.581  0.00  0.00    +0.395 N 
ATOM     12  H   UNL     1      34.025 -24.161 -18.754  0.00  0.00    -0.083 HD
ATOM     13  H   UNL     1      32.827 -22.988 -18.677  0.00  0.00    -0.083 HD
BRANCH  11  17
ATOM     14  O   UNL     1      35.986 -20.551 -19.720  0.00  0.00    -0.268 OA
ATOM     15  O   UNL     1      32.551 -21.064 -20.041  0.00  0.00    -0.275 OA
ATOM     16  N   UNL     1      34.671 -20.106 -19.976  0.00  0.00    -0.195 N 
ATOM     17  C   UNL     1      34.539 -22.372 -19.552  0.00  0.00    +0.052 C 
ATOM     18  C   UNL     1      35.812 -21.768 -18.992  0.00  0.00    +0.159 C 
ATOM     19  C   UNL     1      33.759 -21.136 -19.874  0.00  0.00    +0.227 C 
ATOM     20  H   UNL     1      34.435 -19.177 -20.200  0.00  0.00    +0.182 HD
ENDBRANCH  11  17
ENDBRANCH  10  11
ENDBRANCH   2  10
BRANCH   3  21
ATOM     21  C   UNL     1      35.117 -24.377 -14.882  0.00  0.00    +0.181 C 
BRANCH  21  22
ATOM     22  O   UNL     1      35.395 -25.693 -15.345  0.00  0.00    -0.268 OA
BRANCH  22  23
ATOM     23  P   UNL     1      36.860 -26.312 -15.060  0.00  0.00    +0.473 P 
ATOM     24  O   UNL     1      37.041 -26.914 -13.698  0.00  0.00    -0.227 OA
BRANCH  23  25
ATOM     25  O   UNL     1      37.867 -25.100 -15.421  0.00  0.00    -0.303 OA
ATOM     26  H   UNL     1      38.586 -25.073 -14.771  0.00  0.00    +0.222 HD
ENDBRANCH  23  25
BRANCH  23  27
ATOM     27  O   UNL     1      37.058 -27.340 -16.293  0.00  0.00    -0.303 OA
ATOM     28  H   UNL     1      37.398 -28.184 -15.958  0.00  0.00    +0.222 HD
ENDBRANCH  23  27
ENDBRANCH  22  23
ENDBRANCH  21  22
ENDBRANCH   3  21
TORSDOF 9
ENDMDL
MODEL 5
REMARK VINA RESULT:      -8.2      3.178      6.641
REMARK  Name = 445005
REMARK  9 active torsions:
REMARK  status: ('A' for Active; 'I' for Inactive)
REMARK    1  A    between atoms: C_2  and  C_10
REMARK    2  A    between atoms: C_3  and  C_21
REMARK    3  A    between atoms: C_4  and  O_8
REMARK    4  A    between atoms: C_10  and  N_11
REMARK    5  A    between atoms: N_11  and  C_17
REMARK    6  A    between atoms: C_21  and  O_22
REMARK    7  A    between atoms: O_22  and  P_23
REMARK    8  A    between atoms: P_23  and  O_25
REMARK    9  A    between atoms: P_23  and  O_27
REMARK                            x       y       z     vdW  Elec       q    Type
REMARK                         _______ _______ _______ _____ _____    ______ ____
ROOT
ATOM      1  N   UNL     1      33.049 -23.917 -13.421  0.00  0.00    -0.245 NA
ATOM      2  C   UNL     1      33.415 -23.570 -16.160  0.00  0.00    -0.009 C 
ATOM      3  C   UNL     1      32.157 -23.394 -15.607  0.00  0.00    +0.024 C 
ATOM      4  C   UNL     1      34.491 -23.919 -15.362  0.00  0.00    +0.141 C 
ATOM      5  C   UNL     1      34.258 -24.079 -14.005  0.00  0.00    +0.092 C 
ATOM      6  C   UNL     1      32.028 -23.578 -14.239  0.00  0.00    +0.096 C 
ATOM      7  C   UNL     1      35.377 -24.455 -13.090  0.00  0.00    +0.055 C 
ENDROOT
BRANCH   4   8
ATOM      8  O   UNL     1      35.733 -24.098 -15.885  0.00  0.00    -0.505 OA
ATOM      9  H   UNL     1      35.895 -23.896 -16.786  0.00  0.00    +0.292 HD
ENDBRANCH   4   8
BRANCH   2  10
ATOM     10  C   UNL     1      33.616 -23.384 -17.641  0.00  0.00    -0.050 C 
BRANCH  10  11
ATOM     11  N   UNL     1      34.493 -22.253 -17.932  0.00  0.00    +0.395 N 
ATOM     12  H   UNL     1      34.119 -21.418 -17.481  0.00  0.00    -0.083 HD
ATOM     13  H   UNL     1      35.425 -22.468 -17.577  0.00  0.00    -0.083 HD
BRANCH  11  17
ATOM     14  O   UNL     1      35.585 -20.602 -20.922  0.00  0.00    -0.268 OA
ATOM     15  O   UNL     1      32.465 -20.838 -19.380  0.00  0.00    -0.275 OA
ATOM     16  N   UNL     1      34.258 -20.171 -20.706  0.00  0.00    -0.195 N 
ATOM     17  C   UNL     1      34.588 -22.017 -19.358  0.00  0.00    +0.052 C 
ATOM     18  C   UNL     1      35.901 -21.371 -19.759  0.00  0.00    +0.159 C 
ATOM     19  C   UNL     1      33.615 -20.959 -19.773  0.00  0.00    +0.227 C 
ATOM     20  H   UNL     1      33.843 -19.405 -21.164  0.00  0.00    +0.182 HD
ENDBRANCH  11  17
ENDBRANCH  10  11
ENDBRANCH   2  10
BRANCH   3  21
ATOM     21  C   UNL     1      30.971 -23.019 -16.426  0.00  0.00    +0.181 C 
BRANCH  21  22
ATOM     22  O   UNL     1      29.886 -23.887 -16.116  0.00  0.00    -0.268 OA
BRANCH  22  23
ATOM     23  P   UNL     1      28.401 -23.455 -16.586  0.00  0.00    +0.473 P 
ATOM     24  O   UNL     1      27.754 -24.378 -17.575  0.00  0.00    -0.227 OA
BRANCH  23  25
ATOM     25  O   UNL     1      28.584 -21.926 -17.081  0.00  0.00    -0.303 OA
ATOM     26  H   UNL     1      29.347 -21.529 -16.633  0.00  0.00    +0.222 HD
ENDBRANCH  23  25
BRANCH  23  27
ATOM     27  O   UNL     1      27.615 -23.299 -15.181  0.00  0.00    -0.303 OA
ATOM     28  H   UNL     1      26.660 -23.366 -15.337  0.00  0.00    +0.222 HD
ENDBRANCH  23  27
ENDBRANCH  22  23
ENDBRANCH  21  22
ENDBRANCH   3  21
TORSDOF 9
ENDMDL
MODEL 6
REMARK VINA RESULT:      -8.2      2.894      6.330
REMARK  Name = 445005
REMARK  9 active torsions:
REMARK  status: ('A' for Active; 'I' for Inactive)
REMARK    1  A    between atoms: C_2  and  C_10
REMARK    2  A    between atoms: C_3  and  C_21
REMARK    3  A    between atoms: C_4  and  O_8
REMARK    4  A    between atoms: C_10  and  N_11
REMARK    5  A    between atoms: N_11  and  C_17
REMARK    6  A    between atoms: C_21  and  O_22
REMARK    7  A    between atoms: O_22  and  P_23
REMARK    8  A    between atoms: P_23  and  O_25
REMARK    9  A    between atoms: P_23  and  O_27
REMARK                            x       y       z     vdW  Elec       q    Type
REMARK                         _______ _______ _______ _____ _____    ______ ____
ROOT
ATOM      1  N   UNL     1      33.892 -22.014 -18.722  0.00  0.00    -0.245 NA
ATOM      2  C   UNL     1      34.110 -23.296 -16.259  0.00  0.00    -0.009 C 
ATOM      3  C   UNL     1      32.860 -23.101 -16.825  0.00  0.00    +0.024 C 
ATOM      4  C   UNL     1      35.251 -22.856 -16.909  0.00  0.00    +0.141 C 
ATOM      5  C   UNL     1      35.089 -22.225 -18.132  0.00  0.00    +0.092 C 
ATOM      6  C   UNL     1      32.806 -22.459 -18.052  0.00  0.00    +0.096 C 
ATOM      7  C   UNL     1      36.282 -21.727 -18.882  0.00  0.00    +0.055 C 
ENDROOT
BRANCH   4   8
ATOM      8  O   UNL     1      36.486 -23.035 -16.371  0.00  0.00    -0.505 OA
ATOM      9  H   UNL     1      37.084 -23.642 -16.763  0.00  0.00    +0.292 HD
ENDBRANCH   4   8
BRANCH   2  10
ATOM     10  C   UNL     1      34.231 -23.988 -14.928  0.00  0.00    -0.050 C 
BRANCH  10  11
ATOM     11  N   UNL     1      34.972 -23.182 -13.962  0.00  0.00    +0.395 N 
ATOM     12  H   UNL     1      35.578 -22.534 -14.465  0.00  0.00    -0.083 HD
ATOM     13  H   UNL     1      34.302 -22.674 -13.384  0.00  0.00    -0.083 HD
BRANCH  11  17
ATOM     14  O   UNL     1      36.517 -24.205 -10.892  0.00  0.00    -0.268 OA
ATOM     15  O   UNL     1      37.827 -22.950 -13.871  0.00  0.00    -0.275 OA
ATOM     16  N   UNL     1      37.538 -23.599 -11.654  0.00  0.00    -0.195 N 
ATOM     17  C   UNL     1      35.785 -24.014 -13.098  0.00  0.00    +0.052 C 
ATOM     18  C   UNL     1      35.327 -23.981 -11.652  0.00  0.00    +0.159 C 
ATOM     19  C   UNL     1      37.161 -23.439 -12.972  0.00  0.00    +0.227 C 
ATOM     20  H   UNL     1      38.411 -23.325 -11.291  0.00  0.00    +0.182 HD
ENDBRANCH  11  17
ENDBRANCH  10  11
ENDBRANCH   2  10
BRANCH   3  21
ATOM     21  C   UNL     1      31.605 -23.557 -16.164  0.00  0.00    +0.181 C 
BRANCH  21  22
ATOM     22  O   UNL     1      30.500 -22.835 -16.694  0.00  0.00    -0.268 OA
BRANCH  22  23
ATOM     23  P   UNL     1      29.009 -23.307 -16.284  0.00  0.00    +0.473 P 
ATOM     24  O   UNL     1      28.943 -24.559 -15.461  0.00  0.00    -0.227 OA
BRANCH  23  25
ATOM     25  O   UNL     1      28.222 -23.363 -17.696  0.00  0.00    -0.303 OA
ATOM     26  H   UNL     1      28.283 -24.258 -18.065  0.00  0.00    +0.222 HD
ENDBRANCH  23  25
BRANCH  23  27
ATOM     27  O   UNL     1      28.401 -21.988 -15.572  0.00  0.00    -0.303 OA
ATOM     28  H   UNL     1      28.473 -21.233 -16.176  0.00  0.00    +0.222 HD
ENDBRANCH  23  27
ENDBRANCH  22  23
ENDBRANCH  21  22
ENDBRANCH   3  21
TORSDOF 9
ENDMDL
MODEL 7
REMARK VINA RESULT:      -8.1      3.147      4.886
REMARK  Name = 445005
REMARK  9 active torsions:
REMARK  status: ('A' for Active; 'I' for Inactive)
REMARK    1  A    between atoms: C_2  and  C_10
REMARK    2  A    between atoms: C_3  and  C_21
REMARK    3  A    between atoms: C_4  and  O_8
REMARK    4  A    between atoms: C_10  and  N_11
REMARK    5  A    between atoms: N_11  and  C_17
REMARK    6  A    between atoms: C_21  and  O_22
REMARK    7  A    between atoms: O_22  and  P_23
REMARK    8  A    between atoms: P_23  and  O_25
REMARK    9  A    between atoms: P_23  and  O_27
REMARK                            x       y       z     vdW  Elec       q    Type
REMARK                         _______ _______ _______ _____ _____    ______ ____
ROOT
ATOM      1  N   UNL     1      37.350 -24.269 -11.205  0.00  0.00    -0.245 NA
ATOM      2  C   UNL     1      36.086 -24.375 -13.684  0.00  0.00    -0.009 C 
ATOM      3  C   UNL     1      37.463 -24.247 -13.620  0.00  0.00    +0.024 C 
ATOM      4  C   UNL     1      35.332 -24.450 -12.524  0.00  0.00    +0.141 C 
ATOM      5  C   UNL     1      36.009 -24.393 -11.316  0.00  0.00    +0.092 C 
ATOM      6  C   UNL     1      38.044 -24.199 -12.363  0.00  0.00    +0.096 C 
ATOM      7  C   UNL     1      35.253 -24.468 -10.029  0.00  0.00    +0.055 C 
ENDROOT
BRANCH   4   8
ATOM      8  O   UNL     1      33.979 -24.575 -12.565  0.00  0.00    -0.505 OA
ATOM      9  H   UNL     1      33.466 -23.953 -13.044  0.00  0.00    +0.292 HD
ENDBRANCH   4   8
BRANCH   2  10
ATOM     10  C   UNL     1      35.398 -24.433 -15.022  0.00  0.00    -0.050 C 
BRANCH  10  11
ATOM     11  N   UNL     1      34.473 -23.320 -15.206  0.00  0.00    +0.395 N 
ATOM     12  H   UNL     1      34.146 -23.005 -14.293  0.00  0.00    -0.083 HD
ATOM     13  H   UNL     1      34.964 -22.569 -15.692  0.00  0.00    -0.083 HD
BRANCH  11  17
ATOM     14  O   UNL     1      31.878 -22.917 -17.648  0.00  0.00    -0.268 OA
ATOM     15  O   UNL     1      31.799 -23.258 -14.178  0.00  0.00    -0.275 OA
ATOM     16  N   UNL     1      31.246 -22.797 -16.391  0.00  0.00    -0.195 N 
ATOM     17  C   UNL     1      33.331 -23.713 -16.007  0.00  0.00    +0.052 C 
ATOM     18  C   UNL     1      33.271 -22.991 -17.339  0.00  0.00    +0.159 C 
ATOM     19  C   UNL     1      32.064 -23.235 -15.369  0.00  0.00    +0.227 C 
ATOM     20  H   UNL     1      30.337 -22.444 -16.260  0.00  0.00    +0.182 HD
ENDBRANCH  11  17
ENDBRANCH  10  11
ENDBRANCH   2  10
BRANCH   3  21
ATOM     21  C   UNL     1      38.314 -24.164 -14.840  0.00  0.00    +0.181 C 
BRANCH  21  22
ATOM     22  O   UNL     1      39.656 -24.504 -14.507  0.00  0.00    -0.268 OA
BRANCH  22  23
ATOM     23  P   UNL     1      40.168 -26.003 -14.828  0.00  0.00    +0.473 P 
ATOM     24  O   UNL     1      41.281 -26.495 -13.951  0.00  0.00    -0.227 OA
BRANCH  23  25
ATOM     25  O   UNL     1      40.498 -25.967 -16.411  0.00  0.00    -0.303 OA
ATOM     26  H   UNL     1      39.686 -26.137 -16.914  0.00  0.00    +0.222 HD
ENDBRANCH  23  25
BRANCH  23  27
ATOM     27  O   UNL     1      38.804 -26.869 -14.752  0.00  0.00    -0.303 OA
ATOM     28  H   UNL     1      38.747 -27.307 -13.889  0.00  0.00    +0.222 HD
ENDBRANCH  23  27
ENDBRANCH  22  23
ENDBRANCH  21  22
ENDBRANCH   3  21
TORSDOF 9
ENDMDL
MODEL 8
REMARK VINA RESULT:      -8.1      3.000      5.801
REMARK  Name = 445005
REMARK  9 active torsions:
REMARK  status: ('A' for Active; 'I' for Inactive)
REMARK    1  A    between atoms: C_2  and  C_10
REMARK    2  A    between atoms: C_3  and  C_21
REMARK    3  A    between atoms: C_4  and  O_8
REMARK    4  A    between atoms: C_10  and  N_11
REMARK    5  A    between atoms: N_11  and  C_17
REMARK    6  A    between atoms: C_21  and  O_22
REMARK    7  A    between atoms: O_22  and  P_23
REMARK    8  A    between atoms: P_23  and  O_25
REMARK    9  A    between atoms: P_23  and  O_27
REMARK                            x       y       z     vdW  Elec       q    Type
REMARK                         _______ _______ _______ _____ _____    ______ ____
ROOT
ATOM      1  N   UNL     1      34.644 -22.586 -18.366  0.00  0.00    -0.245 NA
ATOM      2  C   UNL     1      35.692 -22.739 -15.790  0.00  0.00    -0.009 C 
ATOM      3  C   UNL     1      34.497 -23.374 -16.085  0.00  0.00    +0.024 C 
ATOM      4  C   UNL     1      36.369 -22.028 -16.767  0.00  0.00    +0.141 C 
ATOM      5  C   UNL     1      35.807 -21.983 -18.033  0.00  0.00    +0.092 C 
ATOM      6  C   UNL     1      34.018 -23.268 -17.381  0.00  0.00    +0.096 C 
ATOM      7  C   UNL     1      36.488 -21.232 -19.130  0.00  0.00    +0.055 C 
ENDROOT
BRANCH   4   8
ATOM      8  O   UNL     1      37.543 -21.397 -16.499  0.00  0.00    -0.505 OA
ATOM      9  H   UNL     1      38.161 -21.245 -17.188  0.00  0.00    +0.292 HD
ENDBRANCH   4   8
BRANCH   2  10
ATOM     10  C   UNL     1      36.262 -22.820 -14.399  0.00  0.00    -0.050 C 
BRANCH  10  11
ATOM     11  N   UNL     1      37.474 -23.631 -14.354  0.00  0.00    +0.395 N 
ATOM     12  H   UNL     1      37.459 -24.294 -15.129  0.00  0.00    -0.083 HD
ATOM     13  H   UNL     1      38.281 -23.010 -14.426  0.00  0.00    -0.083 HD
BRANCH  11  17
ATOM     14  O   UNL     1      36.273 -25.155 -11.338  0.00  0.00    -0.268 OA
ATOM     15  O   UNL     1      38.309 -22.381 -11.913  0.00  0.00    -0.275 OA
ATOM     16  N   UNL     1      36.886 -23.947 -10.942  0.00  0.00    -0.195 N 
ATOM     17  C   UNL     1      37.570 -24.363 -13.107  0.00  0.00    +0.052 C 
ATOM     18  C   UNL     1      36.295 -25.111 -12.767  0.00  0.00    +0.159 C 
ATOM     19  C   UNL     1      37.656 -23.413 -11.955  0.00  0.00    +0.227 C 
ATOM     20  H   UNL     1      36.776 -23.536 -10.054  0.00  0.00    +0.182 HD
ENDBRANCH  11  17
ENDBRANCH  10  11
ENDBRANCH   2  10
BRANCH   3  21
ATOM     21  C   UNL     1      33.733 -24.150 -15.067  0.00  0.00    +0.181 C 
BRANCH  21  22
ATOM     22  O   UNL     1      32.353 -23.818 -15.154  0.00  0.00    -0.268 OA
BRANCH  22  23
ATOM     23  P   UNL     1      31.444 -23.966 -13.825  0.00  0.00    +0.473 P 
ATOM     24  O   UNL     1      29.964 -23.898 -14.056  0.00  0.00    -0.227 OA
BRANCH  23  25
ATOM     25  O   UNL     1      32.041 -22.844 -12.824  0.00  0.00    -0.303 OA
ATOM     26  H   UNL     1      31.329 -22.246 -12.548  0.00  0.00    +0.222 HD
ENDBRANCH  23  25
BRANCH  23  27
ATOM     27  O   UNL     1      31.973 -25.354 -13.185  0.00  0.00    -0.303 OA
ATOM     28  H   UNL     1      31.261 -26.012 -13.208  0.00  0.00    +0.222 HD
ENDBRANCH  23  27
ENDBRANCH  22  23
ENDBRANCH  21  22
ENDBRANCH   3  21
TORSDOF 9
ENDMDL
MODEL 9
REMARK VINA RESULT:      -8.1      3.126      6.057
REMARK  Name = 445005
REMARK  9 active torsions:
REMARK  status: ('A' for Active; 'I' for Inactive)
REMARK    1  A    between atoms: C_2  and  C_10
REMARK    2  A    between atoms: C_3  and  C_21
REMARK    3  A    between atoms: C_4  and  O_8
REMARK    4  A    between atoms: C_10  and  N_11
REMARK    5  A    between atoms: N_11  and  C_17
REMARK    6  A    between atoms: C_21  and  O_22
REMARK    7  A    between atoms: O_22  and  P_23
REMARK    8  A    between atoms: P_23  and  O_25
REMARK    9  A    between atoms: P_23  and  O_27
REMARK                            x       y       z     vdW  Elec       q    Type
REMARK                         _______ _______ _______ _____ _____    ______ ____
ROOT
ATOM      1  N   UNL     1      34.612 -21.804 -19.539  0.00  0.00    -0.245 NA
ATOM      2  C   UNL     1      35.099 -22.661 -16.935  0.00  0.00    -0.009 C 
ATOM      3  C   UNL     1      33.849 -22.852 -17.498  0.00  0.00    +0.024 C 
ATOM      4  C   UNL     1      36.109 -22.046 -17.657  0.00  0.00    +0.141 C 
ATOM      5  C   UNL     1      35.816 -21.639 -18.948  0.00  0.00    +0.092 C 
ATOM      6  C   UNL     1      33.657 -22.409 -18.797  0.00  0.00    +0.096 C 
ATOM      7  C   UNL     1      36.862 -20.969 -19.779  0.00  0.00    +0.055 C 
ENDROOT
BRANCH   4   8
ATOM      8  O   UNL     1      37.343 -21.848 -17.122  0.00  0.00    -0.505 OA
ATOM      9  H   UNL     1      37.548 -21.031 -16.709  0.00  0.00    +0.292 HD
ENDBRANCH   4   8
BRANCH   2  10
ATOM     10  C   UNL     1      35.367 -23.122 -15.526  0.00  0.00    -0.050 C 
BRANCH  10  11
ATOM     11  N   UNL     1      36.377 -24.175 -15.482  0.00  0.00    +0.395 N 
ATOM     12  H   UNL     1      36.443 -24.611 -16.402  0.00  0.00    -0.083 HD
ATOM     13  H   UNL     1      37.268 -23.756 -15.216  0.00  0.00    -0.083 HD
BRANCH  11  17
ATOM     14  O   UNL     1      36.866 -26.260 -12.606  0.00  0.00    -0.268 OA
ATOM     15  O   UNL     1      36.688 -26.973 -16.016  0.00  0.00    -0.275 OA
ATOM     16  N   UNL     1      37.091 -27.089 -13.726  0.00  0.00    -0.195 N 
ATOM     17  C   UNL     1      36.036 -25.188 -14.504  0.00  0.00    +0.052 C 
ATOM     18  C   UNL     1      36.700 -24.953 -13.161  0.00  0.00    +0.159 C 
ATOM     19  C   UNL     1      36.638 -26.503 -14.890  0.00  0.00    +0.227 C 
ATOM     20  H   UNL     1      37.517 -27.975 -13.682  0.00  0.00    +0.182 HD
ENDBRANCH  11  17
ENDBRANCH  10  11
ENDBRANCH   2  10
BRANCH   3  21
ATOM     21  C   UNL     1      32.733 -23.508 -16.761  0.00  0.00    +0.181 C 
BRANCH  21  22
ATOM     22  O   UNL     1      31.500 -22.898 -17.123  0.00  0.00    -0.268 OA
BRANCH  22  23
ATOM     23  P   UNL     1      30.244 -23.051 -16.117  0.00  0.00    +0.473 P 
ATOM     24  O   UNL     1      30.461 -22.493 -14.741  0.00  0.00    -0.227 OA
BRANCH  23  25
ATOM     25  O   UNL     1      29.892 -24.628 -16.177  0.00  0.00    -0.303 OA
ATOM     26  H   UNL     1      29.824 -24.910 -17.102  0.00  0.00    +0.222 HD
ENDBRANCH  23  25
BRANCH  23  27
ATOM     27  O   UNL     1      29.036 -22.368 -16.949  0.00  0.00    -0.303 OA
ATOM     28  H   UNL     1      28.517 -23.059 -17.389  0.00  0.00    +0.222 HD
ENDBRANCH  23  27
ENDBRANCH  22  23
ENDBRANCH  21  22
ENDBRANCH   3  21
TORSDOF 9
ENDMDL
