MODEL 1
REMARK VINA RESULT:      -7.9      0.000      0.000
REMARK  Name = 447534
REMARK  5 active torsions:
REMARK  status: ('A' for Active; 'I' for Inactive)
REMARK    1  A    between atoms: N_2  and  C_6
REMARK    2  A    between atoms: C_3  and  P_13
REMARK    3  A    between atoms: C_5  and  C_11
REMARK    4  A    between atoms: P_13  and  O_15
REMARK    5  A    between atoms: P_13  and  O_17
REMARK                            x       y       z     vdW  Elec       q    Type
REMARK                         _______ _______ _______ _____ _____    ______ ____
ROOT
ATOM      1  O   UNL     1      34.967 -16.397 -20.387  0.00  0.00    -0.262 OA
ATOM      2  N   UNL     1      34.261 -18.100 -21.857  0.00  0.00    -0.274 N 
ATOM      3  C   UNL     1      34.616 -16.809 -21.481  0.00  0.00    +0.329 C 
ATOM      4  H   UNL     1      34.007 -18.220 -22.800  0.00  0.00    +0.155 HD
ENDROOT
BRANCH   2   6
ATOM      5  C   UNL     1      34.144 -21.540 -19.476  0.00  0.00    -0.022 C 
ATOM      6  C   UNL     1      34.223 -19.247 -21.064  0.00  0.00    +0.051 C 
ATOM      7  C   UNL     1      32.959 -20.890 -19.820  0.00  0.00    -0.003 C 
ATOM      8  C   UNL     1      35.369 -21.045 -19.926  0.00  0.00    -0.003 C 
ATOM      9  C   UNL     1      32.999 -19.744 -20.614  0.00  0.00    +0.014 C 
ATOM     10  C   UNL     1      35.408 -19.898 -20.719  0.00  0.00    +0.014 C 
BRANCH   5  11
ATOM     11  C   UNL     1      34.103 -22.766 -18.628  0.00  0.00    +0.026 C 
ATOM     12  C   UNL     1      32.895 -22.787 -17.695  0.00  0.00    +0.005 C 
ENDBRANCH   5  11
ENDBRANCH   2   6
BRANCH   3  13
ATOM     13  P   UNL     1      34.539 -15.575 -22.780  0.00  0.00    +0.412 P 
ATOM     14  O   UNL     1      33.186 -15.466 -23.426  0.00  0.00    -0.249 OA
BRANCH  13  15
ATOM     15  O   UNL     1      35.727 -15.929 -23.824  0.00  0.00    -0.318 OA
ATOM     16  H   UNL     1      36.052 -15.112 -24.232  0.00  0.00    +0.220 HD
ENDBRANCH  13  15
BRANCH  13  17
ATOM     17  O   UNL     1      35.062 -14.179 -22.143  0.00  0.00    -0.318 OA
ATOM     18  H   UNL     1      35.750 -14.362 -21.485  0.00  0.00    +0.220 HD
ENDBRANCH  13  17
ENDBRANCH   3  13
TORSDOF 5
ENDMDL
MODEL 2
REMARK VINA RESULT:      -7.9      0.024      1.248
REMARK  Name = 447534
REMARK  5 active torsions:
REMARK  status: ('A' for Active; 'I' for Inactive)
REMARK    1  A    between atoms: N_2  and  C_6
REMARK    2  A    between atoms: C_3  and  P_13
REMARK    3  A    between atoms: C_5  and  C_11
REMARK    4  A    between atoms: P_13  and  O_15
REMARK    5  A    between atoms: P_13  and  O_17
REMARK                            x       y       z     vdW  Elec       q    Type
REMARK                         _______ _______ _______ _____ _____    ______ ____
ROOT
ATOM      1  O   UNL     1      34.959 -16.394 -20.375  0.00  0.00    -0.262 OA
ATOM      2  N   UNL     1      34.265 -18.095 -21.854  0.00  0.00    -0.274 N 
ATOM      3  C   UNL     1      34.612 -16.804 -21.472  0.00  0.00    +0.329 C 
ATOM      4  H   UNL     1      34.013 -18.212 -22.798  0.00  0.00    +0.155 HD
ENDROOT
BRANCH   2   6
ATOM      5  C   UNL     1      34.165 -21.548 -19.492  0.00  0.00    -0.022 C 
ATOM      6  C   UNL     1      34.231 -19.246 -21.066  0.00  0.00    +0.051 C 
ATOM      7  C   UNL     1      35.387 -21.036 -19.926  0.00  0.00    -0.003 C 
ATOM      8  C   UNL     1      32.975 -20.910 -19.844  0.00  0.00    -0.003 C 
ATOM      9  C   UNL     1      35.420 -19.885 -20.713  0.00  0.00    +0.014 C 
ATOM     10  C   UNL     1      33.009 -19.759 -20.632  0.00  0.00    +0.014 C 
BRANCH   5  11
ATOM     11  C   UNL     1      34.129 -22.779 -18.649  0.00  0.00    +0.026 C 
ATOM     12  C   UNL     1      32.927 -22.805 -17.709  0.00  0.00    +0.005 C 
ENDBRANCH   5  11
ENDBRANCH   2   6
BRANCH   3  13
ATOM     13  P   UNL     1      34.529 -15.564 -22.765  0.00  0.00    +0.412 P 
ATOM     14  O   UNL     1      33.176 -15.456 -23.410  0.00  0.00    -0.249 OA
BRANCH  13  15
ATOM     15  O   UNL     1      35.717 -15.911 -23.812  0.00  0.00    -0.318 OA
ATOM     16  H   UNL     1      35.334 -16.133 -24.675  0.00  0.00    +0.220 HD
ENDBRANCH  13  15
BRANCH  13  17
ATOM     17  O   UNL     1      35.050 -14.170 -22.123  0.00  0.00    -0.318 OA
ATOM     18  H   UNL     1      35.981 -14.260 -21.866  0.00  0.00    +0.220 HD
ENDBRANCH  13  17
ENDBRANCH   3  13
TORSDOF 5
ENDMDL
MODEL 3
REMARK VINA RESULT:      -7.6      8.196      9.713
REMARK  Name = 447534
REMARK  5 active torsions:
REMARK  status: ('A' for Active; 'I' for Inactive)
REMARK    1  A    between atoms: N_2  and  C_6
REMARK    2  A    between atoms: C_3  and  P_13
REMARK    3  A    between atoms: C_5  and  C_11
REMARK    4  A    between atoms: P_13  and  O_15
REMARK    5  A    between atoms: P_13  and  O_17
REMARK                            x       y       z     vdW  Elec       q    Type
REMARK                         _______ _______ _______ _____ _____    ______ ____
ROOT
ATOM      1  O   UNL     1      37.300 -25.391 -14.573  0.00  0.00    -0.262 OA
ATOM      2  N   UNL     1      35.950 -23.469 -14.358  0.00  0.00    -0.274 N 
ATOM      3  C   UNL     1      36.630 -24.603 -13.925  0.00  0.00    +0.329 C 
ATOM      4  H   UNL     1      35.465 -22.968 -13.664  0.00  0.00    +0.155 HD
ENDROOT
BRANCH   2   6
ATOM      5  C   UNL     1      35.716 -21.924 -18.239  0.00  0.00    -0.022 C 
ATOM      6  C   UNL     1      35.872 -22.955 -15.652  0.00  0.00    +0.051 C 
ATOM      7  C   UNL     1      36.874 -21.739 -17.484  0.00  0.00    -0.003 C 
ATOM      8  C   UNL     1      34.635 -22.624 -17.701  0.00  0.00    -0.003 C 
ATOM      9  C   UNL     1      36.951 -22.254 -16.191  0.00  0.00    +0.014 C 
ATOM     10  C   UNL     1      34.714 -23.139 -16.407  0.00  0.00    +0.014 C 
BRANCH   5  11
ATOM     11  C   UNL     1      35.632 -21.373 -19.623  0.00  0.00    +0.026 C 
ATOM     12  C   UNL     1      34.232 -20.871 -19.965  0.00  0.00    +0.005 C 
ENDBRANCH   5  11
ENDBRANCH   2   6
BRANCH   3  13
ATOM     13  P   UNL     1      36.497 -24.965 -12.174  0.00  0.00    +0.412 P 
ATOM     14  O   UNL     1      37.332 -24.064 -11.308  0.00  0.00    -0.249 OA
BRANCH  13  15
ATOM     15  O   UNL     1      36.851 -26.537 -11.999  0.00  0.00    -0.318 OA
ATOM     16  H   UNL     1      37.302 -26.858 -12.796  0.00  0.00    +0.220 HD
ENDBRANCH  13  15
BRANCH  13  17
ATOM     17  O   UNL     1      34.919 -24.938 -11.799  0.00  0.00    -0.318 OA
ATOM     18  H   UNL     1      34.550 -24.069 -12.020  0.00  0.00    +0.220 HD
ENDBRANCH  13  17
ENDBRANCH   3  13
TORSDOF 5
ENDMDL
MODEL 4
REMARK VINA RESULT:      -7.5      4.289      6.501
REMARK  Name = 447534
REMARK  5 active torsions:
REMARK  status: ('A' for Active; 'I' for Inactive)
REMARK    1  A    between atoms: N_2  and  C_6
REMARK    2  A    between atoms: C_3  and  P_13
REMARK    3  A    between atoms: C_5  and  C_11
REMARK    4  A    between atoms: P_13  and  O_15
REMARK    5  A    between atoms: P_13  and  O_17
REMARK                            x       y       z     vdW  Elec       q    Type
REMARK                         _______ _______ _______ _____ _____    ______ ____
ROOT
ATOM      1  O   UNL     1      32.542 -20.480 -19.868  0.00  0.00    -0.262 OA
ATOM      2  N   UNL     1      34.768 -20.451 -20.647  0.00  0.00    -0.274 N 
ATOM      3  C   UNL     1      33.680 -20.921 -19.919  0.00  0.00    +0.329 C 
ATOM      4  H   UNL     1      35.605 -20.959 -20.546  0.00  0.00    +0.155 HD
ENDROOT
BRANCH   2   6
ATOM      5  C   UNL     1      34.924 -17.149 -23.213  0.00  0.00    -0.022 C 
ATOM      6  C   UNL     1      34.821 -19.351 -21.502  0.00  0.00    +0.051 C 
ATOM      7  C   UNL     1      34.874 -16.957 -21.832  0.00  0.00    -0.003 C 
ATOM      8  C   UNL     1      34.923 -18.441 -23.739  0.00  0.00    -0.003 C 
ATOM      9  C   UNL     1      34.822 -18.058 -20.977  0.00  0.00    +0.014 C 
ATOM     10  C   UNL     1      34.870 -19.542 -22.883  0.00  0.00    +0.014 C 
BRANCH   5  11
ATOM     11  C   UNL     1      34.980 -15.972 -24.127  0.00  0.00    +0.026 C 
ATOM     12  C   UNL     1      33.934 -16.048 -25.236  0.00  0.00    +0.005 C 
ENDBRANCH   5  11
ENDBRANCH   2   6
BRANCH   3  13
ATOM     13  P   UNL     1      33.990 -22.370 -18.910  0.00  0.00    +0.412 P 
ATOM     14  O   UNL     1      35.218 -22.254 -18.051  0.00  0.00    -0.249 OA
BRANCH  13  15
ATOM     15  O   UNL     1      34.026 -23.637 -19.920  0.00  0.00    -0.318 OA
ATOM     16  H   UNL     1      34.939 -23.799 -20.203  0.00  0.00    +0.220 HD
ENDBRANCH  13  15
BRANCH  13  17
ATOM     17  O   UNL     1      32.637 -22.660 -18.063  0.00  0.00    -0.318 OA
ATOM     18  H   UNL     1      31.889 -22.755 -18.673  0.00  0.00    +0.220 HD
ENDBRANCH  13  17
ENDBRANCH   3  13
TORSDOF 5
ENDMDL
MODEL 5
REMARK VINA RESULT:      -7.4      8.461      9.561
REMARK  Name = 447534
REMARK  5 active torsions:
REMARK  status: ('A' for Active; 'I' for Inactive)
REMARK    1  A    between atoms: N_2  and  C_6
REMARK    2  A    between atoms: C_3  and  P_13
REMARK    3  A    between atoms: C_5  and  C_11
REMARK    4  A    between atoms: P_13  and  O_15
REMARK    5  A    between atoms: P_13  and  O_17
REMARK                            x       y       z     vdW  Elec       q    Type
REMARK                         _______ _______ _______ _____ _____    ______ ____
ROOT
ATOM      1  O   UNL     1      36.084 -26.418 -15.701  0.00  0.00    -0.262 OA
ATOM      2  N   UNL     1      35.775 -24.222 -14.897  0.00  0.00    -0.274 N 
ATOM      3  C   UNL     1      36.466 -25.406 -15.133  0.00  0.00    +0.329 C 
ATOM      4  H   UNL     1      36.273 -23.522 -14.417  0.00  0.00    +0.155 HD
ENDROOT
BRANCH   2   6
ATOM      5  C   UNL     1      31.847 -23.268 -15.977  0.00  0.00    -0.022 C 
ATOM      6  C   UNL     1      34.466 -23.903 -15.257  0.00  0.00    +0.051 C 
ATOM      7  C   UNL     1      32.136 -23.652 -14.668  0.00  0.00    -0.003 C 
ATOM      8  C   UNL     1      32.867 -23.201 -16.927  0.00  0.00    -0.003 C 
ATOM      9  C   UNL     1      33.445 -23.969 -14.309  0.00  0.00    +0.014 C 
ATOM     10  C   UNL     1      34.176 -23.520 -16.567  0.00  0.00    +0.014 C 
BRANCH   5  11
ATOM     11  C   UNL     1      30.446 -22.927 -16.362  0.00  0.00    +0.026 C 
ATOM     12  C   UNL     1      29.525 -22.801 -15.152  0.00  0.00    +0.005 C 
ENDBRANCH   5  11
ENDBRANCH   2   6
BRANCH   3  13
ATOM     13  P   UNL     1      38.147 -25.461 -14.511  0.00  0.00    +0.412 P 
ATOM     14  O   UNL     1      38.782 -26.819 -14.612  0.00  0.00    -0.249 OA
BRANCH  13  15
ATOM     15  O   UNL     1      38.098 -24.882 -12.998  0.00  0.00    -0.318 OA
ATOM     16  H   UNL     1      37.809 -25.582 -12.392  0.00  0.00    +0.220 HD
ENDBRANCH  13  15
BRANCH  13  17
ATOM     17  O   UNL     1      38.978 -24.302 -15.282  0.00  0.00    -0.318 OA
ATOM     18  H   UNL     1      38.918 -23.474 -14.781  0.00  0.00    +0.220 HD
ENDBRANCH  13  17
ENDBRANCH   3  13
TORSDOF 5
ENDMDL
MODEL 6
REMARK VINA RESULT:      -7.4      1.578      1.957
REMARK  Name = 447534
REMARK  5 active torsions:
REMARK  status: ('A' for Active; 'I' for Inactive)
REMARK    1  A    between atoms: N_2  and  C_6
REMARK    2  A    between atoms: C_3  and  P_13
REMARK    3  A    between atoms: C_5  and  C_11
REMARK    4  A    between atoms: P_13  and  O_15
REMARK    5  A    between atoms: P_13  and  O_17
REMARK                            x       y       z     vdW  Elec       q    Type
REMARK                         _______ _______ _______ _____ _____    ______ ____
ROOT
ATOM      1  O   UNL     1      34.884 -15.548 -20.732  0.00  0.00    -0.262 OA
ATOM      2  N   UNL     1      34.366 -17.396 -22.104  0.00  0.00    -0.274 N 
ATOM      3  C   UNL     1      34.412 -16.055 -21.738  0.00  0.00    +0.329 C 
ATOM      4  H   UNL     1      33.936 -17.593 -22.967  0.00  0.00    +0.155 HD
ENDROOT
BRANCH   2   6
ATOM      5  C   UNL     1      35.828 -20.698 -19.988  0.00  0.00    -0.022 C 
ATOM      6  C   UNL     1      34.854 -18.497 -21.399  0.00  0.00    +0.051 C 
ATOM      7  C   UNL     1      34.456 -20.554 -20.193  0.00  0.00    -0.003 C 
ATOM      8  C   UNL     1      36.713 -19.742 -20.488  0.00  0.00    -0.003 C 
ATOM      9  C   UNL     1      33.969 -19.453 -20.899  0.00  0.00    +0.014 C 
ATOM     10  C   UNL     1      36.226 -18.641 -21.192  0.00  0.00    +0.014 C 
BRANCH   5  11
ATOM     11  C   UNL     1      36.349 -21.875 -19.234  0.00  0.00    +0.026 C 
ATOM     12  C   UNL     1      36.701 -21.530 -17.790  0.00  0.00    +0.005 C 
ENDBRANCH   5  11
ENDBRANCH   2   6
BRANCH   3  13
ATOM     13  P   UNL     1      33.670 -14.909 -22.900  0.00  0.00    +0.412 P 
ATOM     14  O   UNL     1      33.555 -15.456 -24.295  0.00  0.00    -0.249 OA
BRANCH  13  15
ATOM     15  O   UNL     1      34.532 -13.539 -22.813  0.00  0.00    -0.318 OA
ATOM     16  H   UNL     1      34.295 -12.960 -23.554  0.00  0.00    +0.220 HD
ENDBRANCH  13  15
BRANCH  13  17
ATOM     17  O   UNL     1      32.248 -14.446 -22.272  0.00  0.00    -0.318 OA
ATOM     18  H   UNL     1      32.100 -13.508 -22.465  0.00  0.00    +0.220 HD
ENDBRANCH  13  17
ENDBRANCH   3  13
TORSDOF 5
ENDMDL
MODEL 7
REMARK VINA RESULT:      -7.4      7.918      9.310
REMARK  Name = 447534
REMARK  5 active torsions:
REMARK  status: ('A' for Active; 'I' for Inactive)
REMARK    1  A    between atoms: N_2  and  C_6
REMARK    2  A    between atoms: C_3  and  P_13
REMARK    3  A    between atoms: C_5  and  C_11
REMARK    4  A    between atoms: P_13  and  O_15
REMARK    5  A    between atoms: P_13  and  O_17
REMARK                            x       y       z     vdW  Elec       q    Type
REMARK                         _______ _______ _______ _____ _____    ______ ____
ROOT
ATOM      1  O   UNL     1      38.411 -24.342 -14.634  0.00  0.00    -0.262 OA
ATOM      2  N   UNL     1      36.453 -23.043 -14.426  0.00  0.00    -0.274 N 
ATOM      3  C   UNL     1      37.526 -23.809 -13.982  0.00  0.00    +0.329 C 
ATOM      4  H   UNL     1      35.849 -22.703 -13.727  0.00  0.00    +0.155 HD
ENDROOT
BRANCH   2   6
ATOM      5  C   UNL     1      35.473 -22.007 -18.360  0.00  0.00    -0.022 C 
ATOM      6  C   UNL     1      36.126 -22.697 -15.737  0.00  0.00    +0.051 C 
ATOM      7  C   UNL     1      34.567 -22.729 -17.583  0.00  0.00    -0.003 C 
ATOM      8  C   UNL     1      36.706 -21.630 -17.826  0.00  0.00    -0.003 C 
ATOM      9  C   UNL     1      34.894 -23.074 -16.272  0.00  0.00    +0.014 C 
ATOM     10  C   UNL     1      37.032 -21.976 -16.515  0.00  0.00    +0.014 C 
BRANCH   5  11
ATOM     11  C   UNL     1      35.124 -21.637 -19.762  0.00  0.00    +0.026 C 
ATOM     12  C   UNL     1      33.748 -20.985 -19.866  0.00  0.00    +0.005 C 
ENDBRANCH   5  11
ENDBRANCH   2   6
BRANCH   3  13
ATOM     13  P   UNL     1      37.622 -24.056 -12.209  0.00  0.00    +0.412 P 
ATOM     14  O   UNL     1      37.705 -25.501 -11.807  0.00  0.00    -0.249 OA
BRANCH  13  15
ATOM     15  O   UNL     1      36.354 -23.278 -11.565  0.00  0.00    -0.318 OA
ATOM     16  H   UNL     1      36.662 -22.480 -11.109  0.00  0.00    +0.220 HD
ENDBRANCH  13  15
BRANCH  13  17
ATOM     17  O   UNL     1      38.865 -23.165 -11.670  0.00  0.00    -0.318 OA
ATOM     18  H   UNL     1      39.023 -22.428 -12.280  0.00  0.00    +0.220 HD
ENDBRANCH  13  17
ENDBRANCH   3  13
TORSDOF 5
ENDMDL
MODEL 8
REMARK VINA RESULT:      -7.4      9.409     10.495
REMARK  Name = 447534
REMARK  5 active torsions:
REMARK  status: ('A' for Active; 'I' for Inactive)
REMARK    1  A    between atoms: N_2  and  C_6
REMARK    2  A    between atoms: C_3  and  P_13
REMARK    3  A    between atoms: C_5  and  C_11
REMARK    4  A    between atoms: P_13  and  O_15
REMARK    5  A    between atoms: P_13  and  O_17
REMARK                            x       y       z     vdW  Elec       q    Type
REMARK                         _______ _______ _______ _____ _____    ______ ____
ROOT
ATOM      1  O   UNL     1      34.710 -23.825 -11.637  0.00  0.00    -0.262 OA
ATOM      2  N   UNL     1      34.493 -24.700 -13.816  0.00  0.00    -0.274 N 
ATOM      3  C   UNL     1      35.137 -24.415 -12.616  0.00  0.00    +0.329 C 
ATOM      4  H   UNL     1      35.023 -25.193 -14.483  0.00  0.00    +0.155 HD
ENDROOT
BRANCH   2   6
ATOM      5  C   UNL     1      30.582 -23.723 -14.940  0.00  0.00    -0.022 C 
ATOM      6  C   UNL     1      33.189 -24.375 -14.191  0.00  0.00    +0.051 C 
ATOM      7  C   UNL     1      31.658 -23.017 -15.477  0.00  0.00    -0.003 C 
ATOM      8  C   UNL     1      30.808 -24.754 -14.028  0.00  0.00    -0.003 C 
ATOM      9  C   UNL     1      32.962 -23.343 -15.102  0.00  0.00    +0.014 C 
ATOM     10  C   UNL     1      32.112 -25.079 -13.653  0.00  0.00    +0.014 C 
BRANCH   5  11
ATOM     11  C   UNL     1      29.188 -23.374 -15.341  0.00  0.00    +0.026 C 
ATOM     12  C   UNL     1      28.676 -24.248 -16.483  0.00  0.00    +0.005 C 
ENDBRANCH   5  11
ENDBRANCH   2   6
BRANCH   3  13
ATOM     13  P   UNL     1      36.832 -24.987 -12.492  0.00  0.00    +0.412 P 
ATOM     14  O   UNL     1      37.644 -24.735 -13.731  0.00  0.00    -0.249 OA
BRANCH  13  15
ATOM     15  O   UNL     1      36.762 -26.551 -12.073  0.00  0.00    -0.318 OA
ATOM     16  H   UNL     1      36.820 -26.630 -11.108  0.00  0.00    +0.220 HD
ENDBRANCH  13  15
BRANCH  13  17
ATOM     17  O   UNL     1      37.465 -24.314 -11.159  0.00  0.00    -0.318 OA
ATOM     18  H   UNL     1      37.915 -24.996 -10.637  0.00  0.00    +0.220 HD
ENDBRANCH  13  17
ENDBRANCH   3  13
TORSDOF 5
ENDMDL
MODEL 9
REMARK VINA RESULT:      -7.3      1.552      2.174
REMARK  Name = 447534
REMARK  5 active torsions:
REMARK  status: ('A' for Active; 'I' for Inactive)
REMARK    1  A    between atoms: N_2  and  C_6
REMARK    2  A    between atoms: C_3  and  P_13
REMARK    3  A    between atoms: C_5  and  C_11
REMARK    4  A    between atoms: P_13  and  O_15
REMARK    5  A    between atoms: P_13  and  O_17
REMARK                            x       y       z     vdW  Elec       q    Type
REMARK                         _______ _______ _______ _____ _____    ______ ____
ROOT
ATOM      1  O   UNL     1      33.327 -15.739 -20.592  0.00  0.00    -0.262 OA
ATOM      2  N   UNL     1      34.323 -17.136 -22.209  0.00  0.00    -0.274 N 
ATOM      3  C   UNL     1      33.715 -15.983 -21.723  0.00  0.00    +0.329 C 
ATOM      4  H   UNL     1      34.561 -17.127 -23.164  0.00  0.00    +0.155 HD
ENDROOT
BRANCH   2   6
ATOM      5  C   UNL     1      35.269 -20.636 -20.119  0.00  0.00    -0.022 C 
ATOM      6  C   UNL     1      34.638 -18.303 -21.512  0.00  0.00    +0.051 C 
ATOM      7  C   UNL     1      36.286 -19.775 -20.532  0.00  0.00    -0.003 C 
ATOM      8  C   UNL     1      33.937 -20.331 -20.402  0.00  0.00    -0.003 C 
ATOM      9  C   UNL     1      35.969 -18.608 -21.229  0.00  0.00    +0.014 C 
ATOM     10  C   UNL     1      33.622 -19.165 -21.099  0.00  0.00    +0.014 C 
BRANCH   5  11
ATOM     11  C   UNL     1      35.607 -21.883 -19.373  0.00  0.00    +0.026 C 
ATOM     12  C   UNL     1      36.589 -21.631 -18.233  0.00  0.00    +0.005 C 
ENDBRANCH   5  11
ENDBRANCH   2   6
BRANCH   3  13
ATOM     13  P   UNL     1      33.458 -14.677 -22.924  0.00  0.00    +0.412 P 
ATOM     14  O   UNL     1      32.215 -13.868 -22.676  0.00  0.00    -0.249 OA
BRANCH  13  15
ATOM     15  O   UNL     1      33.489 -15.380 -24.384  0.00  0.00    -0.318 OA
ATOM     16  H   UNL     1      32.609 -15.329 -24.787  0.00  0.00    +0.220 HD
ENDBRANCH  13  15
BRANCH  13  17
ATOM     17  O   UNL     1      34.811 -13.785 -22.957  0.00  0.00    -0.318 OA
ATOM     18  H   UNL     1      34.735 -13.108 -23.646  0.00  0.00    +0.220 HD
ENDBRANCH  13  17
ENDBRANCH   3  13
TORSDOF 5
ENDMDL
