MODEL 1
REMARK VINA RESULT:      -7.7      0.000      0.000
REMARK  Name = 9584748
REMARK  7 active torsions:
REMARK  status: ('A' for Active; 'I' for Inactive)
REMARK    1  A    between atoms: N_1  and  C_7
REMARK    2  A    between atoms: N_1  and  O_18
REMARK    3  A    between atoms: C_2  and  O_8
REMARK    4  A    between atoms: C_2  and  C_15
REMARK    5  A    between atoms: C_4  and  O_10
REMARK    6  A    between atoms: C_6  and  O_12
REMARK    7  A    between atoms: C_15  and  O_16
REMARK                            x       y       z     vdW  Elec       q    Type
REMARK                         _______ _______ _______ _____ _____    ______ ____
ROOT
ATOM      1  C   UNL     1      36.254 -24.610 -12.290  0.00  0.00    +0.181 C 
ATOM      2  C   UNL     1      36.154 -23.750 -13.556  0.00  0.00    +0.070 C 
ATOM      3  C   UNL     1      36.161 -24.614 -14.818  0.00  0.00    +0.142 C 
ATOM      4  C   UNL     1      37.137 -25.857 -12.440  0.00  0.00    +0.060 C 
ATOM      5  C   UNL     1      37.485 -25.364 -14.967  0.00  0.00    +0.156 C 
ATOM      6  C   UNL     1      38.069 -25.731 -13.621  0.00  0.00    +0.135 C 
ENDROOT
BRANCH   1   7
ATOM      7  O   UNL     1      34.935 -25.022 -11.934  0.00  0.00    -0.376 OA
ATOM      8  H   UNL     1      34.289 -24.417 -12.333  0.00  0.00    +0.211 HD
ENDBRANCH   1   7
BRANCH   3   9
ATOM      9  O   UNL     1      35.999 -23.774 -15.959  0.00  0.00    -0.382 OA
ATOM     10  H   UNL     1      36.739 -23.913 -16.571  0.00  0.00    +0.210 HD
ENDBRANCH   3   9
BRANCH   5  11
ATOM     11  O   UNL     1      37.258 -26.565 -15.686  0.00  0.00    -0.380 OA
ATOM     12  H   UNL     1      36.579 -26.414 -16.361  0.00  0.00    +0.211 HD
ENDBRANCH   5  11
BRANCH   1  14
ATOM     13  O   UNL     1      37.488 -22.809 -11.246  0.00  0.00    -0.248 OA
ATOM     14  C   UNL     1      36.715 -23.751 -11.148  0.00  0.00    +0.338 C 
BRANCH  14  15
ATOM     15  O   UNL     1      36.159 -24.164  -9.983  0.00  0.00    -0.479 OA
ATOM     16  H   UNL     1      35.701 -24.981  -9.947  0.00  0.00    +0.295 HD
ENDBRANCH  14  15
ENDBRANCH   1  14
BRANCH   6  17
ATOM     17  N   UNL     1      39.337 -25.962 -13.516  0.00  0.00    -0.086 NA
BRANCH  17  18
ATOM     18  O   UNL     1      39.749 -26.664 -14.649  0.00  0.00    -0.295 OA
ATOM     19  H   UNL     1      39.829 -27.597 -14.620  0.00  0.00    +0.238 HD
ENDBRANCH  17  18
ENDBRANCH   6  17
TORSDOF 7
ENDMDL
MODEL 2
REMARK VINA RESULT:      -7.3      1.682      3.096
REMARK  Name = 9584748
REMARK  7 active torsions:
REMARK  status: ('A' for Active; 'I' for Inactive)
REMARK    1  A    between atoms: N_1  and  C_7
REMARK    2  A    between atoms: N_1  and  O_18
REMARK    3  A    between atoms: C_2  and  O_8
REMARK    4  A    between atoms: C_2  and  C_15
REMARK    5  A    between atoms: C_4  and  O_10
REMARK    6  A    between atoms: C_6  and  O_12
REMARK    7  A    between atoms: C_15  and  O_16
REMARK                            x       y       z     vdW  Elec       q    Type
REMARK                         _______ _______ _______ _____ _____    ______ ____
ROOT
ATOM      1  C   UNL     1      37.089 -23.994 -12.006  0.00  0.00    +0.181 C 
ATOM      2  C   UNL     1      38.023 -25.190 -12.225  0.00  0.00    +0.070 C 
ATOM      3  C   UNL     1      38.933 -24.970 -13.435  0.00  0.00    +0.142 C 
ATOM      4  C   UNL     1      36.606 -23.322 -13.299  0.00  0.00    +0.060 C 
ATOM      5  C   UNL     1      38.122 -24.876 -14.727  0.00  0.00    +0.156 C 
ATOM      6  C   UNL     1      36.772 -24.237 -14.488  0.00  0.00    +0.135 C 
ENDROOT
BRANCH   1   7
ATOM      7  O   UNL     1      37.787 -23.030 -11.220  0.00  0.00    -0.376 OA
ATOM      8  H   UNL     1      38.557 -22.706 -11.715  0.00  0.00    +0.211 HD
ENDBRANCH   1   7
BRANCH   3   9
ATOM      9  O   UNL     1      39.825 -26.078 -13.554  0.00  0.00    -0.382 OA
ATOM     10  H   UNL     1      40.532 -25.995 -12.896  0.00  0.00    +0.210 HD
ENDBRANCH   3   9
BRANCH   5  11
ATOM     11  O   UNL     1      38.826 -24.070 -15.658  0.00  0.00    -0.380 OA
ATOM     12  H   UNL     1      38.803 -24.491 -16.531  0.00  0.00    +0.211 HD
ENDBRANCH   5  11
BRANCH   1  14
ATOM     13  O   UNL     1      35.878 -24.321  -9.936  0.00  0.00    -0.248 OA
ATOM     14  C   UNL     1      35.931 -24.426 -11.153  0.00  0.00    +0.338 C 
BRANCH  14  15
ATOM     15  O   UNL     1      34.944 -24.956 -11.916  0.00  0.00    -0.479 OA
ATOM     16  H   UNL     1      34.102 -24.544 -11.945  0.00  0.00    +0.295 HD
ENDBRANCH  14  15
ENDBRANCH   1  14
BRANCH   6  17
ATOM     17  N   UNL     1      35.805 -24.457 -15.319  0.00  0.00    -0.086 NA
BRANCH  17  18
ATOM     18  O   UNL     1      34.946 -25.399 -14.750  0.00  0.00    -0.295 OA
ATOM     19  H   UNL     1      34.087 -25.522 -15.102  0.00  0.00    +0.238 HD
ENDBRANCH  17  18
ENDBRANCH   6  17
TORSDOF 7
ENDMDL
MODEL 3
REMARK VINA RESULT:      -6.8      1.815      4.140
REMARK  Name = 9584748
REMARK  7 active torsions:
REMARK  status: ('A' for Active; 'I' for Inactive)
REMARK    1  A    between atoms: N_1  and  C_7
REMARK    2  A    between atoms: N_1  and  O_18
REMARK    3  A    between atoms: C_2  and  O_8
REMARK    4  A    between atoms: C_2  and  C_15
REMARK    5  A    between atoms: C_4  and  O_10
REMARK    6  A    between atoms: C_6  and  O_12
REMARK    7  A    between atoms: C_15  and  O_16
REMARK                            x       y       z     vdW  Elec       q    Type
REMARK                         _______ _______ _______ _____ _____    ______ ____
ROOT
ATOM      1  C   UNL     1      36.759 -23.748 -15.049  0.00  0.00    +0.181 C 
ATOM      2  C   UNL     1      37.425 -25.127 -14.994  0.00  0.00    +0.070 C 
ATOM      3  C   UNL     1      36.921 -25.942 -13.801  0.00  0.00    +0.142 C 
ATOM      4  C   UNL     1      36.479 -23.124 -13.674  0.00  0.00    +0.060 C 
ATOM      5  C   UNL     1      37.302 -25.278 -12.478  0.00  0.00    +0.156 C 
ATOM      6  C   UNL     1      37.317 -23.771 -12.598  0.00  0.00    +0.135 C 
ENDROOT
BRANCH   1   7
ATOM      7  O   UNL     1      35.524 -23.884 -15.751  0.00  0.00    -0.376 OA
ATOM      8  H   UNL     1      35.603 -23.473 -16.626  0.00  0.00    +0.211 HD
ENDBRANCH   1   7
BRANCH   3   9
ATOM      9  O   UNL     1      37.519 -27.236 -13.835  0.00  0.00    -0.382 OA
ATOM     10  H   UNL     1      37.684 -27.540 -12.929  0.00  0.00    +0.210 HD
ENDBRANCH   3   9
BRANCH   5  11
ATOM     11  O   UNL     1      36.345 -25.629 -11.492  0.00  0.00    -0.380 OA
ATOM     12  H   UNL     1      35.559 -25.999 -11.922  0.00  0.00    +0.211 HD
ENDBRANCH   5  11
BRANCH   1  14
ATOM     13  O   UNL     1      37.211 -21.771 -16.370  0.00  0.00    -0.248 OA
ATOM     14  C   UNL     1      37.591 -22.834 -15.901  0.00  0.00    +0.338 C 
BRANCH  14  15
ATOM     15  O   UNL     1      38.831 -23.350 -16.088  0.00  0.00    -0.479 OA
ATOM     16  H   UNL     1      38.931 -24.231 -16.390  0.00  0.00    +0.295 HD
ENDBRANCH  14  15
ENDBRANCH   1  14
BRANCH   6  17
ATOM     17  N   UNL     1      38.011 -23.070 -11.762  0.00  0.00    -0.086 NA
BRANCH  17  18
ATOM     18  O   UNL     1      37.233 -22.850 -10.624  0.00  0.00    -0.295 OA
ATOM     19  H   UNL     1      37.194 -23.499  -9.950  0.00  0.00    +0.238 HD
ENDBRANCH  17  18
ENDBRANCH   6  17
TORSDOF 7
ENDMDL
MODEL 4
REMARK VINA RESULT:      -6.6      1.874      4.438
REMARK  Name = 9584748
REMARK  7 active torsions:
REMARK  status: ('A' for Active; 'I' for Inactive)
REMARK    1  A    between atoms: N_1  and  C_7
REMARK    2  A    between atoms: N_1  and  O_18
REMARK    3  A    between atoms: C_2  and  O_8
REMARK    4  A    between atoms: C_2  and  C_15
REMARK    5  A    between atoms: C_4  and  O_10
REMARK    6  A    between atoms: C_6  and  O_12
REMARK    7  A    between atoms: C_15  and  O_16
REMARK                            x       y       z     vdW  Elec       q    Type
REMARK                         _______ _______ _______ _____ _____    ______ ____
ROOT
ATOM      1  C   UNL     1      37.329 -25.839 -13.777  0.00  0.00    +0.181 C 
ATOM      2  C   UNL     1      37.650 -25.150 -12.446  0.00  0.00    +0.070 C 
ATOM      3  C   UNL     1      36.375 -24.687 -11.738  0.00  0.00    +0.142 C 
ATOM      4  C   UNL     1      36.132 -25.240 -14.528  0.00  0.00    +0.060 C 
ATOM      5  C   UNL     1      35.646 -23.621 -12.556  0.00  0.00    +0.156 C 
ATOM      6  C   UNL     1      35.821 -23.845 -14.041  0.00  0.00    +0.135 C 
ENDROOT
BRANCH   1   7
ATOM      7  O   UNL     1      37.060 -27.214 -13.507  0.00  0.00    -0.376 OA
ATOM      8  H   UNL     1      37.866 -27.642 -13.178  0.00  0.00    +0.211 HD
ENDBRANCH   1   7
BRANCH   3   9
ATOM      9  O   UNL     1      36.723 -24.115 -10.478  0.00  0.00    -0.382 OA
ATOM     10  H   UNL     1      35.916 -23.925  -9.975  0.00  0.00    +0.210 HD
ENDBRANCH   3   9
BRANCH   5  11
ATOM     11  O   UNL     1      34.259 -23.683 -12.265  0.00  0.00    -0.380 OA
ATOM     12  H   UNL     1      34.063 -24.512 -11.804  0.00  0.00    +0.211 HD
ENDBRANCH   5  11
BRANCH   1  14
ATOM     13  O   UNL     1      39.370 -26.761 -14.696  0.00  0.00    -0.248 OA
ATOM     14  C   UNL     1      38.561 -25.846 -14.635  0.00  0.00    +0.338 C 
BRANCH  14  15
ATOM     15  O   UNL     1      38.662 -24.691 -15.338  0.00  0.00    -0.479 OA
ATOM     16  H   UNL     1      38.425 -23.877 -14.938  0.00  0.00    +0.295 HD
ENDBRANCH  14  15
ENDBRANCH   1  14
BRANCH   6  17
ATOM     17  N   UNL     1      35.666 -22.856 -14.859  0.00  0.00    -0.086 NA
BRANCH  17  18
ATOM     18  O   UNL     1      34.303 -22.576 -14.955  0.00  0.00    -0.295 OA
ATOM     19  H   UNL     1      33.686 -23.275 -15.053  0.00  0.00    +0.238 HD
ENDBRANCH  17  18
ENDBRANCH   6  17
TORSDOF 7
ENDMDL
MODEL 5
REMARK VINA RESULT:      -6.6      1.410      3.651
REMARK  Name = 9584748
REMARK  7 active torsions:
REMARK  status: ('A' for Active; 'I' for Inactive)
REMARK    1  A    between atoms: N_1  and  C_7
REMARK    2  A    between atoms: N_1  and  O_18
REMARK    3  A    between atoms: C_2  and  O_8
REMARK    4  A    between atoms: C_2  and  C_15
REMARK    5  A    between atoms: C_4  and  O_10
REMARK    6  A    between atoms: C_6  and  O_12
REMARK    7  A    between atoms: C_15  and  O_16
REMARK                            x       y       z     vdW  Elec       q    Type
REMARK                         _______ _______ _______ _____ _____    ______ ____
ROOT
ATOM      1  C   UNL     1      36.001 -24.063 -13.983  0.00  0.00    +0.181 C 
ATOM      2  C   UNL     1      35.770 -24.334 -12.492  0.00  0.00    +0.070 C 
ATOM      3  C   UNL     1      36.838 -23.656 -11.632  0.00  0.00    +0.142 C 
ATOM      4  C   UNL     1      37.479 -23.994 -14.393  0.00  0.00    +0.060 C 
ATOM      5  C   UNL     1      38.224 -24.233 -11.915  0.00  0.00    +0.156 C 
ATOM      6  C   UNL     1      38.366 -24.651 -13.362  0.00  0.00    +0.135 C 
ENDROOT
BRANCH   1   7
ATOM      7  O   UNL     1      35.377 -22.821 -14.307  0.00  0.00    -0.376 OA
ATOM      8  H   UNL     1      35.189 -22.332 -13.490  0.00  0.00    +0.211 HD
ENDBRANCH   1   7
BRANCH   3   9
ATOM      9  O   UNL     1      36.539 -23.882 -10.255  0.00  0.00    -0.382 OA
ATOM     10  H   UNL     1      35.613 -24.154 -10.165  0.00  0.00    +0.210 HD
ENDBRANCH   3   9
BRANCH   5  11
ATOM     11  O   UNL     1      39.202 -23.240 -11.651  0.00  0.00    -0.380 OA
ATOM     12  H   UNL     1      39.560 -22.908 -12.489  0.00  0.00    +0.211 HD
ENDBRANCH   5  11
BRANCH   1  14
ATOM     13  O   UNL     1      35.767 -25.825 -15.626  0.00  0.00    -0.248 OA
ATOM     14  C   UNL     1      35.261 -25.091 -14.789  0.00  0.00    +0.338 C 
BRANCH  14  15
ATOM     15  O   UNL     1      33.945 -25.097 -14.466  0.00  0.00    -0.479 OA
ATOM     16  H   UNL     1      33.357 -24.498 -14.883  0.00  0.00    +0.295 HD
ENDBRANCH  14  15
ENDBRANCH   1  14
BRANCH   6  17
ATOM     17  N   UNL     1      39.257 -25.528 -13.690  0.00  0.00    -0.086 NA
BRANCH  17  18
ATOM     18  O   UNL     1      38.657 -26.471 -14.525  0.00  0.00    -0.295 OA
ATOM     19  H   UNL     1      38.108 -26.192 -15.230  0.00  0.00    +0.238 HD
ENDBRANCH  17  18
ENDBRANCH   6  17
TORSDOF 7
ENDMDL
MODEL 6
REMARK VINA RESULT:      -6.5      1.827      3.701
REMARK  Name = 9584748
REMARK  7 active torsions:
REMARK  status: ('A' for Active; 'I' for Inactive)
REMARK    1  A    between atoms: N_1  and  C_7
REMARK    2  A    between atoms: N_1  and  O_18
REMARK    3  A    between atoms: C_2  and  O_8
REMARK    4  A    between atoms: C_2  and  C_15
REMARK    5  A    between atoms: C_4  and  O_10
REMARK    6  A    between atoms: C_6  and  O_12
REMARK    7  A    between atoms: C_15  and  O_16
REMARK                            x       y       z     vdW  Elec       q    Type
REMARK                         _______ _______ _______ _____ _____    ______ ____
ROOT
ATOM      1  C   UNL     1      35.784 -24.390 -14.552  0.00  0.00    +0.181 C 
ATOM      2  C   UNL     1      37.029 -25.121 -15.067  0.00  0.00    +0.070 C 
ATOM      3  C   UNL     1      37.663 -25.978 -13.970  0.00  0.00    +0.142 C 
ATOM      4  C   UNL     1      35.875 -23.935 -13.089  0.00  0.00    +0.060 C 
ATOM      5  C   UNL     1      38.175 -25.113 -12.819  0.00  0.00    +0.156 C 
ATOM      6  C   UNL     1      37.309 -23.889 -12.617  0.00  0.00    +0.135 C 
ENDROOT
BRANCH   1   7
ATOM      7  O   UNL     1      34.669 -25.270 -14.689  0.00  0.00    -0.376 OA
ATOM      8  H   UNL     1      34.018 -25.077 -13.996  0.00  0.00    +0.211 HD
ENDBRANCH   1   7
BRANCH   3   9
ATOM      9  O   UNL     1      38.774 -26.687 -14.517  0.00  0.00    -0.382 OA
ATOM     10  H   UNL     1      39.556 -26.114 -14.514  0.00  0.00    +0.210 HD
ENDBRANCH   3   9
BRANCH   5  11
ATOM     11  O   UNL     1      38.144 -25.871 -11.620  0.00  0.00    -0.380 OA
ATOM     12  H   UNL     1      37.703 -26.719 -11.785  0.00  0.00    +0.211 HD
ENDBRANCH   5  11
BRANCH   1  14
ATOM     13  O   UNL     1      35.905 -23.110 -16.603  0.00  0.00    -0.248 OA
ATOM     14  C   UNL     1      35.481 -23.235 -15.463  0.00  0.00    +0.338 C 
BRANCH  14  15
ATOM     15  O   UNL     1      34.672 -22.339 -14.848  0.00  0.00    -0.479 OA
ATOM     16  H   UNL     1      34.582 -21.473 -15.196  0.00  0.00    +0.295 HD
ENDBRANCH  14  15
ENDBRANCH   1  14
BRANCH   6  17
ATOM     17  N   UNL     1      37.798 -22.852 -12.019  0.00  0.00    -0.086 NA
BRANCH  17  18
ATOM     18  O   UNL     1      39.118 -23.133 -11.664  0.00  0.00    -0.295 OA
ATOM     19  H   UNL     1      39.518 -23.932 -11.944  0.00  0.00    +0.238 HD
ENDBRANCH  17  18
ENDBRANCH   6  17
TORSDOF 7
ENDMDL
MODEL 7
REMARK VINA RESULT:      -6.5      2.015      3.255
REMARK  Name = 9584748
REMARK  7 active torsions:
REMARK  status: ('A' for Active; 'I' for Inactive)
REMARK    1  A    between atoms: N_1  and  C_7
REMARK    2  A    between atoms: N_1  and  O_18
REMARK    3  A    between atoms: C_2  and  O_8
REMARK    4  A    between atoms: C_2  and  C_15
REMARK    5  A    between atoms: C_4  and  O_10
REMARK    6  A    between atoms: C_6  and  O_12
REMARK    7  A    between atoms: C_15  and  O_16
REMARK                            x       y       z     vdW  Elec       q    Type
REMARK                         _______ _______ _______ _____ _____    ______ ____
ROOT
ATOM      1  C   UNL     1      35.778 -24.102 -13.571  0.00  0.00    +0.181 C 
ATOM      2  C   UNL     1      36.223 -25.073 -12.471  0.00  0.00    +0.070 C 
ATOM      3  C   UNL     1      37.580 -25.700 -12.798  0.00  0.00    +0.142 C 
ATOM      4  C   UNL     1      36.178 -24.528 -14.991  0.00  0.00    +0.060 C 
ATOM      5  C   UNL     1      37.502 -26.560 -14.059  0.00  0.00    +0.156 C 
ATOM      6  C   UNL     1      36.506 -26.001 -15.050  0.00  0.00    +0.135 C 
ENDROOT
BRANCH   1   7
ATOM      7  O   UNL     1      36.358 -22.828 -13.294  0.00  0.00    -0.376 OA
ATOM      8  H   UNL     1      37.253 -22.793 -13.667  0.00  0.00    +0.211 HD
ENDBRANCH   1   7
BRANCH   3   9
ATOM      9  O   UNL     1      37.978 -26.539 -11.715  0.00  0.00    -0.382 OA
ATOM     10  H   UNL     1      38.217 -27.415 -12.056  0.00  0.00    +0.210 HD
ENDBRANCH   3   9
BRANCH   5  11
ATOM     11  O   UNL     1      38.775 -26.581 -14.684  0.00  0.00    -0.380 OA
ATOM     12  H   UNL     1      39.445 -26.861 -14.043  0.00  0.00    +0.211 HD
ENDBRANCH   5  11
BRANCH   1  14
ATOM     13  O   UNL     1      33.492 -24.079 -14.365  0.00  0.00    -0.248 OA
ATOM     14  C   UNL     1      34.296 -23.886 -13.465  0.00  0.00    +0.338 C 
BRANCH  14  15
ATOM     15  O   UNL     1      33.964 -23.443 -12.228  0.00  0.00    -0.479 OA
ATOM     16  H   UNL     1      34.552 -23.575 -11.509  0.00  0.00    +0.295 HD
ENDBRANCH  14  15
ENDBRANCH   1  14
BRANCH   6  17
ATOM     17  N   UNL     1      35.987 -26.779 -15.943  0.00  0.00    -0.086 NA
BRANCH  17  18
ATOM     18  O   UNL     1      37.019 -27.498 -16.548  0.00  0.00    -0.295 OA
ATOM     19  H   UNL     1      37.794 -27.057 -16.833  0.00  0.00    +0.238 HD
ENDBRANCH  17  18
ENDBRANCH   6  17
TORSDOF 7
ENDMDL
MODEL 8
REMARK VINA RESULT:      -6.5      2.216      4.692
REMARK  Name = 9584748
REMARK  7 active torsions:
REMARK  status: ('A' for Active; 'I' for Inactive)
REMARK    1  A    between atoms: N_1  and  C_7
REMARK    2  A    between atoms: N_1  and  O_18
REMARK    3  A    between atoms: C_2  and  O_8
REMARK    4  A    between atoms: C_2  and  C_15
REMARK    5  A    between atoms: C_4  and  O_10
REMARK    6  A    between atoms: C_6  and  O_12
REMARK    7  A    between atoms: C_15  and  O_16
REMARK                            x       y       z     vdW  Elec       q    Type
REMARK                         _______ _______ _______ _____ _____    ______ ____
ROOT
ATOM      1  C   UNL     1      36.922 -24.175 -14.352  0.00  0.00    +0.181 C 
ATOM      2  C   UNL     1      37.302 -23.173 -13.256  0.00  0.00    +0.070 C 
ATOM      3  C   UNL     1      36.997 -23.730 -11.864  0.00  0.00    +0.142 C 
ATOM      4  C   UNL     1      35.669 -25.006 -14.045  0.00  0.00    +0.060 C 
ATOM      5  C   UNL     1      35.498 -23.955 -11.675  0.00  0.00    +0.156 C 
ATOM      6  C   UNL     1      34.829 -24.356 -12.971  0.00  0.00    +0.135 C 
ENDROOT
BRANCH   1   7
ATOM      7  O   UNL     1      38.025 -25.061 -14.539  0.00  0.00    -0.376 OA
ATOM      8  H   UNL     1      37.821 -25.920 -14.136  0.00  0.00    +0.211 HD
ENDBRANCH   1   7
BRANCH   3   9
ATOM      9  O   UNL     1      37.430 -22.790 -10.882  0.00  0.00    -0.382 OA
ATOM     10  H   UNL     1      38.248 -22.363 -11.181  0.00  0.00    +0.210 HD
ENDBRANCH   3   9
BRANCH   5  11
ATOM     11  O   UNL     1      35.301 -25.003 -10.741  0.00  0.00    -0.380 OA
ATOM     12  H   UNL     1      36.124 -25.160 -10.253  0.00  0.00    +0.211 HD
ENDBRANCH   5  11
BRANCH   1  14
ATOM     13  O   UNL     1      35.728 -23.230 -16.233  0.00  0.00    -0.248 OA
ATOM     14  C   UNL     1      36.785 -23.445 -15.657  0.00  0.00    +0.338 C 
BRANCH  14  15
ATOM     15  O   UNL     1      37.998 -23.057 -16.120  0.00  0.00    -0.479 OA
ATOM     16  H   UNL     1      38.056 -22.493 -16.867  0.00  0.00    +0.295 HD
ENDBRANCH  14  15
ENDBRANCH   1  14
BRANCH   6  17
ATOM     17  N   UNL     1      33.559 -24.168 -13.120  0.00  0.00    -0.086 NA
BRANCH  17  18
ATOM     18  O   UNL     1      33.371 -23.217 -14.124  0.00  0.00    -0.295 OA
ATOM     19  H   UNL     1      33.860 -22.418 -14.110  0.00  0.00    +0.238 HD
ENDBRANCH  17  18
ENDBRANCH   6  17
TORSDOF 7
ENDMDL
MODEL 9
REMARK VINA RESULT:      -6.4      2.064      3.371
REMARK  Name = 9584748
REMARK  7 active torsions:
REMARK  status: ('A' for Active; 'I' for Inactive)
REMARK    1  A    between atoms: N_1  and  C_7
REMARK    2  A    between atoms: N_1  and  O_18
REMARK    3  A    between atoms: C_2  and  O_8
REMARK    4  A    between atoms: C_2  and  C_15
REMARK    5  A    between atoms: C_4  and  O_10
REMARK    6  A    between atoms: C_6  and  O_12
REMARK    7  A    between atoms: C_15  and  O_16
REMARK                            x       y       z     vdW  Elec       q    Type
REMARK                         _______ _______ _______ _____ _____    ______ ____
ROOT
ATOM      1  C   UNL     1      37.166 -25.493 -13.448  0.00  0.00    +0.181 C 
ATOM      2  C   UNL     1      36.339 -24.569 -12.546  0.00  0.00    +0.070 C 
ATOM      3  C   UNL     1      34.952 -24.311 -13.138  0.00  0.00    +0.142 C 
ATOM      4  C   UNL     1      36.927 -25.293 -14.951  0.00  0.00    +0.060 C 
ATOM      5  C   UNL     1      35.049 -23.564 -14.468  0.00  0.00    +0.156 C 
ATOM      6  C   UNL     1      36.296 -23.950 -15.232  0.00  0.00    +0.135 C 
ENDROOT
BRANCH   1   7
ATOM      7  O   UNL     1      36.845 -26.841 -13.108  0.00  0.00    -0.376 OA
ATOM      8  H   UNL     1      37.525 -27.435 -13.464  0.00  0.00    +0.211 HD
ENDBRANCH   1   7
BRANCH   3   9
ATOM      9  O   UNL     1      34.202 -23.504 -12.232  0.00  0.00    -0.382 OA
ATOM     10  H   UNL     1      34.674 -22.671 -12.073  0.00  0.00    +0.210 HD
ENDBRANCH   3   9
BRANCH   5  11
ATOM     11  O   UNL     1      33.927 -23.896 -15.269  0.00  0.00    -0.380 OA
ATOM     12  H   UNL     1      33.113 -23.661 -14.798  0.00  0.00    +0.211 HD
ENDBRANCH   5  11
BRANCH   1  14
ATOM     13  O   UNL     1      39.496 -26.145 -13.389  0.00  0.00    -0.248 OA
ATOM     14  C   UNL     1      38.620 -25.342 -13.103  0.00  0.00    +0.338 C 
BRANCH  14  15
ATOM     15  O   UNL     1      38.834 -24.189 -12.425  0.00  0.00    -0.479 OA
ATOM     16  H   UNL     1      39.611 -24.085 -11.911  0.00  0.00    +0.295 HD
ENDBRANCH  14  15
ENDBRANCH   1  14
BRANCH   6  17
ATOM     17  N   UNL     1      36.772 -23.147 -16.126  0.00  0.00    -0.086 NA
BRANCH  17  18
ATOM     18  O   UNL     1      38.160 -23.110 -15.986  0.00  0.00    -0.295 OA
ATOM     19  H   UNL     1      38.710 -23.196 -16.739  0.00  0.00    +0.238 HD
ENDBRANCH  17  18
ENDBRANCH   6  17
TORSDOF 7
ENDMDL
