MODEL 1
REMARK VINA RESULT:      -6.9      0.000      0.000
REMARK  Name = 449304
REMARK  10 active torsions:
REMARK  status: ('A' for Active; 'I' for Inactive)
REMARK    1  A    between atoms: C_1  and  O_2
REMARK    2  A    between atoms: C_1  and  C_4
REMARK    3  A    between atoms: C_1  and  C_11
REMARK    4  A    between atoms: C_4  and  O_5
REMARK    5  A    between atoms: C_4  and  C_8
REMARK    6  A    between atoms: C_8  and  O_9
REMARK    7  A    between atoms: C_11  and  O_12
REMARK    8  A    between atoms: O_12  and  P_13
REMARK    9  A    between atoms: P_13  and  O_15
REMARK   10  A    between atoms: P_13  and  O_17
REMARK                            x       y       z     vdW  Elec       q    Type
REMARK                         _______ _______ _______ _____ _____    ______ ____
ROOT
ATOM      1  C   UNL     1      37.725 -25.970 -14.350  0.00  0.00    +0.178 C 
ENDROOT
BRANCH   1   2
ATOM      2  O   UNL     1      37.396 -26.372 -15.679  0.00  0.00    -0.379 OA
ATOM      3  H   UNL     1      36.570 -25.940 -15.952  0.00  0.00    +0.211 HD
ENDBRANCH   1   2
BRANCH   1   4
ATOM      4  C   UNL     1      39.000 -25.116 -14.359  0.00  0.00    +0.239 C 
BRANCH   4   5
ATOM      5  O   UNL     1      39.198 -24.623 -13.036  0.00  0.00    -0.373 OA
ATOM      6  H   UNL     1      39.432 -25.359 -12.449  0.00  0.00    +0.211 HD
ENDBRANCH   4   5
BRANCH   4   8
ATOM      7  O   UNL     1      40.997 -26.432 -13.920  0.00  0.00    -0.248 OA
ATOM      8  C   UNL     1      40.246 -25.898 -14.726  0.00  0.00    +0.344 C 
BRANCH   8   9
ATOM      9  O   UNL     1      40.442 -25.959 -16.069  0.00  0.00    -0.478 OA
ATOM     10  H   UNL     1      41.244 -25.648 -16.439  0.00  0.00    +0.295 HD
ENDBRANCH   8   9
ENDBRANCH   4   8
ENDBRANCH   1   4
BRANCH   1  11
ATOM     11  C   UNL     1      36.499 -25.294 -13.745  0.00  0.00    +0.186 C 
BRANCH  11  12
ATOM     12  O   UNL     1      36.434 -25.503 -12.344  0.00  0.00    -0.271 OA
BRANCH  12  13
ATOM     13  P   UNL     1      36.002 -24.262 -11.398  0.00  0.00    +0.473 P 
ATOM     14  O   UNL     1      37.112 -23.316 -11.048  0.00  0.00    -0.227 OA
BRANCH  13  15
ATOM     15  O   UNL     1      35.274 -24.973 -10.141  0.00  0.00    -0.303 OA
ATOM     16  H   UNL     1      34.587 -24.386  -9.791  0.00  0.00    +0.222 HD
ENDBRANCH  13  15
BRANCH  13  17
ATOM     17  O   UNL     1      34.771 -23.600 -12.214  0.00  0.00    -0.303 OA
ATOM     18  H   UNL     1      34.098 -23.290 -11.589  0.00  0.00    +0.222 HD
ENDBRANCH  13  17
ENDBRANCH  12  13
ENDBRANCH  11  12
ENDBRANCH   1  11
TORSDOF 10
ENDMDL
MODEL 2
REMARK VINA RESULT:      -6.7      1.092      1.982
REMARK  Name = 449304
REMARK  10 active torsions:
REMARK  status: ('A' for Active; 'I' for Inactive)
REMARK    1  A    between atoms: C_1  and  O_2
REMARK    2  A    between atoms: C_1  and  C_4
REMARK    3  A    between atoms: C_1  and  C_11
REMARK    4  A    between atoms: C_4  and  O_5
REMARK    5  A    between atoms: C_4  and  C_8
REMARK    6  A    between atoms: C_8  and  O_9
REMARK    7  A    between atoms: C_11  and  O_12
REMARK    8  A    between atoms: O_12  and  P_13
REMARK    9  A    between atoms: P_13  and  O_15
REMARK   10  A    between atoms: P_13  and  O_17
REMARK                            x       y       z     vdW  Elec       q    Type
REMARK                         _______ _______ _______ _____ _____    ______ ____
ROOT
ATOM      1  C   UNL     1      37.731 -24.767 -14.725  0.00  0.00    +0.178 C 
ENDROOT
BRANCH   1   2
ATOM      2  O   UNL     1      38.032 -23.431 -14.325  0.00  0.00    -0.379 OA
ATOM      3  H   UNL     1      38.933 -23.204 -14.608  0.00  0.00    +0.211 HD
ENDBRANCH   1   2
BRANCH   1   4
ATOM      4  C   UNL     1      38.854 -25.714 -14.282  0.00  0.00    +0.239 C 
BRANCH   4   5
ATOM      5  O   UNL     1      38.533 -27.018 -14.762  0.00  0.00    -0.373 OA
ATOM      6  H   UNL     1      38.538 -27.645 -14.023  0.00  0.00    +0.211 HD
ENDBRANCH   4   5
BRANCH   4   8
ATOM      7  O   UNL     1      41.013 -24.597 -14.334  0.00  0.00    -0.248 OA
ATOM      8  C   UNL     1      40.208 -25.355 -14.861  0.00  0.00    +0.344 C 
BRANCH   8   9
ATOM      9  O   UNL     1      40.450 -25.981 -16.041  0.00  0.00    -0.478 OA
ATOM     10  H   UNL     1      39.774 -26.484 -16.451  0.00  0.00    +0.295 HD
ENDBRANCH   8   9
ENDBRANCH   4   8
ENDBRANCH   1   4
BRANCH   1  11
ATOM     11  C   UNL     1      36.344 -25.116 -14.195  0.00  0.00    +0.186 C 
BRANCH  11  12
ATOM     12  O   UNL     1      36.410 -25.605 -12.866  0.00  0.00    -0.271 OA
BRANCH  12  13
ATOM     13  P   UNL     1      36.140 -24.570 -11.650  0.00  0.00    +0.473 P 
ATOM     14  O   UNL     1      35.279 -25.104 -10.543  0.00  0.00    -0.227 OA
BRANCH  13  15
ATOM     15  O   UNL     1      35.576 -23.247 -12.389  0.00  0.00    -0.303 OA
ATOM     16  H   UNL     1      34.618 -23.329 -12.512  0.00  0.00    +0.222 HD
ENDBRANCH  13  15
BRANCH  13  17
ATOM     17  O   UNL     1      37.635 -24.139 -11.205  0.00  0.00    -0.303 OA
ATOM     18  H   UNL     1      37.835 -23.258 -11.557  0.00  0.00    +0.222 HD
ENDBRANCH  13  17
ENDBRANCH  12  13
ENDBRANCH  11  12
ENDBRANCH   1  11
TORSDOF 10
ENDMDL
MODEL 3
REMARK VINA RESULT:      -6.7      2.394      4.876
REMARK  Name = 449304
REMARK  10 active torsions:
REMARK  status: ('A' for Active; 'I' for Inactive)
REMARK    1  A    between atoms: C_1  and  O_2
REMARK    2  A    between atoms: C_1  and  C_4
REMARK    3  A    between atoms: C_1  and  C_11
REMARK    4  A    between atoms: C_4  and  O_5
REMARK    5  A    between atoms: C_4  and  C_8
REMARK    6  A    between atoms: C_8  and  O_9
REMARK    7  A    between atoms: C_11  and  O_12
REMARK    8  A    between atoms: O_12  and  P_13
REMARK    9  A    between atoms: P_13  and  O_15
REMARK   10  A    between atoms: P_13  and  O_17
REMARK                            x       y       z     vdW  Elec       q    Type
REMARK                         _______ _______ _______ _____ _____    ______ ____
ROOT
ATOM      1  C   UNL     1      37.925 -24.121 -11.934  0.00  0.00    +0.178 C 
ENDROOT
BRANCH   1   2
ATOM      2  O   UNL     1      38.974 -23.199 -11.643  0.00  0.00    -0.379 OA
ATOM      3  H   UNL     1      38.715 -22.642 -10.891  0.00  0.00    +0.211 HD
ENDBRANCH   1   2
BRANCH   1   4
ATOM      4  C   UNL     1      36.561 -23.458 -11.698  0.00  0.00    +0.239 C 
BRANCH   4   5
ATOM      5  O   UNL     1      36.007 -23.146 -12.974  0.00  0.00    -0.373 OA
ATOM      6  H   UNL     1      35.770 -23.967 -13.433  0.00  0.00    +0.211 HD
ENDBRANCH   4   5
BRANCH   4   8
ATOM      7  O   UNL     1      35.467 -24.483  -9.783  0.00  0.00    -0.248 OA
ATOM      8  C   UNL     1      35.565 -24.362 -10.998  0.00  0.00    +0.344 C 
BRANCH   8   9
ATOM      9  O   UNL     1      34.768 -25.029 -11.871  0.00  0.00    -0.478 OA
ATOM     10  H   UNL     1      33.880 -24.757 -11.996  0.00  0.00    +0.295 HD
ENDBRANCH   8   9
ENDBRANCH   4   8
ENDBRANCH   1   4
BRANCH   1  11
ATOM     11  C   UNL     1      38.146 -24.656 -13.345  0.00  0.00    +0.186 C 
BRANCH  11  12
ATOM     12  O   UNL     1      37.306 -25.766 -13.612  0.00  0.00    -0.271 OA
BRANCH  12  13
ATOM     13  P   UNL     1      36.515 -25.813 -15.025  0.00  0.00    +0.473 P 
ATOM     14  O   UNL     1      36.759 -27.044 -15.847  0.00  0.00    -0.227 OA
BRANCH  13  15
ATOM     15  O   UNL     1      36.914 -24.416 -15.735  0.00  0.00    -0.303 OA
ATOM     16  H   UNL     1      36.347 -24.272 -16.508  0.00  0.00    +0.222 HD
ENDBRANCH  13  15
BRANCH  13  17
ATOM     17  O   UNL     1      34.976 -25.579 -14.583  0.00  0.00    -0.303 OA
ATOM     18  H   UNL     1      34.570 -24.917 -15.164  0.00  0.00    +0.222 HD
ENDBRANCH  13  17
ENDBRANCH  12  13
ENDBRANCH  11  12
ENDBRANCH   1  11
TORSDOF 10
ENDMDL
MODEL 4
REMARK VINA RESULT:      -6.7      2.058      4.800
REMARK  Name = 449304
REMARK  10 active torsions:
REMARK  status: ('A' for Active; 'I' for Inactive)
REMARK    1  A    between atoms: C_1  and  O_2
REMARK    2  A    between atoms: C_1  and  C_4
REMARK    3  A    between atoms: C_1  and  C_11
REMARK    4  A    between atoms: C_4  and  O_5
REMARK    5  A    between atoms: C_4  and  C_8
REMARK    6  A    between atoms: C_8  and  O_9
REMARK    7  A    between atoms: C_11  and  O_12
REMARK    8  A    between atoms: O_12  and  P_13
REMARK    9  A    between atoms: P_13  and  O_15
REMARK   10  A    between atoms: P_13  and  O_17
REMARK                            x       y       z     vdW  Elec       q    Type
REMARK                         _______ _______ _______ _____ _____    ______ ____
ROOT
ATOM      1  C   UNL     1      36.751 -25.375 -13.611  0.00  0.00    +0.178 C 
ENDROOT
BRANCH   1   2
ATOM      2  O   UNL     1      36.831 -26.259 -12.493  0.00  0.00    -0.379 OA
ATOM      3  H   UNL     1      35.936 -26.532 -12.233  0.00  0.00    +0.211 HD
ENDBRANCH   1   2
BRANCH   1   4
ATOM      4  C   UNL     1      36.989 -23.929 -13.154  0.00  0.00    +0.239 C 
BRANCH   4   5
ATOM      5  O   UNL     1      35.728 -23.262 -13.164  0.00  0.00    -0.373 OA
ATOM      6  H   UNL     1      35.835 -22.366 -12.807  0.00  0.00    +0.211 HD
ENDBRANCH   4   5
BRANCH   4   8
ATOM      7  O   UNL     1      36.894 -24.098 -10.730  0.00  0.00    -0.248 OA
ATOM      8  C   UNL     1      37.529 -23.825 -11.741  0.00  0.00    +0.344 C 
BRANCH   8   9
ATOM      9  O   UNL     1      38.819 -23.403 -11.709  0.00  0.00    -0.478 OA
ATOM     10  H   UNL     1      39.075 -22.725 -11.115  0.00  0.00    +0.295 HD
ENDBRANCH   8   9
ENDBRANCH   4   8
ENDBRANCH   1   4
BRANCH   1  11
ATOM     11  C   UNL     1      37.714 -25.880 -14.680  0.00  0.00    +0.186 C 
BRANCH  11  12
ATOM     12  O   UNL     1      38.868 -26.464 -14.100  0.00  0.00    -0.271 OA
BRANCH  12  13
ATOM     13  P   UNL     1      40.317 -25.847 -14.478  0.00  0.00    +0.473 P 
ATOM     14  O   UNL     1      40.604 -24.497 -13.890  0.00  0.00    -0.227 OA
BRANCH  13  15
ATOM     15  O   UNL     1      40.356 -25.922 -16.093  0.00  0.00    -0.303 OA
ATOM     16  H   UNL     1      39.618 -25.411 -16.459  0.00  0.00    +0.222 HD
ENDBRANCH  13  15
BRANCH  13  17
ATOM     17  O   UNL     1      41.336 -27.020 -14.026  0.00  0.00    -0.303 OA
ATOM     18  H   UNL     1      41.012 -27.873 -14.354  0.00  0.00    +0.222 HD
ENDBRANCH  13  17
ENDBRANCH  12  13
ENDBRANCH  11  12
ENDBRANCH   1  11
TORSDOF 10
ENDMDL
MODEL 5
REMARK VINA RESULT:      -6.7      2.269      5.388
REMARK  Name = 449304
REMARK  10 active torsions:
REMARK  status: ('A' for Active; 'I' for Inactive)
REMARK    1  A    between atoms: C_1  and  O_2
REMARK    2  A    between atoms: C_1  and  C_4
REMARK    3  A    between atoms: C_1  and  C_11
REMARK    4  A    between atoms: C_4  and  O_5
REMARK    5  A    between atoms: C_4  and  C_8
REMARK    6  A    between atoms: C_8  and  O_9
REMARK    7  A    between atoms: C_11  and  O_12
REMARK    8  A    between atoms: O_12  and  P_13
REMARK    9  A    between atoms: P_13  and  O_15
REMARK   10  A    between atoms: P_13  and  O_17
REMARK                            x       y       z     vdW  Elec       q    Type
REMARK                         _______ _______ _______ _____ _____    ______ ____
ROOT
ATOM      1  C   UNL     1      37.941 -24.152 -12.013  0.00  0.00    +0.178 C 
ENDROOT
BRANCH   1   2
ATOM      2  O   UNL     1      39.021 -23.271 -11.708  0.00  0.00    -0.379 OA
ATOM      3  H   UNL     1      38.685 -22.363 -11.627  0.00  0.00    +0.211 HD
ENDBRANCH   1   2
BRANCH   1   4
ATOM      4  C   UNL     1      36.601 -23.460 -11.725  0.00  0.00    +0.239 C 
BRANCH   4   5
ATOM      5  O   UNL     1      36.036 -23.078 -12.978  0.00  0.00    -0.373 OA
ATOM      6  H   UNL     1      36.372 -23.662 -13.675  0.00  0.00    +0.211 HD
ENDBRANCH   4   5
BRANCH   4   8
ATOM      7  O   UNL     1      35.492 -24.511  -9.834  0.00  0.00    -0.248 OA
ATOM      8  C   UNL     1      35.591 -24.363 -11.045  0.00  0.00    +0.344 C 
BRANCH   8   9
ATOM      9  O   UNL     1      34.782 -24.996 -11.933  0.00  0.00    -0.478 OA
ATOM     10  H   UNL     1      34.922 -24.889 -12.853  0.00  0.00    +0.295 HD
ENDBRANCH   8   9
ENDBRANCH   4   8
ENDBRANCH   1   4
BRANCH   1  11
ATOM     11  C   UNL     1      38.120 -24.638 -13.447  0.00  0.00    +0.186 C 
BRANCH  11  12
ATOM     12  O   UNL     1      39.490 -24.678 -13.809  0.00  0.00    -0.271 OA
BRANCH  12  13
ATOM     13  P   UNL     1      40.050 -25.997 -14.564  0.00  0.00    +0.473 P 
ATOM     14  O   UNL     1      41.280 -26.602 -13.952  0.00  0.00    -0.227 OA
BRANCH  13  15
ATOM     15  O   UNL     1      40.203 -25.524 -16.103  0.00  0.00    -0.303 OA
ATOM     16  H   UNL     1      41.125 -25.629 -16.383  0.00  0.00    +0.222 HD
ENDBRANCH  13  15
BRANCH  13  17
ATOM     17  O   UNL     1      38.756 -26.968 -14.599  0.00  0.00    -0.303 OA
ATOM     18  H   UNL     1      38.084 -26.589 -15.187  0.00  0.00    +0.222 HD
ENDBRANCH  13  17
ENDBRANCH  12  13
ENDBRANCH  11  12
ENDBRANCH   1  11
TORSDOF 10
ENDMDL
MODEL 6
REMARK VINA RESULT:      -6.6      2.136      4.725
REMARK  Name = 449304
REMARK  10 active torsions:
REMARK  status: ('A' for Active; 'I' for Inactive)
REMARK    1  A    between atoms: C_1  and  O_2
REMARK    2  A    between atoms: C_1  and  C_4
REMARK    3  A    between atoms: C_1  and  C_11
REMARK    4  A    between atoms: C_4  and  O_5
REMARK    5  A    between atoms: C_4  and  C_8
REMARK    6  A    between atoms: C_8  and  O_9
REMARK    7  A    between atoms: C_11  and  O_12
REMARK    8  A    between atoms: O_12  and  P_13
REMARK    9  A    between atoms: P_13  and  O_15
REMARK   10  A    between atoms: P_13  and  O_17
REMARK                            x       y       z     vdW  Elec       q    Type
REMARK                         _______ _______ _______ _____ _____    ______ ____
ROOT
ATOM      1  C   UNL     1      35.859 -24.534 -13.854  0.00  0.00    +0.178 C 
ENDROOT
BRANCH   1   2
ATOM      2  O   UNL     1      36.127 -25.903 -13.555  0.00  0.00    -0.379 OA
ATOM      3  H   UNL     1      37.082 -26.027 -13.434  0.00  0.00    +0.211 HD
ENDBRANCH   1   2
BRANCH   1   4
ATOM      4  C   UNL     1      35.646 -23.745 -12.556  0.00  0.00    +0.239 C 
BRANCH   4   5
ATOM      5  O   UNL     1      34.247 -23.500 -12.426  0.00  0.00    -0.373 OA
ATOM      6  H   UNL     1      33.913 -23.094 -13.241  0.00  0.00    +0.211 HD
ENDBRANCH   4   5
BRANCH   4   8
ATOM      7  O   UNL     1      35.313 -25.088 -10.556  0.00  0.00    -0.248 OA
ATOM      8  C   UNL     1      36.075 -24.501 -11.314  0.00  0.00    +0.344 C 
BRANCH   8   9
ATOM      9  O   UNL     1      37.420 -24.472 -11.129  0.00  0.00    -0.478 OA
ATOM     10  H   UNL     1      37.772 -24.242 -10.292  0.00  0.00    +0.295 HD
ENDBRANCH   8   9
ENDBRANCH   4   8
ENDBRANCH   1   4
BRANCH   1  11
ATOM     11  C   UNL     1      36.984 -24.018 -14.745  0.00  0.00    +0.186 C 
BRANCH  11  12
ATOM     12  O   UNL     1      38.220 -23.992 -14.051  0.00  0.00    -0.271 OA
BRANCH  12  13
ATOM     13  P   UNL     1      39.255 -25.217 -14.274  0.00  0.00    +0.473 P 
ATOM     14  O   UNL     1      40.686 -24.809 -14.470  0.00  0.00    -0.227 OA
BRANCH  13  15
ATOM     15  O   UNL     1      38.601 -26.057 -15.491  0.00  0.00    -0.303 OA
ATOM     16  H   UNL     1      37.912 -26.644 -15.144  0.00  0.00    +0.222 HD
ENDBRANCH  13  15
BRANCH  13  17
ATOM     17  O   UNL     1      38.984 -26.156 -12.985  0.00  0.00    -0.303 OA
ATOM     18  H   UNL     1      39.710 -26.053 -12.351  0.00  0.00    +0.222 HD
ENDBRANCH  13  17
ENDBRANCH  12  13
ENDBRANCH  11  12
ENDBRANCH   1  11
TORSDOF 10
ENDMDL
MODEL 7
REMARK VINA RESULT:      -6.3      1.497      2.268
REMARK  Name = 449304
REMARK  10 active torsions:
REMARK  status: ('A' for Active; 'I' for Inactive)
REMARK    1  A    between atoms: C_1  and  O_2
REMARK    2  A    between atoms: C_1  and  C_4
REMARK    3  A    between atoms: C_1  and  C_11
REMARK    4  A    between atoms: C_4  and  O_5
REMARK    5  A    between atoms: C_4  and  C_8
REMARK    6  A    between atoms: C_8  and  O_9
REMARK    7  A    between atoms: C_11  and  O_12
REMARK    8  A    between atoms: O_12  and  P_13
REMARK    9  A    between atoms: P_13  and  O_15
REMARK   10  A    between atoms: P_13  and  O_17
REMARK                            x       y       z     vdW  Elec       q    Type
REMARK                         _______ _______ _______ _____ _____    ______ ____
ROOT
ATOM      1  C   UNL     1      37.852 -24.736 -13.672  0.00  0.00    +0.178 C 
ENDROOT
BRANCH   1   2
ATOM      2  O   UNL     1      39.176 -24.761 -14.203  0.00  0.00    -0.379 OA
ATOM      3  H   UNL     1      39.273 -24.058 -14.865  0.00  0.00    +0.211 HD
ENDBRANCH   1   2
BRANCH   1   4
ATOM      4  C   UNL     1      36.882 -25.414 -14.649  0.00  0.00    +0.239 C 
BRANCH   4   5
ATOM      5  O   UNL     1      36.710 -24.540 -15.763  0.00  0.00    -0.373 OA
ATOM      6  H   UNL     1      36.284 -23.721 -15.468  0.00  0.00    +0.211 HD
ENDBRANCH   4   5
BRANCH   4   8
ATOM      7  O   UNL     1      38.365 -27.339 -14.752  0.00  0.00    -0.248 OA
ATOM      8  C   UNL     1      37.402 -26.728 -15.199  0.00  0.00    +0.344 C 
BRANCH   8   9
ATOM      9  O   UNL     1      36.669 -27.176 -16.250  0.00  0.00    -0.478 OA
ATOM     10  H   UNL     1      36.795 -26.804 -17.101  0.00  0.00    +0.295 HD
ENDBRANCH   8   9
ENDBRANCH   4   8
ENDBRANCH   1   4
BRANCH   1  11
ATOM     11  C   UNL     1      37.892 -25.345 -12.275  0.00  0.00    +0.186 C 
BRANCH  11  12
ATOM     12  O   UNL     1      36.600 -25.382 -11.692  0.00  0.00    -0.271 OA
BRANCH  12  13
ATOM     13  P   UNL     1      36.028 -24.034 -11.001  0.00  0.00    +0.473 P 
ATOM     14  O   UNL     1      37.041 -22.947 -10.797  0.00  0.00    -0.227 OA
BRANCH  13  15
ATOM     15  O   UNL     1      35.304 -24.569  -9.657  0.00  0.00    -0.303 OA
ATOM     16  H   UNL     1      34.361 -24.348  -9.688  0.00  0.00    +0.222 HD
ENDBRANCH  13  15
BRANCH  13  17
ATOM     17  O   UNL     1      34.785 -23.639 -11.960  0.00  0.00    -0.303 OA
ATOM     18  H   UNL     1      34.035 -23.353 -11.416  0.00  0.00    +0.222 HD
ENDBRANCH  13  17
ENDBRANCH  12  13
ENDBRANCH  11  12
ENDBRANCH   1  11
TORSDOF 10
ENDMDL
MODEL 8
REMARK VINA RESULT:      -6.3      2.460      4.483
REMARK  Name = 449304
REMARK  10 active torsions:
REMARK  status: ('A' for Active; 'I' for Inactive)
REMARK    1  A    between atoms: C_1  and  O_2
REMARK    2  A    between atoms: C_1  and  C_4
REMARK    3  A    between atoms: C_1  and  C_11
REMARK    4  A    between atoms: C_4  and  O_5
REMARK    5  A    between atoms: C_4  and  C_8
REMARK    6  A    between atoms: C_8  and  O_9
REMARK    7  A    between atoms: C_11  and  O_12
REMARK    8  A    between atoms: O_12  and  P_13
REMARK    9  A    between atoms: P_13  and  O_15
REMARK   10  A    between atoms: P_13  and  O_17
REMARK                            x       y       z     vdW  Elec       q    Type
REMARK                         _______ _______ _______ _____ _____    ______ ____
ROOT
ATOM      1  C   UNL     1      37.040 -23.243 -13.443  0.00  0.00    +0.178 C 
ENDROOT
BRANCH   1   2
ATOM      2  O   UNL     1      35.631 -23.103 -13.271  0.00  0.00    -0.379 OA
ATOM      3  H   UNL     1      35.429 -22.204 -12.967  0.00  0.00    +0.211 HD
ENDBRANCH   1   2
BRANCH   1   4
ATOM      4  C   UNL     1      37.643 -23.996 -12.250  0.00  0.00    +0.239 C 
BRANCH   4   5
ATOM      5  O   UNL     1      38.573 -23.122 -11.613  0.00  0.00    -0.373 OA
ATOM      6  H   UNL     1      38.713 -23.411 -10.698  0.00  0.00    +0.211 HD
ENDBRANCH   4   5
BRANCH   4   8
ATOM      7  O   UNL     1      36.463 -23.809 -10.131  0.00  0.00    -0.248 OA
ATOM      8  C   UNL     1      36.618 -24.383 -11.202  0.00  0.00    +0.344 C 
BRANCH   8   9
ATOM      9  O   UNL     1      35.862 -25.445 -11.584  0.00  0.00    -0.478 OA
ATOM     10  H   UNL     1      35.089 -25.310 -12.095  0.00  0.00    +0.295 HD
ENDBRANCH   8   9
ENDBRANCH   4   8
ENDBRANCH   1   4
BRANCH   1  11
ATOM     11  C   UNL     1      37.288 -23.886 -14.804  0.00  0.00    +0.186 C 
BRANCH  11  12
ATOM     12  O   UNL     1      37.732 -25.225 -14.667  0.00  0.00    -0.271 OA
BRANCH  12  13
ATOM     13  P   UNL     1      36.658 -26.419 -14.872  0.00  0.00    +0.473 P 
ATOM     14  O   UNL     1      36.832 -27.218 -16.129  0.00  0.00    -0.227 OA
BRANCH  13  15
ATOM     15  O   UNL     1      35.228 -25.681 -14.712  0.00  0.00    -0.303 OA
ATOM     16  H   UNL     1      34.750 -25.715 -15.555  0.00  0.00    +0.222 HD
ENDBRANCH  13  15
BRANCH  13  17
ATOM     17  O   UNL     1      36.794 -27.265 -13.500  0.00  0.00    -0.303 OA
ATOM     18  H   UNL     1      37.662 -27.698 -13.472  0.00  0.00    +0.222 HD
ENDBRANCH  13  17
ENDBRANCH  12  13
ENDBRANCH  11  12
ENDBRANCH   1  11
TORSDOF 10
ENDMDL
MODEL 9
REMARK VINA RESULT:      -6.3      2.081      3.178
REMARK  Name = 449304
REMARK  10 active torsions:
REMARK  status: ('A' for Active; 'I' for Inactive)
REMARK    1  A    between atoms: C_1  and  O_2
REMARK    2  A    between atoms: C_1  and  C_4
REMARK    3  A    between atoms: C_1  and  C_11
REMARK    4  A    between atoms: C_4  and  O_5
REMARK    5  A    between atoms: C_4  and  C_8
REMARK    6  A    between atoms: C_8  and  O_9
REMARK    7  A    between atoms: C_11  and  O_12
REMARK    8  A    between atoms: O_12  and  P_13
REMARK    9  A    between atoms: P_13  and  O_15
REMARK   10  A    between atoms: P_13  and  O_17
REMARK                            x       y       z     vdW  Elec       q    Type
REMARK                         _______ _______ _______ _____ _____    ______ ____
ROOT
ATOM      1  C   UNL     1      37.100 -25.184 -14.145  0.00  0.00    +0.178 C 
ENDROOT
BRANCH   1   2
ATOM      2  O   UNL     1      35.726 -25.554 -14.258  0.00  0.00    -0.379 OA
ATOM      3  H   UNL     1      35.209 -25.086 -13.583  0.00  0.00    +0.211 HD
ENDBRANCH   1   2
BRANCH   1   4
ATOM      4  C   UNL     1      37.295 -23.738 -14.620  0.00  0.00    +0.239 C 
BRANCH   4   5
ATOM      5  O   UNL     1      38.384 -23.730 -15.541  0.00  0.00    -0.373 OA
ATOM      6  H   UNL     1      38.051 -23.904 -16.435  0.00  0.00    +0.211 HD
ENDBRANCH   4   5
BRANCH   4   8
ATOM      7  O   UNL     1      35.920 -23.255 -16.567  0.00  0.00    -0.248 OA
ATOM      8  C   UNL     1      36.094 -23.179 -15.357  0.00  0.00    +0.344 C 
BRANCH   8   9
ATOM      9  O   UNL     1      35.204 -22.585 -14.521  0.00  0.00    -0.478 OA
ATOM     10  H   UNL     1      35.507 -22.140 -13.754  0.00  0.00    +0.295 HD
ENDBRANCH   8   9
ENDBRANCH   4   8
ENDBRANCH   1   4
BRANCH   1  11
ATOM     11  C   UNL     1      37.546 -25.459 -12.713  0.00  0.00    +0.186 C 
BRANCH  11  12
ATOM     12  O   UNL     1      36.441 -25.479 -11.825  0.00  0.00    -0.271 OA
BRANCH  12  13
ATOM     13  P   UNL     1      36.016 -24.098 -11.093  0.00  0.00    +0.473 P 
ATOM     14  O   UNL     1      37.118 -23.090 -10.953  0.00  0.00    -0.227 OA
BRANCH  13  15
ATOM     15  O   UNL     1      35.345 -24.589  -9.706  0.00  0.00    -0.303 OA
ATOM     16  H   UNL     1      35.798 -25.387  -9.392  0.00  0.00    +0.222 HD
ENDBRANCH  13  15
BRANCH  13  17
ATOM     17  O   UNL     1      34.746 -23.605 -11.966  0.00  0.00    -0.303 OA
ATOM     18  H   UNL     1      33.928 -23.784 -11.477  0.00  0.00    +0.222 HD
ENDBRANCH  13  17
ENDBRANCH  12  13
ENDBRANCH  11  12
ENDBRANCH   1  11
TORSDOF 10
ENDMDL
