MODEL 1
REMARK VINA RESULT:      -6.9      0.000      0.000
REMARK  Name = 441335
REMARK  4 active torsions:
REMARK  status: ('A' for Active; 'I' for Inactive)
REMARK    1  A    between atoms: C_7  and  O_23
REMARK    2  A    between atoms: C_7  and  C_28
REMARK    3  A    between atoms: C_11  and  O_25
REMARK    4  A    between atoms: C_28  and  C_30
REMARK                            x       y       z     vdW  Elec       q    Type
REMARK                         _______ _______ _______ _____ _____    ______ ____
ROOT
ATOM      1 CL   UNL     1      35.768 -25.943 -15.200  0.00  0.00    -0.113 Cl
ATOM      2  O   UNL     1      40.697 -26.080 -14.827  0.00  0.00    -0.287 OA
ATOM      3  C   UNL     1      32.712 -23.699 -14.326  0.00  0.00    +0.031 C 
ATOM      4  C   UNL     1      33.670 -23.537 -15.529  0.00  0.00    +0.004 C 
ATOM      5  C   UNL     1      35.119 -23.229 -15.115  0.00  0.00    +0.017 C 
ATOM      6  C   UNL     1      35.698 -24.376 -14.196  0.00  0.00    +0.098 C 
ATOM      7  C   UNL     1      31.383 -23.949 -15.100  0.00  0.00    +0.140 C 
ATOM      8  C   UNL     1      32.936 -22.557 -16.444  0.00  0.00    +0.003 C 
ATOM      9  C   UNL     1      33.229 -24.871 -13.463  0.00  0.00    +0.033 C 
ATOM     10  C   UNL     1      31.435 -22.909 -16.262  0.00  0.00    +0.031 C 
ATOM     11  C   UNL     1      34.708 -24.704 -13.023  0.00  0.00    +0.125 C 
ATOM     12  C   UNL     1      37.198 -24.037 -13.763  0.00  0.00    +0.049 C 
ATOM     13  C   UNL     1      36.013 -22.948 -16.339  0.00  0.00    +0.006 C 
ATOM     14  C   UNL     1      32.582 -22.410 -13.464  0.00  0.00    +0.003 C 
ATOM     15  C   UNL     1      37.461 -22.668 -15.941  0.00  0.00    +0.022 C 
ATOM     16  C   UNL     1      38.009 -23.744 -15.035  0.00  0.00    -0.037 C 
ATOM     17  C   UNL     1      30.793 -23.373 -17.567  0.00  0.00    +0.003 C 
ATOM     18  C   UNL     1      37.333 -22.791 -12.850  0.00  0.00    +0.010 C 
ATOM     19  C   UNL     1      37.812 -25.179 -12.962  0.00  0.00    -0.018 C 
ATOM     20  C   UNL     1      39.128 -24.406 -15.370  0.00  0.00    +0.034 C 
ATOM     21  C   UNL     1      38.927 -25.838 -13.293  0.00  0.00    +0.038 C 
ATOM     22  C   UNL     1      39.667 -25.487 -14.519  0.00  0.00    +0.195 C 
ENDROOT
BRANCH   7  23
ATOM     23  O   UNL     1      31.263 -25.290 -15.562  0.00  0.00    -0.380 OA
ATOM     24  H   UNL     1      31.851 -25.863 -15.045  0.00  0.00    +0.211 HD
ENDBRANCH   7  23
BRANCH  11  25
ATOM     25  O   UNL     1      34.771 -23.716 -12.001  0.00  0.00    -0.383 OA
ATOM     26  H   UNL     1      35.123 -22.892 -12.371  0.00  0.00    +0.210 HD
ENDBRANCH  11  25
BRANCH   7  28
ATOM     27  O   UNL     1      29.907 -24.592 -13.357  0.00  0.00    -0.292 OA
ATOM     28  C   UNL     1      30.148 -23.799 -14.266  0.00  0.00    +0.191 C 
BRANCH  28  30
ATOM     29 CL   UNL     1      27.917 -23.169 -15.656  0.00  0.00    -0.105 Cl
ATOM     30  C   UNL     1      29.252 -22.635 -14.624  0.00  0.00    +0.161 C 
ENDBRANCH  28  30
ENDBRANCH   7  28
TORSDOF 4
ENDMDL
MODEL 2
REMARK VINA RESULT:      -6.2      1.934      7.276
REMARK  Name = 441335
REMARK  4 active torsions:
REMARK  status: ('A' for Active; 'I' for Inactive)
REMARK    1  A    between atoms: C_7  and  O_23
REMARK    2  A    between atoms: C_7  and  C_28
REMARK    3  A    between atoms: C_11  and  O_25
REMARK    4  A    between atoms: C_28  and  C_30
REMARK                            x       y       z     vdW  Elec       q    Type
REMARK                         _______ _______ _______ _____ _____    ______ ____
ROOT
ATOM      1 CL   UNL     1      31.844 -21.964 -14.178  0.00  0.00    -0.113 Cl
ATOM      2  O   UNL     1      27.065 -21.786 -15.437  0.00  0.00    -0.287 OA
ATOM      3  C   UNL     1      35.022 -24.167 -14.602  0.00  0.00    +0.031 C 
ATOM      4  C   UNL     1      34.441 -23.167 -15.628  0.00  0.00    +0.004 C 
ATOM      5  C   UNL     1      33.041 -23.558 -16.132  0.00  0.00    +0.017 C 
ATOM      6  C   UNL     1      32.018 -23.657 -14.931  0.00  0.00    +0.098 C 
ATOM      7  C   UNL     1      36.408 -23.496 -14.361  0.00  0.00    +0.140 C 
ATOM      8  C   UNL     1      35.571 -22.994 -16.643  0.00  0.00    +0.003 C 
ATOM      9  C   UNL     1      34.066 -24.211 -13.389  0.00  0.00    +0.033 C 
ATOM     10  C   UNL     1      36.868 -23.083 -15.794  0.00  0.00    +0.031 C 
ATOM     11  C   UNL     1      32.601 -24.545 -13.774  0.00  0.00    +0.125 C 
ATOM     12  C   UNL     1      30.572 -24.077 -15.466  0.00  0.00    +0.049 C 
ATOM     13  C   UNL     1      32.551 -22.611 -17.244  0.00  0.00    +0.006 C 
ATOM     14  C   UNL     1      35.225 -25.597 -15.181  0.00  0.00    +0.003 C 
ATOM     15  C   UNL     1      31.150 -22.973 -17.732  0.00  0.00    +0.022 C 
ATOM     16  C   UNL     1      30.176 -23.103 -16.586  0.00  0.00    -0.037 C 
ATOM     17  C   UNL     1      37.683 -21.794 -15.858  0.00  0.00    +0.003 C 
ATOM     18  C   UNL     1      30.504 -25.504 -16.068  0.00  0.00    +0.010 C 
ATOM     19  C   UNL     1      29.547 -24.077 -14.338  0.00  0.00    -0.018 C 
ATOM     20  C   UNL     1      29.050 -22.371 -16.567  0.00  0.00    +0.034 C 
ATOM     21  C   UNL     1      28.426 -23.350 -14.319  0.00  0.00    +0.038 C 
ATOM     22  C   UNL     1      28.097 -22.451 -15.441  0.00  0.00    +0.195 C 
ENDROOT
BRANCH   7  23
ATOM     23  O   UNL     1      36.334 -22.394 -13.464  0.00  0.00    -0.380 OA
ATOM     24  H   UNL     1      36.918 -21.685 -13.775  0.00  0.00    +0.211 HD
ENDBRANCH   7  23
BRANCH  11  25
ATOM     25  O   UNL     1      32.517 -25.929 -14.091  0.00  0.00    -0.383 OA
ATOM     26  H   UNL     1      32.213 -26.420 -13.312  0.00  0.00    +0.210 HD
ENDBRANCH  11  25
BRANCH   7  28
ATOM     27  O   UNL     1      37.438 -24.464 -12.456  0.00  0.00    -0.292 OA
ATOM     28  C   UNL     1      37.409 -24.379 -13.682  0.00  0.00    +0.191 C 
BRANCH  28  30
ATOM     29 CL   UNL     1      39.956 -25.268 -13.863  0.00  0.00    -0.105 Cl
ATOM     30  C   UNL     1      38.351 -25.128 -14.597  0.00  0.00    +0.161 C 
ENDBRANCH  28  30
ENDBRANCH   7  28
TORSDOF 4
ENDMDL
MODEL 3
REMARK VINA RESULT:      -4.9     14.686     17.071
REMARK  Name = 441335
REMARK  4 active torsions:
REMARK  status: ('A' for Active; 'I' for Inactive)
REMARK    1  A    between atoms: C_7  and  O_23
REMARK    2  A    between atoms: C_7  and  C_28
REMARK    3  A    between atoms: C_11  and  O_25
REMARK    4  A    between atoms: C_28  and  C_30
REMARK                            x       y       z     vdW  Elec       q    Type
REMARK                         _______ _______ _______ _____ _____    ______ ____
ROOT
ATOM      1 CL   UNL     1      30.576  -9.394 -23.264  0.00  0.00    -0.113 Cl
ATOM      2  O   UNL     1      30.056  -4.554 -22.392  0.00  0.00    -0.287 OA
ATOM      3  C   UNL     1      33.272 -12.198 -23.343  0.00  0.00    +0.031 C 
ATOM      4  C   UNL     1      32.567 -11.621 -22.094  0.00  0.00    +0.004 C 
ATOM      5  C   UNL     1      32.872 -10.131 -21.858  0.00  0.00    +0.017 C 
ATOM      6  C   UNL     1      32.426  -9.262 -23.100  0.00  0.00    +0.098 C 
ATOM      7  C   UNL     1      32.786 -13.674 -23.241  0.00  0.00    +0.140 C 
ATOM      8  C   UNL     1      32.902 -12.629 -20.994  0.00  0.00    +0.003 C 
ATOM      9  C   UNL     1      32.781 -11.402 -24.574  0.00  0.00    +0.033 C 
ATOM     10  C   UNL     1      32.922 -14.001 -21.721  0.00  0.00    +0.031 C 
ATOM     11  C   UNL     1      32.984  -9.870 -24.435  0.00  0.00    +0.125 C 
ATOM     12  C   UNL     1      32.760  -7.720 -22.847  0.00  0.00    +0.049 C 
ATOM     13  C   UNL     1      32.259  -9.627 -20.537  0.00  0.00    +0.006 C 
ATOM     14  C   UNL     1      34.824 -12.149 -23.254  0.00  0.00    +0.003 C 
ATOM     15  C   UNL     1      32.531  -8.142 -20.306  0.00  0.00    +0.022 C 
ATOM     16  C   UNL     1      32.139  -7.310 -21.503  0.00  0.00    -0.037 C 
ATOM     17  C   UNL     1      31.863 -14.954 -21.172  0.00  0.00    +0.003 C 
ATOM     18  C   UNL     1      34.275  -7.402 -22.756  0.00  0.00    +0.010 C 
ATOM     19  C   UNL     1      32.245  -6.851 -23.988  0.00  0.00    -0.018 C 
ATOM     20  C   UNL     1      31.271  -6.295 -21.367  0.00  0.00    +0.034 C 
ATOM     21  C   UNL     1      31.382  -5.839 -23.854  0.00  0.00    +0.038 C 
ATOM     22  C   UNL     1      30.842  -5.487 -22.527  0.00  0.00    +0.195 C 
ENDROOT
BRANCH   7  23
ATOM     23  O   UNL     1      31.460 -13.849 -23.728  0.00  0.00    -0.380 OA
ATOM     24  H   UNL     1      31.429 -13.617 -24.670  0.00  0.00    +0.211 HD
ENDBRANCH   7  23
BRANCH  11  25
ATOM     25  O   UNL     1      34.367  -9.577 -24.599  0.00  0.00    -0.383 OA
ATOM     26  H   UNL     1      34.773  -9.441 -23.729  0.00  0.00    +0.210 HD
ENDBRANCH  11  25
BRANCH   7  28
ATOM     27  O   UNL     1      33.363 -14.690 -25.306  0.00  0.00    -0.292 OA
ATOM     28  C   UNL     1      33.556 -14.636 -24.093  0.00  0.00    +0.191 C 
BRANCH  28  30
ATOM     29 CL   UNL     1      34.884 -16.983 -24.282  0.00  0.00    -0.105 Cl
ATOM     30  C   UNL     1      34.552 -15.507 -23.363  0.00  0.00    +0.161 C 
ENDBRANCH  28  30
ENDBRANCH   7  28
TORSDOF 4
ENDMDL
MODEL 4
REMARK VINA RESULT:      -4.5     18.532     20.298
REMARK  Name = 441335
REMARK  4 active torsions:
REMARK  status: ('A' for Active; 'I' for Inactive)
REMARK    1  A    between atoms: C_7  and  O_23
REMARK    2  A    between atoms: C_7  and  C_28
REMARK    3  A    between atoms: C_11  and  O_25
REMARK    4  A    between atoms: C_28  and  C_30
REMARK                            x       y       z     vdW  Elec       q    Type
REMARK                         _______ _______ _______ _____ _____    ______ ____
ROOT
ATOM      1 CL   UNL     1      30.804  -8.449 -24.368  0.00  0.00    -0.113 Cl
ATOM      2  O   UNL     1      32.297 -12.841 -22.655  0.00  0.00    -0.287 OA
ATOM      3  C   UNL     1      31.470  -4.638 -23.958  0.00  0.00    +0.031 C 
ATOM      4  C   UNL     1      32.305  -5.643 -24.784  0.00  0.00    +0.004 C 
ATOM      5  C   UNL     1      32.964  -6.736 -23.925  0.00  0.00    +0.017 C 
ATOM      6  C   UNL     1      31.875  -7.561 -23.131  0.00  0.00    +0.098 C 
ATOM      7  C   UNL     1      31.011  -3.693 -25.109  0.00  0.00    +0.140 C 
ATOM      8  C   UNL     1      33.190  -4.749 -25.652  0.00  0.00    +0.003 C 
ATOM      9  C   UNL     1      30.353  -5.427 -23.238  0.00  0.00    +0.033 C 
ATOM     10  C   UNL     1      32.298  -3.520 -25.975  0.00  0.00    +0.031 C 
ATOM     11  C   UNL     1      30.890  -6.600 -22.375  0.00  0.00    +0.125 C 
ATOM     12  C   UNL     1      32.573  -8.683 -22.233  0.00  0.00    +0.049 C 
ATOM     13  C   UNL     1      33.888  -7.640 -24.764  0.00  0.00    +0.006 C 
ATOM     14  C   UNL     1      32.315  -3.836 -22.926  0.00  0.00    +0.003 C 
ATOM     15  C   UNL     1      34.526  -8.746 -23.927  0.00  0.00    +0.022 C 
ATOM     16  C   UNL     1      33.494  -9.515 -23.139  0.00  0.00    -0.037 C 
ATOM     17  C   UNL     1      32.046  -3.374 -27.474  0.00  0.00    +0.003 C 
ATOM     18  C   UNL     1      33.458  -8.125 -21.087  0.00  0.00    +0.010 C 
ATOM     19  C   UNL     1      31.536  -9.557 -21.538  0.00  0.00    -0.018 C 
ATOM     20  C   UNL     1      33.397 -10.848 -23.270  0.00  0.00    +0.034 C 
ATOM     21  C   UNL     1      31.439 -10.883 -21.666  0.00  0.00    +0.038 C 
ATOM     22  C   UNL     1      32.373 -11.622 -22.538  0.00  0.00    +0.195 C 
ENDROOT
BRANCH   7  23
ATOM     23  O   UNL     1      29.914  -4.221 -25.846  0.00  0.00    -0.380 OA
ATOM     24  H   UNL     1      29.083  -3.921 -25.446  0.00  0.00    +0.211 HD
ENDBRANCH   7  23
BRANCH  11  25
ATOM     25  O   UNL     1      31.487  -6.065 -21.200  0.00  0.00    -0.383 OA
ATOM     26  H   UNL     1      31.369  -5.102 -21.187  0.00  0.00    +0.210 HD
ENDBRANCH  11  25
BRANCH   7  28
ATOM     27  O   UNL     1      29.614  -1.786 -25.305  0.00  0.00    -0.292 OA
ATOM     28  C   UNL     1      30.465  -2.377 -24.645  0.00  0.00    +0.191 C 
BRANCH  28  30
ATOM     29 CL   UNL     1      29.775  -1.786 -22.099  0.00  0.00    -0.105 Cl
ATOM     30  C   UNL     1      31.031  -1.855 -23.344  0.00  0.00    +0.161 C 
ENDBRANCH  28  30
ENDBRANCH   7  28
TORSDOF 4
ENDMDL
MODEL 5
REMARK VINA RESULT:      -4.3     10.271     12.070
REMARK  Name = 441335
REMARK  4 active torsions:
REMARK  status: ('A' for Active; 'I' for Inactive)
REMARK    1  A    between atoms: C_7  and  O_23
REMARK    2  A    between atoms: C_7  and  C_28
REMARK    3  A    between atoms: C_11  and  O_25
REMARK    4  A    between atoms: C_28  and  C_30
REMARK                            x       y       z     vdW  Elec       q    Type
REMARK                         _______ _______ _______ _____ _____    ______ ____
ROOT
ATOM      1 CL   UNL     1      35.566 -16.789 -20.627  0.00  0.00    -0.113 Cl
ATOM      2  O   UNL     1      36.182 -21.444 -19.077  0.00  0.00    -0.287 OA
ATOM      3  C   UNL     1      33.866 -14.722 -23.451  0.00  0.00    +0.031 C 
ATOM      4  C   UNL     1      33.189 -15.304 -22.189  0.00  0.00    +0.004 C 
ATOM      5  C   UNL     1      33.219 -16.841 -22.137  0.00  0.00    +0.017 C 
ATOM      6  C   UNL     1      34.706 -17.376 -22.169  0.00  0.00    +0.098 C 
ATOM      7  C   UNL     1      33.615 -13.207 -23.190  0.00  0.00    +0.140 C 
ATOM      8  C   UNL     1      31.839 -14.588 -22.142  0.00  0.00    +0.003 C 
ATOM      9  C   UNL     1      35.343 -15.178 -23.449  0.00  0.00    +0.033 C 
ATOM     10  C   UNL     1      32.140 -13.163 -22.682  0.00  0.00    +0.031 C 
ATOM     11  C   UNL     1      35.510 -16.717 -23.345  0.00  0.00    +0.125 C 
ATOM     12  C   UNL     1      34.722 -18.974 -22.129  0.00  0.00    +0.049 C 
ATOM     13  C   UNL     1      32.425 -17.386 -20.935  0.00  0.00    +0.006 C 
ATOM     14  C   UNL     1      33.172 -15.149 -24.776  0.00  0.00    +0.003 C 
ATOM     15  C   UNL     1      32.471 -18.911 -20.857  0.00  0.00    +0.022 C 
ATOM     16  C   UNL     1      33.887 -19.430 -20.922  0.00  0.00    -0.037 C 
ATOM     17  C   UNL     1      31.853 -12.085 -21.640  0.00  0.00    +0.003 C 
ATOM     18  C   UNL     1      34.107 -19.651 -23.381  0.00  0.00    +0.010 C 
ATOM     19  C   UNL     1      36.148 -19.508 -22.055  0.00  0.00    -0.018 C 
ATOM     20  C   UNL     1      34.364 -20.220 -19.947  0.00  0.00    +0.034 C 
ATOM     21  C   UNL     1      36.623 -20.296 -21.086  0.00  0.00    +0.038 C 
ATOM     22  C   UNL     1      35.757 -20.714 -19.967  0.00  0.00    +0.195 C 
ENDROOT
BRANCH   7  23
ATOM     23  O   UNL     1      34.538 -12.651 -22.261  0.00  0.00    -0.380 OA
ATOM     24  H   UNL     1      35.439 -12.740 -22.608  0.00  0.00    +0.211 HD
ENDBRANCH   7  23
BRANCH  11  25
ATOM     25  O   UNL     1      35.167 -17.298 -24.598  0.00  0.00    -0.383 OA
ATOM     26  H   UNL     1      34.393 -17.872 -24.485  0.00  0.00    +0.210 HD
ENDBRANCH  11  25
BRANCH   7  28
ATOM     27  O   UNL     1      33.647 -12.776 -25.523  0.00  0.00    -0.292 OA
ATOM     28  C   UNL     1      33.822 -12.333 -24.389  0.00  0.00    +0.191 C 
BRANCH  28  30
ATOM     29 CL   UNL     1      35.302 -10.303 -25.387  0.00  0.00    -0.105 Cl
ATOM     30  C   UNL     1      34.251 -10.913 -24.100  0.00  0.00    +0.161 C 
ENDBRANCH  28  30
ENDBRANCH   7  28
TORSDOF 4
ENDMDL
MODEL 6
REMARK VINA RESULT:      -4.2     14.169     16.053
REMARK  Name = 441335
REMARK  4 active torsions:
REMARK  status: ('A' for Active; 'I' for Inactive)
REMARK    1  A    between atoms: C_7  and  O_23
REMARK    2  A    between atoms: C_7  and  C_28
REMARK    3  A    between atoms: C_11  and  O_25
REMARK    4  A    between atoms: C_28  and  C_30
REMARK                            x       y       z     vdW  Elec       q    Type
REMARK                         _______ _______ _______ _____ _____    ______ ____
ROOT
ATOM      1 CL   UNL     1      35.119 -12.564 -21.940  0.00  0.00    -0.113 Cl
ATOM      2  O   UNL     1      35.089 -17.506 -21.757  0.00  0.00    -0.287 OA
ATOM      3  C   UNL     1      33.123  -9.562 -23.400  0.00  0.00    +0.031 C 
ATOM      4  C   UNL     1      32.784 -10.372 -22.129  0.00  0.00    +0.004 C 
ATOM      5  C   UNL     1      32.463 -11.849 -22.417  0.00  0.00    +0.017 C 
ATOM      6  C   UNL     1      33.683 -12.562 -23.124  0.00  0.00    +0.098 C 
ATOM      7  C   UNL     1      33.339  -8.162 -22.752  0.00  0.00    +0.140 C 
ATOM      8  C   UNL     1      31.737  -9.511 -21.422  0.00  0.00    +0.003 C 
ATOM      9  C   UNL     1      34.364 -10.207 -24.058  0.00  0.00    +0.033 C 
ATOM     10  C   UNL     1      32.171  -8.051 -21.723  0.00  0.00    +0.031 C 
ATOM     11  C   UNL     1      34.185 -11.721 -24.351  0.00  0.00    +0.125 C 
ATOM     12  C   UNL     1      33.332 -14.091 -23.430  0.00  0.00    +0.049 C 
ATOM     13  C   UNL     1      32.006 -12.591 -21.146  0.00  0.00    +0.006 C 
ATOM     14  C   UNL     1      31.949  -9.492 -24.419  0.00  0.00    +0.003 C 
ATOM     15  C   UNL     1      31.712 -14.065 -21.414  0.00  0.00    +0.022 C 
ATOM     16  C   UNL     1      32.860 -14.744 -22.121  0.00  0.00    -0.037 C 
ATOM     17  C   UNL     1      32.509  -7.281 -20.449  0.00  0.00    +0.003 C 
ATOM     18  C   UNL     1      32.195 -14.290 -24.465  0.00  0.00    +0.010 C 
ATOM     19  C   UNL     1      34.531 -14.824 -24.019  0.00  0.00    -0.018 C 
ATOM     20  C   UNL     1      33.431 -15.837 -21.591  0.00  0.00    +0.034 C 
ATOM     21  C   UNL     1      35.100 -15.914 -23.493  0.00  0.00    +0.038 C 
ATOM     22  C   UNL     1      34.579 -16.501 -22.243  0.00  0.00    +0.195 C 
ENDROOT
BRANCH   7  23
ATOM     23  O   UNL     1      34.621  -8.030 -22.150  0.00  0.00    -0.380 OA
ATOM     24  H   UNL     1      35.084  -7.271 -22.539  0.00  0.00    +0.211 HD
ENDBRANCH   7  23
BRANCH  11  25
ATOM     25  O   UNL     1      33.320 -11.869 -25.470  0.00  0.00    -0.383 OA
ATOM     26  H   UNL     1      32.594 -12.470 -25.239  0.00  0.00    +0.210 HD
ENDBRANCH  11  25
BRANCH   7  28
ATOM     27  O   UNL     1      32.348  -6.307 -23.850  0.00  0.00    -0.292 OA
ATOM     28  C   UNL     1      33.339  -7.025 -23.727  0.00  0.00    +0.191 C 
BRANCH  28  30
ATOM     29 CL   UNL     1      34.320  -5.826 -25.942  0.00  0.00    -0.105 Cl
ATOM     30  C   UNL     1      34.611  -6.841 -24.521  0.00  0.00    +0.161 C 
ENDBRANCH  28  30
ENDBRANCH   7  28
TORSDOF 4
ENDMDL
