MODEL 1
REMARK VINA RESULT:      -6.4      0.000      0.000
REMARK  Name = 657298
REMARK  2 active torsions:
REMARK  status: ('A' for Active; 'I' for Inactive)
REMARK    1  A    between atoms: C_5  and  C_11
REMARK    2  A    between atoms: C_11  and  C_12
REMARK                            x       y       z     vdW  Elec       q    Type
REMARK                         _______ _______ _______ _____ _____    ______ ____
ROOT
ATOM      1  S   UNL     1      34.204 -14.551 -21.714  0.00  0.00    -0.018 S 
ATOM      2  O   UNL     1      34.862 -17.243 -25.860  0.00  0.00    -0.270 OA
ATOM      3  N   UNL     1      34.452 -17.205 -21.864  0.00  0.00    -0.299 N 
ATOM      4  N   UNL     1      34.557 -16.053 -23.900  0.00  0.00    -0.264 N 
ATOM      5  C   UNL     1      34.623 -18.409 -22.509  0.00  0.00    +0.031 C 
ATOM      6  C   UNL     1      34.762 -18.463 -23.841  0.00  0.00    +0.068 C 
ATOM      7  C   UNL     1      34.413 -15.997 -22.524  0.00  0.00    +0.141 C 
ATOM      8  C   UNL     1      34.733 -17.213 -24.640  0.00  0.00    +0.252 C 
ATOM      9  H   UNL     1      34.354 -17.208 -20.884  0.00  0.00    +0.154 HD
ATOM     10  H   UNL     1      34.530 -15.200 -24.393  0.00  0.00    +0.157 HD
ENDROOT
BRANCH   5  11
ATOM     11  C   UNL     1      34.643 -19.627 -21.641  0.00  0.00    +0.041 C 
BRANCH  11  12
ATOM     12  C   UNL     1      33.338 -19.790 -20.866  0.00  0.00    +0.006 C 
ATOM     13  C   UNL     1      33.419 -20.950 -19.886  0.00  0.00    +0.000 C 
ENDBRANCH  11  12
ENDBRANCH   5  11
TORSDOF 2
ENDMDL
MODEL 2
REMARK VINA RESULT:      -6.3      1.075      1.267
REMARK  Name = 657298
REMARK  2 active torsions:
REMARK  status: ('A' for Active; 'I' for Inactive)
REMARK    1  A    between atoms: C_5  and  C_11
REMARK    2  A    between atoms: C_11  and  C_12
REMARK                            x       y       z     vdW  Elec       q    Type
REMARK                         _______ _______ _______ _____ _____    ______ ____
ROOT
ATOM      1  S   UNL     1      32.692 -13.846 -22.474  0.00  0.00    -0.018 S 
ATOM      2  O   UNL     1      34.780 -16.862 -25.852  0.00  0.00    -0.270 OA
ATOM      3  N   UNL     1      34.028 -16.105 -21.979  0.00  0.00    -0.299 N 
ATOM      4  N   UNL     1      33.832 -15.506 -24.235  0.00  0.00    -0.264 N 
ATOM      5  C   UNL     1      34.740 -17.234 -22.315  0.00  0.00    +0.031 C 
ATOM      6  C   UNL     1      35.010 -17.522 -23.596  0.00  0.00    +0.068 C 
ATOM      7  C   UNL     1      33.553 -15.208 -22.912  0.00  0.00    +0.141 C 
ATOM      8  C   UNL     1      34.540 -16.616 -24.674  0.00  0.00    +0.252 C 
ATOM      9  H   UNL     1      33.851 -15.928 -21.027  0.00  0.00    +0.154 HD
ATOM     10  H   UNL     1      33.502 -14.880 -24.920  0.00  0.00    +0.157 HD
ENDROOT
BRANCH   5  11
ATOM     11  C   UNL     1      35.182 -18.099 -21.178  0.00  0.00    +0.041 C 
BRANCH  11  12
ATOM     12  C   UNL     1      34.722 -19.543 -21.355  0.00  0.00    +0.006 C 
ATOM     13  C   UNL     1      33.301 -19.736 -20.849  0.00  0.00    +0.000 C 
ENDBRANCH  11  12
ENDBRANCH   5  11
TORSDOF 2
ENDMDL
MODEL 3
REMARK VINA RESULT:      -6.2      2.373      2.699
REMARK  Name = 657298
REMARK  2 active torsions:
REMARK  status: ('A' for Active; 'I' for Inactive)
REMARK    1  A    between atoms: C_5  and  C_11
REMARK    2  A    between atoms: C_11  and  C_12
REMARK                            x       y       z     vdW  Elec       q    Type
REMARK                         _______ _______ _______ _____ _____    ______ ____
ROOT
ATOM      1  S   UNL     1      34.615 -16.680 -25.270  0.00  0.00    -0.018 S 
ATOM      2  O   UNL     1      34.861 -14.971 -20.591  0.00  0.00    -0.270 OA
ATOM      3  N   UNL     1      34.620 -18.147 -23.038  0.00  0.00    -0.299 N 
ATOM      4  N   UNL     1      34.746 -15.828 -22.737  0.00  0.00    -0.264 N 
ATOM      5  C   UNL     1      34.657 -18.351 -21.678  0.00  0.00    +0.031 C 
ATOM      6  C   UNL     1      34.739 -17.317 -20.829  0.00  0.00    +0.068 C 
ATOM      7  C   UNL     1      34.662 -16.897 -23.614  0.00  0.00    +0.141 C 
ATOM      8  C   UNL     1      34.789 -15.930 -21.354  0.00  0.00    +0.252 C 
ATOM      9  H   UNL     1      34.560 -18.933 -23.629  0.00  0.00    +0.154 HD
ATOM     10  H   UNL     1      34.779 -14.924 -23.126  0.00  0.00    +0.157 HD
ENDROOT
BRANCH   5  11
ATOM     11  C   UNL     1      34.602 -19.775 -21.221  0.00  0.00    +0.041 C 
BRANCH  11  12
ATOM     12  C   UNL     1      33.257 -20.111 -20.583  0.00  0.00    +0.006 C 
ATOM     13  C   UNL     1      33.385 -21.264 -19.600  0.00  0.00    +0.000 C 
ENDBRANCH  11  12
ENDBRANCH   5  11
TORSDOF 2
ENDMDL
MODEL 4
REMARK VINA RESULT:      -6.0      2.458      3.875
REMARK  Name = 657298
REMARK  2 active torsions:
REMARK  status: ('A' for Active; 'I' for Inactive)
REMARK    1  A    between atoms: C_5  and  C_11
REMARK    2  A    between atoms: C_11  and  C_12
REMARK                            x       y       z     vdW  Elec       q    Type
REMARK                         _______ _______ _______ _____ _____    ______ ____
ROOT
ATOM      1  S   UNL     1      35.489 -20.169 -20.620  0.00  0.00    -0.018 S 
ATOM      2  O   UNL     1      35.018 -17.589 -24.862  0.00  0.00    -0.270 OA
ATOM      3  N   UNL     1      34.997 -17.554 -20.845  0.00  0.00    -0.299 N 
ATOM      4  N   UNL     1      35.227 -18.727 -22.859  0.00  0.00    -0.264 N 
ATOM      5  C   UNL     1      34.779 -16.378 -21.527  0.00  0.00    +0.031 C 
ATOM      6  C   UNL     1      34.779 -16.349 -22.867  0.00  0.00    +0.068 C 
ATOM      7  C   UNL     1      35.226 -18.758 -21.474  0.00  0.00    +0.141 C 
ATOM      8  C   UNL     1      35.017 -17.597 -23.635  0.00  0.00    +0.252 C 
ATOM      9  H   UNL     1      34.989 -17.533 -19.861  0.00  0.00    +0.154 HD
ATOM     10  H   UNL     1      35.390 -19.577 -23.330  0.00  0.00    +0.157 HD
ENDROOT
BRANCH   5  11
ATOM     11  C   UNL     1      34.545 -15.161 -20.689  0.00  0.00    +0.041 C 
BRANCH  11  12
ATOM     12  C   UNL     1      33.061 -14.939 -20.416  0.00  0.00    +0.006 C 
ATOM     13  C   UNL     1      32.503 -13.817 -21.276  0.00  0.00    +0.000 C 
ENDBRANCH  11  12
ENDBRANCH   5  11
TORSDOF 2
ENDMDL
MODEL 5
REMARK VINA RESULT:      -6.0      3.543      3.914
REMARK  Name = 657298
REMARK  2 active torsions:
REMARK  status: ('A' for Active; 'I' for Inactive)
REMARK    1  A    between atoms: C_5  and  C_11
REMARK    2  A    between atoms: C_11  and  C_12
REMARK                            x       y       z     vdW  Elec       q    Type
REMARK                         _______ _______ _______ _____ _____    ______ ____
ROOT
ATOM      1  S   UNL     1      33.804 -11.145 -24.359  0.00  0.00    -0.018 S 
ATOM      2  O   UNL     1      33.071 -15.522 -26.631  0.00  0.00    -0.270 OA
ATOM      3  N   UNL     1      34.208 -13.568 -23.311  0.00  0.00    -0.299 N 
ATOM      4  N   UNL     1      33.430 -13.526 -25.520  0.00  0.00    -0.264 N 
ATOM      5  C   UNL     1      34.225 -14.944 -23.318  0.00  0.00    +0.031 C 
ATOM      6  C   UNL     1      33.852 -15.632 -24.406  0.00  0.00    +0.068 C 
ATOM      7  C   UNL     1      33.816 -12.814 -24.396  0.00  0.00    +0.141 C 
ATOM      8  C   UNL     1      33.414 -14.909 -25.625  0.00  0.00    +0.252 C 
ATOM      9  H   UNL     1      34.489 -13.099 -22.492  0.00  0.00    +0.154 HD
ATOM     10  H   UNL     1      33.144 -13.008 -26.308  0.00  0.00    +0.157 HD
ENDROOT
BRANCH   5  11
ATOM     11  C   UNL     1      34.680 -15.605 -22.055  0.00  0.00    +0.041 C 
BRANCH  11  12
ATOM     12  C   UNL     1      34.103 -14.920 -20.820  0.00  0.00    +0.006 C 
ATOM     13  C   UNL     1      32.656 -15.328 -20.588  0.00  0.00    +0.000 C 
ENDBRANCH  11  12
ENDBRANCH   5  11
TORSDOF 2
ENDMDL
MODEL 6
REMARK VINA RESULT:      -5.8     10.011     11.872
REMARK  Name = 657298
REMARK  2 active torsions:
REMARK  status: ('A' for Active; 'I' for Inactive)
REMARK    1  A    between atoms: C_5  and  C_11
REMARK    2  A    between atoms: C_11  and  C_12
REMARK                            x       y       z     vdW  Elec       q    Type
REMARK                         _______ _______ _______ _____ _____    ______ ____
ROOT
ATOM      1  S   UNL     1      40.335 -25.819 -14.646  0.00  0.00    -0.018 S 
ATOM      2  O   UNL     1      36.335 -25.652 -11.671  0.00  0.00    -0.270 OA
ATOM      3  N   UNL     1      38.080 -24.457 -15.086  0.00  0.00    -0.299 N 
ATOM      4  N   UNL     1      38.158 -25.688 -13.096  0.00  0.00    -0.264 N 
ATOM      5  C   UNL     1      36.811 -24.015 -14.792  0.00  0.00    +0.031 C 
ATOM      6  C   UNL     1      36.195 -24.392 -13.663  0.00  0.00    +0.068 C 
ATOM      7  C   UNL     1      38.795 -25.299 -14.262  0.00  0.00    +0.141 C 
ATOM      8  C   UNL     1      36.883 -25.298 -12.711  0.00  0.00    +0.252 C 
ATOM      9  H   UNL     1      38.499 -24.157 -15.926  0.00  0.00    +0.154 HD
ATOM     10  H   UNL     1      38.649 -26.291 -12.491  0.00  0.00    +0.157 HD
ENDROOT
BRANCH   5  11
ATOM     11  C   UNL     1      36.179 -23.104 -15.797  0.00  0.00    +0.041 C 
BRANCH  11  12
ATOM     12  C   UNL     1      37.204 -22.178 -16.443  0.00  0.00    +0.006 C 
ATOM     13  C   UNL     1      36.735 -21.701 -17.809  0.00  0.00    +0.000 C 
ENDBRANCH  11  12
ENDBRANCH   5  11
TORSDOF 2
ENDMDL
MODEL 7
REMARK VINA RESULT:      -5.8      4.808      6.190
REMARK  Name = 657298
REMARK  2 active torsions:
REMARK  status: ('A' for Active; 'I' for Inactive)
REMARK    1  A    between atoms: C_5  and  C_11
REMARK    2  A    between atoms: C_11  and  C_12
REMARK                            x       y       z     vdW  Elec       q    Type
REMARK                         _______ _______ _______ _____ _____    ______ ____
ROOT
ATOM      1  S   UNL     1      37.256 -22.080 -16.887  0.00  0.00    -0.018 S 
ATOM      2  O   UNL     1      32.952 -22.407 -19.385  0.00  0.00    -0.270 OA
ATOM      3  N   UNL     1      36.567 -20.687 -19.059  0.00  0.00    -0.299 N 
ATOM      4  N   UNL     1      34.970 -22.208 -18.272  0.00  0.00    -0.264 N 
ATOM      5  C   UNL     1      35.734 -20.307 -20.087  0.00  0.00    +0.031 C 
ATOM      6  C   UNL     1      34.521 -20.858 -20.229  0.00  0.00    +0.068 C 
ATOM      7  C   UNL     1      36.224 -21.638 -18.124  0.00  0.00    +0.141 C 
ATOM      8  C   UNL     1      34.061 -21.893 -19.271  0.00  0.00    +0.252 C 
ATOM      9  H   UNL     1      37.451 -20.257 -18.989  0.00  0.00    +0.154 HD
ATOM     10  H   UNL     1      34.703 -22.892 -17.616  0.00  0.00    +0.157 HD
ENDROOT
BRANCH   5  11
ATOM     11  C   UNL     1      36.264 -19.258 -21.014  0.00  0.00    +0.041 C 
BRANCH  11  12
ATOM     12  C   UNL     1      35.152 -18.624 -21.844  0.00  0.00    +0.006 C 
ATOM     13  C   UNL     1      35.523 -18.573 -23.317  0.00  0.00    +0.000 C 
ENDBRANCH  11  12
ENDBRANCH   5  11
TORSDOF 2
ENDMDL
MODEL 8
REMARK VINA RESULT:      -5.8      3.448      5.343
REMARK  Name = 657298
REMARK  2 active torsions:
REMARK  status: ('A' for Active; 'I' for Inactive)
REMARK    1  A    between atoms: C_5  and  C_11
REMARK    2  A    between atoms: C_11  and  C_12
REMARK                            x       y       z     vdW  Elec       q    Type
REMARK                         _______ _______ _______ _____ _____    ______ ____
ROOT
ATOM      1  S   UNL     1      34.569 -16.823 -25.153  0.00  0.00    -0.018 S 
ATOM      2  O   UNL     1      35.157 -16.361 -20.223  0.00  0.00    -0.270 OA
ATOM      3  N   UNL     1      33.416 -15.001 -23.578  0.00  0.00    -0.299 N 
ATOM      4  N   UNL     1      34.840 -16.522 -22.509  0.00  0.00    -0.264 N 
ATOM      5  C   UNL     1      33.147 -14.375 -22.382  0.00  0.00    +0.031 C 
ATOM      6  C   UNL     1      33.707 -14.800 -21.241  0.00  0.00    +0.068 C 
ATOM      7  C   UNL     1      34.261 -16.083 -23.688  0.00  0.00    +0.141 C 
ATOM      8  C   UNL     1      34.632 -15.960 -21.258  0.00  0.00    +0.252 C 
ATOM      9  H   UNL     1      32.985 -14.658 -24.394  0.00  0.00    +0.154 HD
ATOM     10  H   UNL     1      35.447 -17.296 -22.563  0.00  0.00    +0.157 HD
ENDROOT
BRANCH   5  11
ATOM     11  C   UNL     1      32.206 -13.213 -22.441  0.00  0.00    +0.041 C 
BRANCH  11  12
ATOM     12  C   UNL     1      31.960 -12.614 -21.059  0.00  0.00    +0.006 C 
ATOM     13  C   UNL     1      30.994 -11.442 -21.129  0.00  0.00    +0.000 C 
ENDBRANCH  11  12
ENDBRANCH   5  11
TORSDOF 2
ENDMDL
MODEL 9
REMARK VINA RESULT:      -5.8      3.281      5.414
REMARK  Name = 657298
REMARK  2 active torsions:
REMARK  status: ('A' for Active; 'I' for Inactive)
REMARK    1  A    between atoms: C_5  and  C_11
REMARK    2  A    between atoms: C_11  and  C_12
REMARK                            x       y       z     vdW  Elec       q    Type
REMARK                         _______ _______ _______ _____ _____    ______ ____
ROOT
ATOM      1  S   UNL     1      34.948 -18.627 -23.989  0.00  0.00    -0.018 S 
ATOM      2  O   UNL     1      34.908 -15.328 -20.250  0.00  0.00    -0.270 OA
ATOM      3  N   UNL     1      34.156 -16.080 -24.123  0.00  0.00    -0.299 N 
ATOM      4  N   UNL     1      34.900 -16.810 -22.026  0.00  0.00    -0.264 N 
ATOM      5  C   UNL     1      33.907 -14.822 -23.624  0.00  0.00    +0.031 C 
ATOM      6  C   UNL     1      34.144 -14.532 -22.337  0.00  0.00    +0.068 C 
ATOM      7  C   UNL     1      34.656 -17.109 -23.356  0.00  0.00    +0.141 C 
ATOM      8  C   UNL     1      34.683 -15.576 -21.430  0.00  0.00    +0.252 C 
ATOM      9  H   UNL     1      33.969 -16.252 -25.074  0.00  0.00    +0.154 HD
ATOM     10  H   UNL     1      35.256 -17.531 -21.457  0.00  0.00    +0.157 HD
ENDROOT
BRANCH   5  11
ATOM     11  C   UNL     1      33.366 -13.821 -24.595  0.00  0.00    +0.041 C 
BRANCH  11  12
ATOM     12  C   UNL     1      33.065 -14.454 -25.950  0.00  0.00    +0.006 C 
ATOM     13  C   UNL     1      33.195 -13.439 -27.075  0.00  0.00    +0.000 C 
ENDBRANCH  11  12
ENDBRANCH   5  11
TORSDOF 2
ENDMDL
