MODEL 1
REMARK VINA RESULT:     -10.3      0.000      0.000
REMARK  Name = 445109
REMARK  1 active torsions:
REMARK  status: ('A' for Active; 'I' for Inactive)
REMARK    1  A    between atoms: C_6  and  C_16
REMARK                            x       y       z     vdW  Elec       q    Type
REMARK                         _______ _______ _______ _____ _____    ______ ____
ROOT
ATOM      1  N   UNL     1      33.833 -17.671 -21.189  0.00  0.00    -0.281 NA
ATOM      2  N   UNL     1      35.675 -17.257 -23.273  0.00  0.00    -0.308 N 
ATOM      3  N   UNL     1      34.912 -15.027 -23.502  0.00  0.00    -0.316 NA
ATOM      4  N   UNL     1      33.211 -14.150 -22.044  0.00  0.00    -0.316 NA
ATOM      5  N   UNL     1      34.177 -12.808 -23.704  0.00  0.00    -0.283 N 
ATOM      6  C   UNL     1      34.497 -18.818 -21.799  0.00  0.00    +0.097 C 
ATOM      7  C   UNL     1      35.853 -18.390 -22.384  0.00  0.00    +0.109 C 
ATOM      8  C   UNL     1      33.923 -16.448 -21.834  0.00  0.00    +0.191 C 
ATOM      9  C   UNL     1      34.833 -16.222 -22.871  0.00  0.00    +0.193 C 
ATOM     10  C   UNL     1      33.153 -15.360 -21.454  0.00  0.00    +0.190 C 
ATOM     11  C   UNL     1      34.095 -14.057 -23.050  0.00  0.00    +0.198 C 
ATOM     12  H   UNL     1      33.337 -17.764 -20.343  0.00  0.00    +0.124 HD
ATOM     13  H   UNL     1      36.140 -17.221 -24.140  0.00  0.00    +0.149 HD
ATOM     14  H   UNL     1      34.809 -12.684 -24.449  0.00  0.00    +0.156 HD
ATOM     15  H   UNL     1      33.605 -12.062 -23.414  0.00  0.00    +0.156 HD
ATOM     16  N   UNL     1      32.236 -15.526 -20.384  0.00  0.00    -0.334 N 
ATOM     17  H   UNL     1      31.677 -14.770 -20.093  0.00  0.00    +0.144 HD
ATOM     18  H   UNL     1      32.161 -16.398 -19.933  0.00  0.00    +0.144 HD
ENDROOT
BRANCH   6  19
ATOM     19  C   UNL     1      34.647 -19.942 -20.794  0.00  0.00    -0.006 C 
ATOM     20  C   UNL     1      35.917 -20.360 -20.401  0.00  0.00    -0.003 C 
ATOM     21  C   UNL     1      33.513 -20.559 -20.266  0.00  0.00    -0.003 C 
ATOM     22  C   UNL     1      36.055 -21.395 -19.476  0.00  0.00    -0.000 C 
ATOM     23  C   UNL     1      33.651 -21.595 -19.341  0.00  0.00    -0.000 C 
ATOM     24  C   UNL     1      34.922 -22.012 -18.946  0.00  0.00    -0.000 C 
ENDBRANCH   6  19
TORSDOF 1
ENDMDL
MODEL 2
REMARK VINA RESULT:      -9.7      8.576     10.923
REMARK  Name = 445109
REMARK  1 active torsions:
REMARK  status: ('A' for Active; 'I' for Inactive)
REMARK    1  A    between atoms: C_6  and  C_16
REMARK                            x       y       z     vdW  Elec       q    Type
REMARK                         _______ _______ _______ _____ _____    ______ ____
ROOT
ATOM      1  N   UNL     1      35.399 -24.929 -14.981  0.00  0.00    -0.281 NA
ATOM      2  N   UNL     1      37.358 -22.913 -14.882  0.00  0.00    -0.308 N 
ATOM      3  N   UNL     1      39.038 -24.562 -14.615  0.00  0.00    -0.316 NA
ATOM      4  N   UNL     1      38.479 -26.902 -14.618  0.00  0.00    -0.316 NA
ATOM      5  N   UNL     1      40.702 -26.198 -14.383  0.00  0.00    -0.283 N 
ATOM      6  C   UNL     1      34.992 -23.539 -14.799  0.00  0.00    +0.097 C 
ATOM      7  C   UNL     1      36.044 -22.600 -15.411  0.00  0.00    +0.109 C 
ATOM      8  C   UNL     1      36.740 -25.239 -14.824  0.00  0.00    +0.191 C 
ATOM      9  C   UNL     1      37.729 -24.252 -14.774  0.00  0.00    +0.193 C 
ATOM     10  C   UNL     1      37.187 -26.550 -14.760  0.00  0.00    +0.190 C 
ATOM     11  C   UNL     1      39.338 -25.872 -14.546  0.00  0.00    +0.198 C 
ATOM     12  H   UNL     1      34.740 -25.624 -15.209  0.00  0.00    +0.124 HD
ATOM     13  H   UNL     1      37.974 -22.196 -14.607  0.00  0.00    +0.149 HD
ATOM     14  H   UNL     1      41.375 -25.482 -14.326  0.00  0.00    +0.156 HD
ATOM     15  H   UNL     1      40.980 -27.141 -14.330  0.00  0.00    +0.156 HD
ATOM     16  N   UNL     1      36.227 -27.592 -14.840  0.00  0.00    -0.334 N 
ATOM     17  H   UNL     1      36.517 -28.531 -14.798  0.00  0.00    +0.144 HD
ATOM     18  H   UNL     1      35.272 -27.374 -14.938  0.00  0.00    +0.144 HD
ENDROOT
BRANCH   6  19
ATOM     19  C   UNL     1      33.617 -23.307 -15.391  0.00  0.00    -0.006 C 
ATOM     20  C   UNL     1      33.461 -23.205 -16.772  0.00  0.00    -0.003 C 
ATOM     21  C   UNL     1      32.508 -23.193 -14.552  0.00  0.00    -0.003 C 
ATOM     22  C   UNL     1      32.195 -22.990 -17.317  0.00  0.00    -0.000 C 
ATOM     23  C   UNL     1      31.242 -22.978 -15.096  0.00  0.00    -0.000 C 
ATOM     24  C   UNL     1      31.086 -22.877 -16.479  0.00  0.00    -0.000 C 
ENDBRANCH   6  19
TORSDOF 1
ENDMDL
MODEL 3
REMARK VINA RESULT:      -9.7      5.541      8.835
REMARK  Name = 445109
REMARK  1 active torsions:
REMARK  status: ('A' for Active; 'I' for Inactive)
REMARK    1  A    between atoms: C_6  and  C_16
REMARK                            x       y       z     vdW  Elec       q    Type
REMARK                         _______ _______ _______ _____ _____    ______ ____
ROOT
ATOM      1  N   UNL     1      35.376 -22.371 -17.583  0.00  0.00    -0.281 NA
ATOM      2  N   UNL     1      33.059 -23.632 -16.607  0.00  0.00    -0.308 N 
ATOM      3  N   UNL     1      34.266 -24.376 -14.709  0.00  0.00    -0.316 NA
ATOM      4  N   UNL     1      36.577 -23.778 -14.406  0.00  0.00    -0.316 NA
ATOM      5  N   UNL     1      35.456 -25.084 -12.816  0.00  0.00    -0.283 N 
ATOM      6  C   UNL     1      34.230 -22.554 -18.468  0.00  0.00    +0.097 C 
ATOM      7  C   UNL     1      32.935 -22.623 -17.643  0.00  0.00    +0.109 C 
ATOM      8  C   UNL     1      35.388 -23.063 -16.383  0.00  0.00    +0.191 C 
ATOM      9  C   UNL     1      34.247 -23.695 -15.880  0.00  0.00    +0.193 C 
ATOM     10  C   UNL     1      36.518 -23.126 -15.583  0.00  0.00    +0.190 C 
ATOM     11  C   UNL     1      35.433 -24.378 -14.038  0.00  0.00    +0.198 C 
ATOM     12  H   UNL     1      36.117 -21.772 -17.831  0.00  0.00    +0.124 HD
ATOM     13  H   UNL     1      32.321 -24.256 -16.421  0.00  0.00    +0.149 HD
ATOM     14  H   UNL     1      34.645 -25.542 -12.497  0.00  0.00    +0.156 HD
ATOM     15  H   UNL     1      36.281 -25.116 -12.281  0.00  0.00    +0.156 HD
ATOM     16  N   UNL     1      37.695 -22.472 -16.032  0.00  0.00    -0.334 N 
ATOM     17  H   UNL     1      38.512 -22.500 -15.484  0.00  0.00    +0.144 HD
ATOM     18  H   UNL     1      37.693 -21.991 -16.890  0.00  0.00    +0.144 HD
ENDROOT
BRANCH   6  19
ATOM     19  C   UNL     1      34.178 -21.451 -19.505  0.00  0.00    -0.006 C 
ATOM     20  C   UNL     1      35.355 -20.994 -20.096  0.00  0.00    -0.003 C 
ATOM     21  C   UNL     1      32.952 -20.893 -19.867  0.00  0.00    -0.003 C 
ATOM     22  C   UNL     1      35.307 -19.978 -21.051  0.00  0.00    -0.000 C 
ATOM     23  C   UNL     1      32.904 -19.877 -20.822  0.00  0.00    -0.000 C 
ATOM     24  C   UNL     1      34.082 -19.420 -21.413  0.00  0.00    -0.000 C 
ENDBRANCH   6  19
TORSDOF 1
ENDMDL
MODEL 4
REMARK VINA RESULT:      -9.5      1.843      2.670
REMARK  Name = 445109
REMARK  1 active torsions:
REMARK  status: ('A' for Active; 'I' for Inactive)
REMARK    1  A    between atoms: C_6  and  C_16
REMARK                            x       y       z     vdW  Elec       q    Type
REMARK                         _______ _______ _______ _____ _____    ______ ____
ROOT
ATOM      1  N   UNL     1      34.947 -18.728 -22.906  0.00  0.00    -0.281 NA
ATOM      2  N   UNL     1      34.823 -16.107 -21.895  0.00  0.00    -0.308 N 
ATOM      3  N   UNL     1      34.188 -15.313 -24.035  0.00  0.00    -0.316 NA
ATOM      4  N   UNL     1      33.882 -16.836 -25.873  0.00  0.00    -0.316 NA
ATOM      5  N   UNL     1      33.529 -14.535 -26.147  0.00  0.00    -0.283 N 
ATOM      6  C   UNL     1      35.532 -18.432 -21.603  0.00  0.00    +0.097 C 
ATOM      7  C   UNL     1      34.822 -17.225 -20.970  0.00  0.00    +0.109 C 
ATOM      8  C   UNL     1      34.595 -17.662 -23.718  0.00  0.00    +0.191 C 
ATOM      9  C   UNL     1      34.527 -16.352 -23.234  0.00  0.00    +0.193 C 
ATOM     10  C   UNL     1      34.240 -17.837 -25.046  0.00  0.00    +0.190 C 
ATOM     11  C   UNL     1      33.885 -15.616 -25.311  0.00  0.00    +0.198 C 
ATOM     12  H   UNL     1      34.805 -19.657 -23.199  0.00  0.00    +0.124 HD
ATOM     13  H   UNL     1      35.026 -15.196 -21.582  0.00  0.00    +0.149 HD
ATOM     14  H   UNL     1      33.513 -13.619 -25.787  0.00  0.00    +0.156 HD
ATOM     15  H   UNL     1      33.294 -14.698 -27.089  0.00  0.00    +0.156 HD
ATOM     16  N   UNL     1      34.260 -19.152 -25.579  0.00  0.00    -0.334 N 
ATOM     17  H   UNL     1      34.012 -19.306 -26.519  0.00  0.00    +0.144 HD
ATOM     18  H   UNL     1      34.523 -19.910 -25.008  0.00  0.00    +0.144 HD
ENDROOT
BRANCH   6  19
ATOM     19  C   UNL     1      35.476 -19.652 -20.706  0.00  0.00    -0.006 C 
ATOM     20  C   UNL     1      36.649 -20.165 -20.155  0.00  0.00    -0.003 C 
ATOM     21  C   UNL     1      34.251 -20.260 -20.434  0.00  0.00    -0.003 C 
ATOM     22  C   UNL     1      36.598 -21.288 -19.329  0.00  0.00    -0.000 C 
ATOM     23  C   UNL     1      34.199 -21.384 -19.608  0.00  0.00    -0.000 C 
ATOM     24  C   UNL     1      35.373 -21.897 -19.056  0.00  0.00    -0.000 C 
ENDBRANCH   6  19
TORSDOF 1
ENDMDL
MODEL 5
REMARK VINA RESULT:      -9.3      1.484      2.379
REMARK  Name = 445109
REMARK  1 active torsions:
REMARK  status: ('A' for Active; 'I' for Inactive)
REMARK    1  A    between atoms: C_6  and  C_16
REMARK                            x       y       z     vdW  Elec       q    Type
REMARK                         _______ _______ _______ _____ _____    ______ ____
ROOT
ATOM      1  N   UNL     1      34.576 -17.196 -22.903  0.00  0.00    -0.281 NA
ATOM      2  N   UNL     1      34.720 -14.910 -21.271  0.00  0.00    -0.308 N 
ATOM      3  N   UNL     1      34.099 -13.557 -23.114  0.00  0.00    -0.316 NA
ATOM      4  N   UNL     1      33.604 -14.541 -25.253  0.00  0.00    -0.316 NA
ATOM      5  N   UNL     1      33.453 -12.225 -24.933  0.00  0.00    -0.283 N 
ATOM      6  C   UNL     1      35.223 -17.284 -21.598  0.00  0.00    +0.097 C 
ATOM      7  C   UNL     1      34.644 -16.220 -20.652  0.00  0.00    +0.109 C 
ATOM      8  C   UNL     1      34.300 -15.935 -23.408  0.00  0.00    +0.191 C 
ATOM      9  C   UNL     1      34.365 -14.787 -22.613  0.00  0.00    +0.193 C 
ATOM     10  C   UNL     1      33.892 -15.744 -24.719  0.00  0.00    +0.190 C 
ATOM     11  C   UNL     1      33.733 -13.505 -24.408  0.00  0.00    +0.198 C 
ATOM     12  H   UNL     1      34.342 -18.007 -23.409  0.00  0.00    +0.124 HD
ATOM     13  H   UNL     1      35.015 -14.126 -20.754  0.00  0.00    +0.149 HD
ATOM     14  H   UNL     1      33.531 -11.430 -24.357  0.00  0.00    +0.156 HD
ATOM     15  H   UNL     1      33.178 -12.127 -25.873  0.00  0.00    +0.156 HD
ATOM     16  N   UNL     1      33.778 -16.881 -25.560  0.00  0.00    -0.334 N 
ATOM     17  H   UNL     1      33.490 -16.774 -26.495  0.00  0.00    +0.144 HD
ATOM     18  H   UNL     1      33.986 -17.776 -25.208  0.00  0.00    +0.144 HD
ENDROOT
BRANCH   6  19
ATOM     19  C   UNL     1      35.083 -18.681 -21.029  0.00  0.00    -0.006 C 
ATOM     20  C   UNL     1      36.219 -19.405 -20.671  0.00  0.00    -0.003 C 
ATOM     21  C   UNL     1      33.816 -19.241 -20.864  0.00  0.00    -0.003 C 
ATOM     22  C   UNL     1      36.089 -20.691 -20.147  0.00  0.00    -0.000 C 
ATOM     23  C   UNL     1      33.686 -20.527 -20.340  0.00  0.00    -0.000 C 
ATOM     24  C   UNL     1      34.823 -21.252 -19.981  0.00  0.00    -0.000 C 
ENDBRANCH   6  19
TORSDOF 1
ENDMDL
MODEL 6
REMARK VINA RESULT:      -9.2      3.416      5.647
REMARK  Name = 445109
REMARK  1 active torsions:
REMARK  status: ('A' for Active; 'I' for Inactive)
REMARK    1  A    between atoms: C_6  and  C_16
REMARK                            x       y       z     vdW  Elec       q    Type
REMARK                         _______ _______ _______ _____ _____    ______ ____
ROOT
ATOM      1  N   UNL     1      34.098 -13.089 -23.615  0.00  0.00    -0.281 NA
ATOM      2  N   UNL     1      31.911 -12.862 -21.861  0.00  0.00    -0.308 N 
ATOM      3  N   UNL     1      31.723 -10.563 -22.395  0.00  0.00    -0.316 NA
ATOM      4  N   UNL     1      33.188  -9.549 -24.013  0.00  0.00    -0.316 NA
ATOM      5  N   UNL     1      31.519  -8.293 -22.951  0.00  0.00    -0.283 N 
ATOM      6  C   UNL     1      33.823 -14.163 -22.666  0.00  0.00    +0.097 C 
ATOM      7  C   UNL     1      32.329 -14.178 -22.308  0.00  0.00    +0.109 C 
ATOM      8  C   UNL     1      33.444 -11.880 -23.436  0.00  0.00    +0.191 C 
ATOM      9  C   UNL     1      32.354 -11.748 -22.570  0.00  0.00    +0.193 C 
ATOM     10  C   UNL     1      33.798 -10.743 -24.144  0.00  0.00    +0.190 C 
ATOM     11  C   UNL     1      32.177  -9.529 -23.128  0.00  0.00    +0.198 C 
ATOM     12  H   UNL     1      34.728 -13.220 -24.360  0.00  0.00    +0.124 HD
ATOM     13  H   UNL     1      31.327 -12.760 -21.075  0.00  0.00    +0.149 HD
ATOM     14  H   UNL     1      30.771  -8.221 -22.315  0.00  0.00    +0.156 HD
ATOM     15  H   UNL     1      31.807  -7.503 -23.463  0.00  0.00    +0.156 HD
ATOM     16  N   UNL     1      34.876 -10.832 -25.062  0.00  0.00    -0.334 N 
ATOM     17  H   UNL     1      35.149 -10.040 -25.579  0.00  0.00    +0.144 HD
ATOM     18  H   UNL     1      35.352 -11.685 -25.181  0.00  0.00    +0.144 HD
ENDROOT
BRANCH   6  19
ATOM     19  C   UNL     1      34.283 -15.495 -23.223  0.00  0.00    -0.006 C 
ATOM     20  C   UNL     1      34.035 -15.814 -24.557  0.00  0.00    -0.003 C 
ATOM     21  C   UNL     1      34.951 -16.400 -22.400  0.00  0.00    -0.003 C 
ATOM     22  C   UNL     1      34.458 -17.041 -25.070  0.00  0.00    -0.000 C 
ATOM     23  C   UNL     1      35.374 -17.627 -22.913  0.00  0.00    -0.000 C 
ATOM     24  C   UNL     1      35.127 -17.947 -24.248  0.00  0.00    -0.000 C 
ENDBRANCH   6  19
TORSDOF 1
ENDMDL
MODEL 7
REMARK VINA RESULT:      -9.2      3.415      5.612
REMARK  Name = 445109
REMARK  1 active torsions:
REMARK  status: ('A' for Active; 'I' for Inactive)
REMARK    1  A    between atoms: C_6  and  C_16
REMARK                            x       y       z     vdW  Elec       q    Type
REMARK                         _______ _______ _______ _____ _____    ______ ____
ROOT
ATOM      1  N   UNL     1      34.098 -13.089 -23.614  0.00  0.00    -0.281 NA
ATOM      2  N   UNL     1      31.911 -12.861 -21.861  0.00  0.00    -0.308 N 
ATOM      3  N   UNL     1      31.724 -10.561 -22.397  0.00  0.00    -0.316 NA
ATOM      4  N   UNL     1      33.189  -9.549 -24.015  0.00  0.00    -0.316 NA
ATOM      5  N   UNL     1      31.521  -8.292 -22.954  0.00  0.00    -0.283 N 
ATOM      6  C   UNL     1      33.823 -14.162 -22.664  0.00  0.00    +0.097 C 
ATOM      7  C   UNL     1      32.329 -14.177 -22.306  0.00  0.00    +0.109 C 
ATOM      8  C   UNL     1      33.445 -11.880 -23.436  0.00  0.00    +0.191 C 
ATOM      9  C   UNL     1      32.355 -11.747 -22.571  0.00  0.00    +0.193 C 
ATOM     10  C   UNL     1      33.799 -10.743 -24.145  0.00  0.00    +0.190 C 
ATOM     11  C   UNL     1      32.178  -9.529 -23.131  0.00  0.00    +0.198 C 
ATOM     12  H   UNL     1      34.729 -13.220 -24.358  0.00  0.00    +0.124 HD
ATOM     13  H   UNL     1      31.327 -12.758 -21.075  0.00  0.00    +0.149 HD
ATOM     14  H   UNL     1      30.772  -8.219 -22.319  0.00  0.00    +0.156 HD
ATOM     15  H   UNL     1      31.809  -7.503 -23.467  0.00  0.00    +0.156 HD
ATOM     16  N   UNL     1      34.878 -10.833 -25.063  0.00  0.00    -0.334 N 
ATOM     17  H   UNL     1      35.150 -10.041 -25.580  0.00  0.00    +0.144 HD
ATOM     18  H   UNL     1      35.353 -11.687 -25.181  0.00  0.00    +0.144 HD
ENDROOT
BRANCH   6  19
ATOM     19  C   UNL     1      34.283 -15.495 -23.220  0.00  0.00    -0.006 C 
ATOM     20  C   UNL     1      34.949 -16.401 -22.397  0.00  0.00    -0.003 C 
ATOM     21  C   UNL     1      34.039 -15.812 -24.556  0.00  0.00    -0.003 C 
ATOM     22  C   UNL     1      35.371 -17.627 -22.909  0.00  0.00    -0.000 C 
ATOM     23  C   UNL     1      34.462 -17.039 -25.069  0.00  0.00    -0.000 C 
ATOM     24  C   UNL     1      35.128 -17.946 -24.245  0.00  0.00    -0.000 C 
ENDBRANCH   6  19
TORSDOF 1
ENDMDL
MODEL 8
REMARK VINA RESULT:      -9.2      2.328      6.923
REMARK  Name = 445109
REMARK  1 active torsions:
REMARK  status: ('A' for Active; 'I' for Inactive)
REMARK    1  A    between atoms: C_6  and  C_16
REMARK                            x       y       z     vdW  Elec       q    Type
REMARK                         _______ _______ _______ _____ _____    ______ ____
ROOT
ATOM      1  N   UNL     1      34.124 -16.368 -23.850  0.00  0.00    -0.281 NA
ATOM      2  N   UNL     1      34.666 -15.574 -21.207  0.00  0.00    -0.308 N 
ATOM      3  N   UNL     1      35.311 -17.790 -20.675  0.00  0.00    -0.316 NA
ATOM      4  N   UNL     1      35.314 -19.510 -22.358  0.00  0.00    -0.316 NA
ATOM      5  N   UNL     1      35.980 -19.978 -20.160  0.00  0.00    -0.283 N 
ATOM      6  C   UNL     1      33.646 -15.074 -23.376  0.00  0.00    +0.097 C 
ATOM      7  C   UNL     1      34.548 -14.563 -22.242  0.00  0.00    +0.109 C 
ATOM      8  C   UNL     1      34.588 -17.274 -22.910  0.00  0.00    +0.191 C 
ATOM      9  C   UNL     1      34.864 -16.898 -21.592  0.00  0.00    +0.193 C 
ATOM     10  C   UNL     1      34.855 -18.595 -23.233  0.00  0.00    +0.190 C 
ATOM     11  C   UNL     1      35.511 -19.047 -21.113  0.00  0.00    +0.198 C 
ATOM     12  H   UNL     1      34.119 -16.590 -24.809  0.00  0.00    +0.124 HD
ATOM     13  H   UNL     1      34.608 -15.328 -20.256  0.00  0.00    +0.149 HD
ATOM     14  H   UNL     1      36.142 -19.693 -19.232  0.00  0.00    +0.156 HD
ATOM     15  H   UNL     1      36.147 -20.911 -20.425  0.00  0.00    +0.156 HD
ATOM     16  N   UNL     1      34.623 -19.020 -24.567  0.00  0.00    -0.334 N 
ATOM     17  H   UNL     1      34.805 -19.953 -24.824  0.00  0.00    +0.144 HD
ATOM     18  H   UNL     1      34.281 -18.382 -25.234  0.00  0.00    +0.144 HD
ENDROOT
BRANCH   6  19
ATOM     19  C   UNL     1      33.567 -14.084 -24.521  0.00  0.00    -0.006 C 
ATOM     20  C   UNL     1      33.204 -14.521 -25.795  0.00  0.00    -0.003 C 
ATOM     21  C   UNL     1      33.858 -12.739 -24.300  0.00  0.00    -0.003 C 
ATOM     22  C   UNL     1      33.131 -13.610 -26.849  0.00  0.00    -0.000 C 
ATOM     23  C   UNL     1      33.786 -11.828 -25.354  0.00  0.00    -0.000 C 
ATOM     24  C   UNL     1      33.423 -12.264 -26.628  0.00  0.00    -0.000 C 
ENDBRANCH   6  19
TORSDOF 1
ENDMDL
MODEL 9
REMARK VINA RESULT:      -9.0      3.580      6.986
REMARK  Name = 445109
REMARK  1 active torsions:
REMARK  status: ('A' for Active; 'I' for Inactive)
REMARK    1  A    between atoms: C_6  and  C_16
REMARK                            x       y       z     vdW  Elec       q    Type
REMARK                         _______ _______ _______ _____ _____    ______ ____
ROOT
ATOM      1  N   UNL     1      35.181 -20.274 -20.310  0.00  0.00    -0.281 NA
ATOM      2  N   UNL     1      32.572 -21.318 -20.201  0.00  0.00    -0.308 N 
ATOM      3  N   UNL     1      33.197 -22.681 -18.367  0.00  0.00    -0.316 NA
ATOM      4  N   UNL     1      35.418 -22.571 -17.450  0.00  0.00    -0.316 NA
ATOM      5  N   UNL     1      33.810 -24.005 -16.530  0.00  0.00    -0.283 N 
ATOM      6  C   UNL     1      34.268 -20.046 -21.426  0.00  0.00    +0.097 C 
ATOM      7  C   UNL     1      32.814 -20.088 -20.932  0.00  0.00    +0.109 C 
ATOM      8  C   UNL     1      34.827 -21.221 -19.363  0.00  0.00    +0.191 C 
ATOM      9  C   UNL     1      33.535 -21.751 -19.292  0.00  0.00    +0.193 C 
ATOM     10  C   UNL     1      35.718 -21.660 -18.397  0.00  0.00    +0.190 C 
ATOM     11  C   UNL     1      34.160 -23.038 -17.498  0.00  0.00    +0.198 C 
ATOM     12  H   UNL     1      36.022 -19.768 -20.233  0.00  0.00    +0.124 HD
ATOM     13  H   UNL     1      31.746 -21.834 -20.343  0.00  0.00    +0.149 HD
ATOM     14  H   UNL     1      32.900 -24.381 -16.518  0.00  0.00    +0.156 HD
ATOM     15  H   UNL     1      34.473 -24.302 -15.868  0.00  0.00    +0.156 HD
ATOM     16  N   UNL     1      37.033 -21.128 -18.404  0.00  0.00    -0.334 N 
ATOM     17  H   UNL     1      37.686 -21.422 -17.729  0.00  0.00    +0.144 HD
ATOM     18  H   UNL     1      37.291 -20.465 -19.084  0.00  0.00    +0.144 HD
ENDROOT
BRANCH   6  19
ATOM     19  C   UNL     1      34.591 -18.738 -22.119  0.00  0.00    -0.006 C 
ATOM     20  C   UNL     1      34.705 -17.565 -21.374  0.00  0.00    -0.003 C 
ATOM     21  C   UNL     1      34.771 -18.709 -23.501  0.00  0.00    -0.003 C 
ATOM     22  C   UNL     1      35.002 -16.361 -22.012  0.00  0.00    -0.000 C 
ATOM     23  C   UNL     1      35.067 -17.504 -24.140  0.00  0.00    -0.000 C 
ATOM     24  C   UNL     1      35.182 -16.330 -23.394  0.00  0.00    -0.000 C 
ENDBRANCH   6  19
TORSDOF 1
ENDMDL
