MODEL 1
REMARK VINA RESULT:     -11.0      0.000      0.000
REMARK  Name = 6914627
REMARK  5 active torsions:
REMARK  status: ('A' for Active; 'I' for Inactive)
REMARK    1  A    between atoms: N_3  and  C_28
REMARK    2  A    between atoms: C_11  and  C_18
REMARK    3  A    between atoms: C_19  and  C_26
REMARK    4  A    between atoms: C_28  and  C_29
REMARK    5  A    between atoms: C_29  and  N_31
REMARK                            x       y       z     vdW  Elec       q    Type
REMARK                         _______ _______ _______ _____ _____    ______ ____
ROOT
ATOM      1  O   UNL     1      31.549 -23.230 -13.974  0.00  0.00    -0.473 OA
ATOM      2  O   UNL     1      30.763 -22.719 -17.430  0.00  0.00    -0.271 OA
ATOM      3  N   UNL     1      32.745 -23.528 -16.529  0.00  0.00    -0.251 N 
ATOM      4  C   UNL     1      30.725 -23.417 -15.117  0.00  0.00    +0.201 C 
ATOM      5  C   UNL     1      33.453 -23.864 -15.341  0.00  0.00    +0.088 C 
ATOM      6  C   UNL     1      31.404 -23.151 -16.469  0.00  0.00    +0.266 C 
ATOM      7  C   UNL     1      32.828 -23.693 -14.104  0.00  0.00    +0.152 C 
ATOM      8  C   UNL     1      29.553 -22.440 -14.943  0.00  0.00    +0.053 C 
ATOM      9  C   UNL     1      30.174 -24.853 -15.112  0.00  0.00    +0.053 C 
ATOM     10  C   UNL     1      34.779 -24.321 -15.359  0.00  0.00    +0.015 C 
ATOM     11  C   UNL     1      35.457 -24.597 -14.168  0.00  0.00    -0.007 C 
ATOM     12  C   UNL     1      33.509 -23.951 -12.911  0.00  0.00    +0.038 C 
ATOM     13  C   UNL     1      34.823 -24.410 -12.944  0.00  0.00    -0.000 C 
ENDROOT
BRANCH  11  18
ATOM     14  N   UNL     1      39.164 -24.730 -13.796  0.00  0.00    -0.337 NA
ATOM     15  N   UNL     1      38.406 -26.820 -14.724  0.00  0.00    -0.317 NA
ATOM     16  N   UNL     1      36.108 -27.190 -15.136  0.00  0.00    -0.335 N 
ATOM     17  N   UNL     1      40.685 -26.441 -14.310  0.00  0.00    -0.283 N 
ATOM     18  C   UNL     1      36.818 -25.086 -14.208  0.00  0.00    +0.138 C 
ATOM     19  C   UNL     1      37.881 -24.315 -13.777  0.00  0.00    +0.112 C 
ATOM     20  C   UNL     1      37.146 -26.342 -14.675  0.00  0.00    +0.178 C 
ATOM     21  C   UNL     1      39.353 -25.974 -14.275  0.00  0.00    +0.196 C 
ATOM     22  H   UNL     1      36.320 -28.091 -15.474  0.00  0.00    +0.144 HD
ATOM     23  H   UNL     1      35.174 -26.880 -15.118  0.00  0.00    +0.144 HD
ATOM     24  H   UNL     1      41.417 -25.864 -13.994  0.00  0.00    +0.156 HD
ATOM     25  H   UNL     1      40.881 -27.343 -14.651  0.00  0.00    +0.156 HD
BRANCH  19  26
ATOM     26  C   UNL     1      37.663 -22.935 -13.246  0.00  0.00    +0.056 C 
ATOM     27  C   UNL     1      37.713 -22.889 -11.722  0.00  0.00    +0.008 C 
ENDBRANCH  19  26
ENDBRANCH  11  18
BRANCH   3  28
ATOM     28  C   UNL     1      33.445 -23.518 -17.808  0.00  0.00    +0.120 C 
BRANCH  28  29
ATOM     29  C   UNL     1      34.004 -22.146 -18.146  0.00  0.00    +0.111 C 
BRANCH  29  31
ATOM     30  O   UNL     1      34.919 -20.202 -20.096  0.00  0.00    -0.275 OA
ATOM     31  N   UNL     1      33.218 -21.476 -19.145  0.00  0.00    -0.303 N 
ATOM     32  C   UNL     1      33.745 -20.555 -20.041  0.00  0.00    +0.223 C 
ATOM     33  C   UNL     1      32.709 -20.024 -20.996  0.00  0.00    +0.095 C 
ATOM     34  H   UNL     1      32.256 -21.680 -19.197  0.00  0.00    +0.149 HD
ENDBRANCH  29  31
ENDBRANCH  28  29
ENDBRANCH   3  28
TORSDOF 5
ENDMDL
MODEL 2
REMARK VINA RESULT:      -9.2      0.703      2.022
REMARK  Name = 6914627
REMARK  5 active torsions:
REMARK  status: ('A' for Active; 'I' for Inactive)
REMARK    1  A    between atoms: N_3  and  C_28
REMARK    2  A    between atoms: C_11  and  C_18
REMARK    3  A    between atoms: C_19  and  C_26
REMARK    4  A    between atoms: C_28  and  C_29
REMARK    5  A    between atoms: C_29  and  N_31
REMARK                            x       y       z     vdW  Elec       q    Type
REMARK                         _______ _______ _______ _____ _____    ______ ____
ROOT
ATOM      1  O   UNL     1      31.633 -23.180 -13.906  0.00  0.00    -0.473 OA
ATOM      2  O   UNL     1      30.875 -22.803 -17.384  0.00  0.00    -0.271 OA
ATOM      3  N   UNL     1      32.856 -23.556 -16.437  0.00  0.00    -0.251 N 
ATOM      4  C   UNL     1      30.822 -23.418 -15.048  0.00  0.00    +0.201 C 
ATOM      5  C   UNL     1      33.557 -23.842 -15.231  0.00  0.00    +0.088 C 
ATOM      6  C   UNL     1      31.511 -23.193 -16.403  0.00  0.00    +0.266 C 
ATOM      7  C   UNL     1      32.917 -23.634 -14.007  0.00  0.00    +0.152 C 
ATOM      8  C   UNL     1      29.637 -22.448 -14.920  0.00  0.00    +0.053 C 
ATOM      9  C   UNL     1      30.286 -24.858 -14.997  0.00  0.00    +0.053 C 
ATOM     10  C   UNL     1      34.888 -24.285 -15.221  0.00  0.00    +0.015 C 
ATOM     11  C   UNL     1      35.557 -24.510 -14.014  0.00  0.00    -0.007 C 
ATOM     12  C   UNL     1      33.590 -23.841 -12.799  0.00  0.00    +0.038 C 
ATOM     13  C   UNL     1      34.909 -24.286 -12.803  0.00  0.00    -0.000 C 
ENDROOT
BRANCH  11  18
ATOM     14  N   UNL     1      38.540 -26.645 -14.678  0.00  0.00    -0.337 NA
ATOM     15  N   UNL     1      39.237 -24.718 -13.413  0.00  0.00    -0.317 NA
ATOM     16  N   UNL     1      37.667 -23.075 -12.760  0.00  0.00    -0.335 N 
ATOM     17  N   UNL     1      40.786 -26.354 -14.067  0.00  0.00    -0.283 N 
ATOM     18  C   UNL     1      36.923 -24.984 -14.024  0.00  0.00    +0.138 C 
ATOM     19  C   UNL     1      37.280 -26.166 -14.644  0.00  0.00    +0.112 C 
ATOM     20  C   UNL     1      37.956 -24.296 -13.418  0.00  0.00    +0.178 C 
ATOM     21  C   UNL     1      39.456 -25.883 -14.052  0.00  0.00    +0.196 C 
ATOM     22  H   UNL     1      38.389 -22.568 -12.322  0.00  0.00    +0.144 HD
ATOM     23  H   UNL     1      36.745 -22.732 -12.741  0.00  0.00    +0.144 HD
ATOM     24  H   UNL     1      41.003 -27.201 -14.520  0.00  0.00    +0.156 HD
ATOM     25  H   UNL     1      41.497 -25.837 -13.624  0.00  0.00    +0.156 HD
BRANCH  19  26
ATOM     26  C   UNL     1      36.257 -27.007 -15.338  0.00  0.00    +0.056 C 
ATOM     27  C   UNL     1      36.813 -27.673 -16.593  0.00  0.00    +0.008 C 
ENDBRANCH  19  26
ENDBRANCH  11  18
BRANCH   3  28
ATOM     28  C   UNL     1      33.569 -23.585 -17.709  0.00  0.00    +0.120 C 
BRANCH  28  29
ATOM     29  C   UNL     1      34.115 -22.219 -18.092  0.00  0.00    +0.111 C 
BRANCH  29  31
ATOM     30  O   UNL     1      34.945 -20.250 -20.056  0.00  0.00    -0.275 OA
ATOM     31  N   UNL     1      33.294 -21.567 -19.075  0.00  0.00    -0.303 N 
ATOM     32  C   UNL     1      33.781 -20.633 -19.979  0.00  0.00    +0.223 C 
ATOM     33  C   UNL     1      32.714 -20.127 -20.913  0.00  0.00    +0.095 C 
ATOM     34  H   UNL     1      32.337 -21.796 -19.109  0.00  0.00    +0.149 HD
ENDBRANCH  29  31
ENDBRANCH  28  29
ENDBRANCH   3  28
TORSDOF 5
ENDMDL
MODEL 3
REMARK VINA RESULT:      -9.0      9.494     13.880
REMARK  Name = 6914627
REMARK  5 active torsions:
REMARK  status: ('A' for Active; 'I' for Inactive)
REMARK    1  A    between atoms: N_3  and  C_28
REMARK    2  A    between atoms: C_11  and  C_18
REMARK    3  A    between atoms: C_19  and  C_26
REMARK    4  A    between atoms: C_28  and  C_29
REMARK    5  A    between atoms: C_29  and  N_31
REMARK                            x       y       z     vdW  Elec       q    Type
REMARK                         _______ _______ _______ _____ _____    ______ ____
ROOT
ATOM      1  O   UNL     1      33.325 -17.066 -21.164  0.00  0.00    -0.473 OA
ATOM      2  O   UNL     1      34.853 -18.489 -24.073  0.00  0.00    -0.271 OA
ATOM      3  N   UNL     1      34.219 -16.281 -23.738  0.00  0.00    -0.251 N 
ATOM      4  C   UNL     1      34.349 -17.812 -21.809  0.00  0.00    +0.201 C 
ATOM      5  C   UNL     1      33.631 -15.342 -22.844  0.00  0.00    +0.088 C 
ATOM      6  C   UNL     1      34.473 -17.587 -23.324  0.00  0.00    +0.266 C 
ATOM      7  C   UNL     1      33.198 -15.775 -21.590  0.00  0.00    +0.152 C 
ATOM      8  C   UNL     1      34.011 -19.287 -21.546  0.00  0.00    +0.053 C 
ATOM      9  C   UNL     1      35.700 -17.492 -21.148  0.00  0.00    +0.053 C 
ATOM     10  C   UNL     1      33.428 -13.998 -23.192  0.00  0.00    +0.015 C 
ATOM     11  C   UNL     1      32.804 -13.116 -22.304  0.00  0.00    -0.007 C 
ATOM     12  C   UNL     1      32.558 -14.900 -20.707  0.00  0.00    +0.038 C 
ATOM     13  C   UNL     1      32.367 -13.568 -21.062  0.00  0.00    -0.000 C 
ENDROOT
BRANCH  11  18
ATOM     14  N   UNL     1      31.483  -9.630 -22.355  0.00  0.00    -0.337 NA
ATOM     15  N   UNL     1      33.200  -9.830 -24.033  0.00  0.00    -0.317 NA
ATOM     16  N   UNL     1      34.329 -11.881 -24.362  0.00  0.00    -0.335 N 
ATOM     17  N   UNL     1      32.073  -7.799 -23.698  0.00  0.00    -0.283 N 
ATOM     18  C   UNL     1      32.620 -11.730 -22.673  0.00  0.00    +0.138 C 
ATOM     19  C   UNL     1      31.688 -10.927 -22.044  0.00  0.00    +0.112 C 
ATOM     20  C   UNL     1      33.354 -11.119 -23.670  0.00  0.00    +0.178 C 
ATOM     21  C   UNL     1      32.261  -9.153 -23.345  0.00  0.00    +0.196 C 
ATOM     22  H   UNL     1      34.863 -11.465 -25.077  0.00  0.00    +0.144 HD
ATOM     23  H   UNL     1      34.473 -12.826 -24.127  0.00  0.00    +0.144 HD
ATOM     24  H   UNL     1      31.399  -7.257 -23.227  0.00  0.00    +0.156 HD
ATOM     25  H   UNL     1      32.614  -7.398 -24.415  0.00  0.00    +0.156 HD
BRANCH  19  26
ATOM     26  C   UNL     1      30.828 -11.464 -20.946  0.00  0.00    +0.056 C 
ATOM     27  C   UNL     1      30.973 -10.663 -19.656  0.00  0.00    +0.008 C 
ENDBRANCH  19  26
ENDBRANCH  11  18
BRANCH   3  28
ATOM     28  C   UNL     1      34.500 -15.888 -25.115  0.00  0.00    +0.120 C 
BRANCH  28  29
ATOM     29  C   UNL     1      33.290 -16.063 -26.019  0.00  0.00    +0.111 C 
BRANCH  29  31
ATOM     30  O   UNL     1      34.071 -13.908 -27.798  0.00  0.00    -0.275 OA
ATOM     31  N   UNL     1      32.601 -14.822 -26.242  0.00  0.00    -0.303 N 
ATOM     32  C   UNL     1      33.052 -13.843 -27.117  0.00  0.00    +0.223 C 
ATOM     33  C   UNL     1      32.127 -12.657 -27.179  0.00  0.00    +0.095 C 
ATOM     34  H   UNL     1      31.765 -14.657 -25.748  0.00  0.00    +0.149 HD
ENDBRANCH  29  31
ENDBRANCH  28  29
ENDBRANCH   3  28
TORSDOF 5
ENDMDL
MODEL 4
REMARK VINA RESULT:      -8.8      9.661     14.135
REMARK  Name = 6914627
REMARK  5 active torsions:
REMARK  status: ('A' for Active; 'I' for Inactive)
REMARK    1  A    between atoms: N_3  and  C_28
REMARK    2  A    between atoms: C_11  and  C_18
REMARK    3  A    between atoms: C_19  and  C_26
REMARK    4  A    between atoms: C_28  and  C_29
REMARK    5  A    between atoms: C_29  and  N_31
REMARK                            x       y       z     vdW  Elec       q    Type
REMARK                         _______ _______ _______ _____ _____    ______ ____
ROOT
ATOM      1  O   UNL     1      33.404 -16.980 -21.255  0.00  0.00    -0.473 OA
ATOM      2  O   UNL     1      34.877 -18.301 -24.239  0.00  0.00    -0.271 OA
ATOM      3  N   UNL     1      34.142 -16.132 -23.859  0.00  0.00    -0.251 N 
ATOM      4  C   UNL     1      34.437 -17.666 -21.950  0.00  0.00    +0.201 C 
ATOM      5  C   UNL     1      33.545 -15.231 -22.933  0.00  0.00    +0.088 C 
ATOM      6  C   UNL     1      34.483 -17.425 -23.467  0.00  0.00    +0.266 C 
ATOM      7  C   UNL     1      33.190 -15.694 -21.664  0.00  0.00    +0.152 C 
ATOM      8  C   UNL     1      34.189 -19.159 -21.685  0.00  0.00    +0.053 C 
ATOM      9  C   UNL     1      35.797 -17.278 -21.345  0.00  0.00    +0.053 C 
ATOM     10  C   UNL     1      33.256 -13.898 -23.260  0.00  0.00    +0.015 C 
ATOM     11  C   UNL     1      32.626 -13.056 -22.338  0.00  0.00    -0.007 C 
ATOM     12  C   UNL     1      32.544 -14.859 -20.748  0.00  0.00    +0.038 C 
ATOM     13  C   UNL     1      32.268 -13.537 -21.083  0.00  0.00    -0.000 C 
ENDROOT
BRANCH  11  18
ATOM     14  N   UNL     1      32.906  -9.710 -23.960  0.00  0.00    -0.337 NA
ATOM     15  N   UNL     1      31.037  -9.677 -22.441  0.00  0.00    -0.317 NA
ATOM     16  N   UNL     1      30.476 -11.599 -21.182  0.00  0.00    -0.335 N 
ATOM     17  N   UNL     1      31.603  -7.778 -23.696  0.00  0.00    -0.283 N 
ATOM     18  C   UNL     1      32.353 -11.679 -22.687  0.00  0.00    +0.138 C 
ATOM     19  C   UNL     1      33.125 -10.993 -23.605  0.00  0.00    +0.112 C 
ATOM     20  C   UNL     1      31.311 -10.962 -22.133  0.00  0.00    +0.178 C 
ATOM     21  C   UNL     1      31.861  -9.121 -23.348  0.00  0.00    +0.196 C 
ATOM     22  H   UNL     1      29.728 -11.105 -20.774  0.00  0.00    +0.144 HD
ATOM     23  H   UNL     1      30.642 -12.535 -20.929  0.00  0.00    +0.144 HD
ATOM     24  H   UNL     1      32.175  -7.321 -24.355  0.00  0.00    +0.156 HD
ATOM     25  H   UNL     1      30.851  -7.297 -23.279  0.00  0.00    +0.156 HD
BRANCH  19  26
ATOM     26  C   UNL     1      34.283 -11.654 -24.280  0.00  0.00    +0.056 C 
ATOM     27  C   UNL     1      34.919 -10.761 -25.340  0.00  0.00    +0.008 C 
ENDBRANCH  19  26
ENDBRANCH  11  18
BRANCH   3  28
ATOM     28  C   UNL     1      34.342 -15.717 -25.243  0.00  0.00    +0.120 C 
BRANCH  28  29
ATOM     29  C   UNL     1      33.077 -15.864 -26.073  0.00  0.00    +0.111 C 
BRANCH  29  31
ATOM     30  O   UNL     1      34.141 -13.804 -27.819  0.00  0.00    -0.275 OA
ATOM     31  N   UNL     1      32.486 -14.591 -26.383  0.00  0.00    -0.303 N 
ATOM     32  C   UNL     1      33.070 -13.663 -27.235  0.00  0.00    +0.223 C 
ATOM     33  C   UNL     1      32.228 -12.427 -27.404  0.00  0.00    +0.095 C 
ATOM     34  H   UNL     1      31.620 -14.365 -25.971  0.00  0.00    +0.149 HD
ENDBRANCH  29  31
ENDBRANCH  28  29
ENDBRANCH   3  28
TORSDOF 5
ENDMDL
MODEL 5
REMARK VINA RESULT:      -8.8      2.540      7.134
REMARK  Name = 6914627
REMARK  5 active torsions:
REMARK  status: ('A' for Active; 'I' for Inactive)
REMARK    1  A    between atoms: N_3  and  C_28
REMARK    2  A    between atoms: C_11  and  C_18
REMARK    3  A    between atoms: C_19  and  C_26
REMARK    4  A    between atoms: C_28  and  C_29
REMARK    5  A    between atoms: C_29  and  N_31
REMARK                            x       y       z     vdW  Elec       q    Type
REMARK                         _______ _______ _______ _____ _____    ______ ____
ROOT
ATOM      1  O   UNL     1      38.321 -23.759 -14.462  0.00  0.00    -0.473 OA
ATOM      2  O   UNL     1      36.132 -25.629 -12.334  0.00  0.00    -0.271 OA
ATOM      3  N   UNL     1      35.588 -24.494 -14.285  0.00  0.00    -0.251 N 
ATOM      4  C   UNL     1      37.956 -24.940 -13.760  0.00  0.00    +0.201 C 
ATOM      5  C   UNL     1      36.065 -23.688 -15.356  0.00  0.00    +0.088 C 
ATOM      6  C   UNL     1      36.476 -25.036 -13.358  0.00  0.00    +0.266 C 
ATOM      7  C   UNL     1      37.417 -23.344 -15.399  0.00  0.00    +0.152 C 
ATOM      8  C   UNL     1      38.823 -24.948 -12.492  0.00  0.00    +0.053 C 
ATOM      9  C   UNL     1      38.320 -26.167 -14.613  0.00  0.00    +0.053 C 
ATOM     10  C   UNL     1      35.217 -23.185 -16.355  0.00  0.00    +0.015 C 
ATOM     11  C   UNL     1      35.716 -22.358 -17.365  0.00  0.00    -0.007 C 
ATOM     12  C   UNL     1      37.914 -22.502 -16.398  0.00  0.00    +0.038 C 
ATOM     13  C   UNL     1      37.064 -22.014 -17.386  0.00  0.00    -0.000 C 
ENDROOT
BRANCH  11  18
ATOM     14  N   UNL     1      34.494 -20.570 -20.400  0.00  0.00    -0.337 NA
ATOM     15  N   UNL     1      32.637 -21.717 -19.380  0.00  0.00    -0.317 NA
ATOM     16  N   UNL     1      32.945 -22.993 -17.414  0.00  0.00    -0.335 N 
ATOM     17  N   UNL     1      32.344 -20.448 -21.332  0.00  0.00    -0.283 N 
ATOM     18  C   UNL     1      34.830 -21.864 -18.397  0.00  0.00    +0.138 C 
ATOM     19  C   UNL     1      35.283 -21.052 -19.419  0.00  0.00    +0.112 C 
ATOM     20  C   UNL     1      33.483 -22.166 -18.431  0.00  0.00    +0.178 C 
ATOM     21  C   UNL     1      33.200 -20.935 -20.321  0.00  0.00    +0.196 C 
ATOM     22  H   UNL     1      31.987 -23.220 -17.419  0.00  0.00    +0.144 HD
ATOM     23  H   UNL     1      33.528 -23.342 -16.702  0.00  0.00    +0.144 HD
ATOM     24  H   UNL     1      32.703 -19.871 -22.045  0.00  0.00    +0.156 HD
ATOM     25  H   UNL     1      31.388 -20.683 -21.323  0.00  0.00    +0.156 HD
BRANCH  19  26
ATOM     26  C   UNL     1      36.721 -20.651 -19.500  0.00  0.00    +0.056 C 
ATOM     27  C   UNL     1      36.959 -19.567 -20.547  0.00  0.00    +0.008 C 
ENDBRANCH  19  26
ENDBRANCH  11  18
BRANCH   3  28
ATOM     28  C   UNL     1      34.153 -24.702 -14.122  0.00  0.00    +0.120 C 
BRANCH  28  29
ATOM     29  C   UNL     1      33.497 -23.582 -13.332  0.00  0.00    +0.111 C 
BRANCH  29  31
ATOM     30  O   UNL     1      30.759 -24.515 -13.089  0.00  0.00    -0.275 OA
ATOM     31  N   UNL     1      32.335 -23.061 -13.999  0.00  0.00    -0.303 N 
ATOM     32  C   UNL     1      31.057 -23.574 -13.821  0.00  0.00    +0.223 C 
ATOM     33  C   UNL     1      30.021 -22.828 -14.618  0.00  0.00    +0.095 C 
ATOM     34  H   UNL     1      32.451 -22.301 -14.615  0.00  0.00    +0.149 HD
ENDBRANCH  29  31
ENDBRANCH  28  29
ENDBRANCH   3  28
TORSDOF 5
ENDMDL
MODEL 6
REMARK VINA RESULT:      -8.7      2.776      7.127
REMARK  Name = 6914627
REMARK  5 active torsions:
REMARK  status: ('A' for Active; 'I' for Inactive)
REMARK    1  A    between atoms: N_3  and  C_28
REMARK    2  A    between atoms: C_11  and  C_18
REMARK    3  A    between atoms: C_19  and  C_26
REMARK    4  A    between atoms: C_28  and  C_29
REMARK    5  A    between atoms: C_29  and  N_31
REMARK                            x       y       z     vdW  Elec       q    Type
REMARK                         _______ _______ _______ _____ _____    ______ ____
ROOT
ATOM      1  O   UNL     1      38.028 -23.906 -14.018  0.00  0.00    -0.473 OA
ATOM      2  O   UNL     1      35.577 -24.897 -11.603  0.00  0.00    -0.271 OA
ATOM      3  N   UNL     1      35.210 -23.983 -13.706  0.00  0.00    -0.251 N 
ATOM      4  C   UNL     1      37.446 -24.855 -13.134  0.00  0.00    +0.201 C 
ATOM      5  C   UNL     1      35.805 -23.477 -14.896  0.00  0.00    +0.088 C 
ATOM      6  C   UNL     1      35.999 -24.559 -12.711  0.00  0.00    +0.266 C 
ATOM      7  C   UNL     1      37.197 -23.450 -15.002  0.00  0.00    +0.152 C 
ATOM      8  C   UNL     1      38.343 -24.859 -11.887  0.00  0.00    +0.053 C 
ATOM      9  C   UNL     1      37.499 -26.248 -13.783  0.00  0.00    +0.053 C 
ATOM     10  C   UNL     1      35.045 -22.959 -15.955  0.00  0.00    +0.015 C 
ATOM     11  C   UNL     1      35.669 -22.427 -17.088  0.00  0.00    -0.007 C 
ATOM     12  C   UNL     1      37.822 -22.903 -16.126  0.00  0.00    +0.038 C 
ATOM     13  C   UNL     1      37.057 -22.397 -17.173  0.00  0.00    -0.000 C 
ENDROOT
BRANCH  11  18
ATOM     14  N   UNL     1      32.764 -21.827 -19.347  0.00  0.00    -0.337 NA
ATOM     15  N   UNL     1      34.640 -20.541 -20.144  0.00  0.00    -0.317 NA
ATOM     16  N   UNL     1      36.715 -20.613 -19.011  0.00  0.00    -0.335 N 
ATOM     17  N   UNL     1      32.576 -20.479 -21.258  0.00  0.00    -0.283 N 
ATOM     18  C   UNL     1      34.868 -21.914 -18.179  0.00  0.00    +0.138 C 
ATOM     19  C   UNL     1      33.547 -22.280 -18.347  0.00  0.00    +0.112 C 
ATOM     20  C   UNL     1      35.365 -21.033 -19.118  0.00  0.00    +0.178 C 
ATOM     21  C   UNL     1      33.366 -20.973 -20.198  0.00  0.00    +0.196 C 
ATOM     22  H   UNL     1      37.089 -19.985 -19.671  0.00  0.00    +0.144 HD
ATOM     23  H   UNL     1      37.278 -20.948 -18.277  0.00  0.00    +0.144 HD
ATOM     24  H   UNL     1      31.637 -20.761 -21.346  0.00  0.00    +0.156 HD
ATOM     25  H   UNL     1      32.965 -19.852 -21.910  0.00  0.00    +0.156 HD
BRANCH  19  26
ATOM     26  C   UNL     1      32.887 -23.228 -17.398  0.00  0.00    +0.056 C 
ATOM     27  C   UNL     1      31.565 -22.683 -16.866  0.00  0.00    +0.008 C 
ENDBRANCH  19  26
ENDBRANCH  11  18
BRANCH   3  28
ATOM     28  C   UNL     1      33.773 -23.842 -13.502  0.00  0.00    +0.120 C 
BRANCH  28  29
ATOM     29  C   UNL     1      33.052 -25.179 -13.555  0.00  0.00    +0.111 C 
BRANCH  29  31
ATOM     30  O   UNL     1      30.444 -24.395 -12.552  0.00  0.00    -0.275 OA
ATOM     31  N   UNL     1      31.821 -25.098 -14.293  0.00  0.00    -0.303 N 
ATOM     32  C   UNL     1      30.614 -24.711 -13.726  0.00  0.00    +0.223 C 
ATOM     33  C   UNL     1      29.490 -24.688 -14.727  0.00  0.00    +0.095 C 
ATOM     34  H   UNL     1      31.834 -25.329 -15.250  0.00  0.00    +0.149 HD
ENDBRANCH  29  31
ENDBRANCH  28  29
ENDBRANCH   3  28
TORSDOF 5
ENDMDL
MODEL 7
REMARK VINA RESULT:      -8.3     11.033     14.950
REMARK  Name = 6914627
REMARK  5 active torsions:
REMARK  status: ('A' for Active; 'I' for Inactive)
REMARK    1  A    between atoms: N_3  and  C_28
REMARK    2  A    between atoms: C_11  and  C_18
REMARK    3  A    between atoms: C_19  and  C_26
REMARK    4  A    between atoms: C_28  and  C_29
REMARK    5  A    between atoms: C_29  and  N_31
REMARK                            x       y       z     vdW  Elec       q    Type
REMARK                         _______ _______ _______ _____ _____    ______ ____
ROOT
ATOM      1  O   UNL     1      31.705  -9.520 -21.918  0.00  0.00    -0.473 OA
ATOM      2  O   UNL     1      34.132  -7.240 -23.234  0.00  0.00    -0.271 OA
ATOM      3  N   UNL     1      34.025  -9.538 -23.549  0.00  0.00    -0.251 N 
ATOM      4  C   UNL     1      32.070  -8.346 -22.632  0.00  0.00    +0.201 C 
ATOM      5  C   UNL     1      33.323 -10.741 -23.254  0.00  0.00    +0.088 C 
ATOM      6  C   UNL     1      33.521  -8.306 -23.135  0.00  0.00    +0.266 C 
ATOM      7  C   UNL     1      32.190 -10.685 -22.439  0.00  0.00    +0.152 C 
ATOM      8  C   UNL     1      31.846  -7.184 -21.653  0.00  0.00    +0.053 C 
ATOM      9  C   UNL     1      31.124  -8.169 -23.831  0.00  0.00    +0.053 C 
ATOM     10  C   UNL     1      33.752 -11.995 -23.715  0.00  0.00    +0.015 C 
ATOM     11  C   UNL     1      33.061 -13.159 -23.365  0.00  0.00    -0.007 C 
ATOM     12  C   UNL     1      31.509 -11.850 -22.074  0.00  0.00    +0.038 C 
ATOM     13  C   UNL     1      31.941 -13.087 -22.542  0.00  0.00    -0.000 C 
ENDROOT
BRANCH  11  18
ATOM     14  N   UNL     1      34.716 -16.496 -23.524  0.00  0.00    -0.337 NA
ATOM     15  N   UNL     1      33.602 -16.087 -25.620  0.00  0.00    -0.317 NA
ATOM     16  N   UNL     1      32.409 -14.076 -25.976  0.00  0.00    -0.335 N 
ATOM     17  N   UNL     1      34.788 -18.078 -25.255  0.00  0.00    -0.283 N 
ATOM     18  C   UNL     1      33.507 -14.441 -23.865  0.00  0.00    +0.138 C 
ATOM     19  C   UNL     1      34.278 -15.293 -23.099  0.00  0.00    +0.112 C 
ATOM     20  C   UNL     1      33.197 -14.897 -25.131  0.00  0.00    +0.178 C 
ATOM     21  C   UNL     1      34.347 -16.825 -24.776  0.00  0.00    +0.196 C 
ATOM     22  H   UNL     1      32.177 -14.382 -26.883  0.00  0.00    +0.144 HD
ATOM     23  H   UNL     1      32.094 -13.200 -25.658  0.00  0.00    +0.144 HD
ATOM     24  H   UNL     1      35.336 -18.660 -24.679  0.00  0.00    +0.156 HD
ATOM     25  H   UNL     1      34.547 -18.370 -26.164  0.00  0.00    +0.156 HD
BRANCH  19  26
ATOM     26  C   UNL     1      34.684 -14.920 -21.709  0.00  0.00    +0.056 C 
ATOM     27  C   UNL     1      34.708 -16.125 -20.773  0.00  0.00    +0.008 C 
ENDBRANCH  19  26
ENDBRANCH  11  18
BRANCH   3  28
ATOM     28  C   UNL     1      35.311  -9.604 -24.235  0.00  0.00    +0.120 C 
BRANCH  28  29
ATOM     29  C   UNL     1      35.183  -9.311 -25.721  0.00  0.00    +0.111 C 
BRANCH  29  31
ATOM     30  O   UNL     1      33.645 -11.615 -26.586  0.00  0.00    -0.275 OA
ATOM     31  N   UNL     1      35.637 -10.411 -26.528  0.00  0.00    -0.303 N 
ATOM     32  C   UNL     1      34.825 -11.476 -26.894  0.00  0.00    +0.223 C 
ATOM     33  C   UNL     1      35.545 -12.476 -27.760  0.00  0.00    +0.095 C 
ATOM     34  H   UNL     1      36.572 -10.409 -26.836  0.00  0.00    +0.149 HD
ENDBRANCH  29  31
ENDBRANCH  28  29
ENDBRANCH   3  28
TORSDOF 5
ENDMDL
MODEL 8
REMARK VINA RESULT:      -8.3      6.951     11.064
REMARK  Name = 6914627
REMARK  5 active torsions:
REMARK  status: ('A' for Active; 'I' for Inactive)
REMARK    1  A    between atoms: N_3  and  C_28
REMARK    2  A    between atoms: C_11  and  C_18
REMARK    3  A    between atoms: C_19  and  C_26
REMARK    4  A    between atoms: C_28  and  C_29
REMARK    5  A    between atoms: C_29  and  N_31
REMARK                            x       y       z     vdW  Elec       q    Type
REMARK                         _______ _______ _______ _____ _____    ______ ____
ROOT
ATOM      1  O   UNL     1      33.315 -16.098 -25.973  0.00  0.00    -0.473 OA
ATOM      2  O   UNL     1      32.778 -12.892 -24.471  0.00  0.00    -0.271 OA
ATOM      3  N   UNL     1      33.693 -14.786 -23.487  0.00  0.00    -0.251 N 
ATOM      4  C   UNL     1      33.461 -14.684 -25.941  0.00  0.00    +0.201 C 
ATOM      5  C   UNL     1      34.063 -16.149 -23.664  0.00  0.00    +0.088 C 
ATOM      6  C   UNL     1      33.240 -14.030 -24.568  0.00  0.00    +0.266 C 
ATOM      7  C   UNL     1      33.851 -16.756 -24.903  0.00  0.00    +0.152 C 
ATOM      8  C   UNL     1      32.418 -14.141 -26.929  0.00  0.00    +0.053 C 
ATOM      9  C   UNL     1      34.863 -14.309 -26.450  0.00  0.00    +0.053 C 
ATOM     10  C   UNL     1      34.595 -16.924 -22.624  0.00  0.00    +0.015 C 
ATOM     11  C   UNL     1      34.904 -18.274 -22.824  0.00  0.00    -0.007 C 
ATOM     12  C   UNL     1      34.142 -18.110 -25.100  0.00  0.00    +0.038 C 
ATOM     13  C   UNL     1      34.674 -18.867 -24.061  0.00  0.00    -0.000 C 
ENDROOT
BRANCH  11  18
ATOM     14  N   UNL     1      35.159 -20.525 -19.863  0.00  0.00    -0.337 NA
ATOM     15  N   UNL     1      37.378 -19.836 -20.502  0.00  0.00    -0.317 NA
ATOM     16  N   UNL     1      37.704 -18.391 -22.346  0.00  0.00    -0.335 N 
ATOM     17  N   UNL     1      37.041 -21.269 -18.675  0.00  0.00    -0.283 N 
ATOM     18  C   UNL     1      35.469 -19.053 -21.744  0.00  0.00    +0.138 C 
ATOM     19  C   UNL     1      34.676 -19.785 -20.882  0.00  0.00    +0.112 C 
ATOM     20  C   UNL     1      36.827 -19.118 -21.502  0.00  0.00    +0.178 C 
ATOM     21  C   UNL     1      36.499 -20.506 -19.732  0.00  0.00    +0.196 C 
ATOM     22  H   UNL     1      38.676 -18.424 -22.190  0.00  0.00    +0.144 HD
ATOM     23  H   UNL     1      37.343 -17.855 -23.087  0.00  0.00    +0.144 HD
ATOM     24  H   UNL     1      36.444 -21.779 -18.080  0.00  0.00    +0.156 HD
ATOM     25  H   UNL     1      38.014 -21.291 -18.533  0.00  0.00    +0.156 HD
BRANCH  19  26
ATOM     26  C   UNL     1      33.189 -19.801 -21.034  0.00  0.00    +0.056 C 
ATOM     27  C   UNL     1      32.500 -20.537 -19.888  0.00  0.00    +0.008 C 
ENDBRANCH  19  26
ENDBRANCH  11  18
BRANCH   3  28
ATOM     28  C   UNL     1      33.730 -14.195 -22.154  0.00  0.00    +0.120 C 
BRANCH  28  29
ATOM     29  C   UNL     1      32.367 -14.211 -21.482  0.00  0.00    +0.111 C 
BRANCH  29  31
ATOM     30  O   UNL     1      31.094 -11.621 -21.787  0.00  0.00    -0.275 OA
ATOM     31  N   UNL     1      32.243 -13.177 -20.492  0.00  0.00    -0.303 N 
ATOM     32  C   UNL     1      31.613 -11.962 -20.729  0.00  0.00    +0.223 C 
ATOM     33  C   UNL     1      31.602 -11.073 -19.514  0.00  0.00    +0.095 C 
ATOM     34  H   UNL     1      32.623 -13.339 -19.598  0.00  0.00    +0.149 HD
ENDBRANCH  29  31
ENDBRANCH  28  29
ENDBRANCH   3  28
TORSDOF 5
ENDMDL
