MODEL 1
REMARK VINA RESULT:      -7.4      0.000      0.000
REMARK  Name = 5288483
REMARK  5 active torsions:
REMARK  status: ('A' for Active; 'I' for Inactive)
REMARK    1  A    between atoms: C_5  and  C_16
REMARK    2  A    between atoms: C_6  and  O_10
REMARK    3  A    between atoms: C_7  and  O_12
REMARK    4  A    between atoms: C_8  and  O_14
REMARK    5  A    between atoms: C_16  and  O_17
REMARK                            x       y       z     vdW  Elec       q    Type
REMARK                         _______ _______ _______ _____ _____    ______ ____
ROOT
ATOM      1  N   UNL     1      38.439 -25.019 -13.828  0.00  0.00    -0.212 N 
ATOM      2  N   UNL     1      39.754 -24.892 -13.606  0.00  0.00    -0.043 NA
ATOM      3  N   UNL     1      39.329 -26.819 -14.651  0.00  0.00    -0.110 NA
ATOM      4  N   UNL     1      40.291 -26.004 -14.094  0.00  0.00    -0.023 NA
ATOM      5  C   UNL     1      37.470 -23.981 -13.505  0.00  0.00    +0.167 C 
ATOM      6  C   UNL     1      36.027 -24.532 -13.624  0.00  0.00    +0.165 C 
ATOM      7  C   UNL     1      35.870 -25.366 -14.908  0.00  0.00    +0.173 C 
ATOM      8  C   UNL     1      36.819 -26.574 -14.918  0.00  0.00    +0.200 C 
ATOM      9  C   UNL     1      38.186 -26.184 -14.499  0.00  0.00    +0.190 A 
ENDROOT
BRANCH   6  10
ATOM     10  O   UNL     1      35.707 -25.359 -12.504  0.00  0.00    -0.380 OA
ATOM     11  H   UNL     1      35.163 -26.107 -12.798  0.00  0.00    +0.211 HD
ENDBRANCH   6  10
BRANCH   7  12
ATOM     12  O   UNL     1      34.531 -25.844 -15.012  0.00  0.00    -0.379 OA
ATOM     13  H   UNL     1      34.104 -25.446 -15.786  0.00  0.00    +0.211 HD
ENDBRANCH   7  12
BRANCH   8  14
ATOM     14  O   UNL     1      36.920 -27.085 -16.243  0.00  0.00    -0.375 OA
ATOM     15  H   UNL     1      36.875 -26.353 -16.877  0.00  0.00    +0.211 HD
ENDBRANCH   8  14
BRANCH   5  16
ATOM     16  C   UNL     1      37.736 -23.339 -12.142  0.00  0.00    +0.164 C 
BRANCH  16  17
ATOM     17  O   UNL     1      37.962 -24.369 -11.200  0.00  0.00    -0.380 OA
ATOM     18  H   UNL     1      37.797 -24.031 -10.305  0.00  0.00    +0.211 HD
ENDBRANCH  16  17
ENDBRANCH   5  16
TORSDOF 5
ENDMDL
MODEL 2
REMARK VINA RESULT:      -7.3      2.354      3.485
REMARK  Name = 5288483
REMARK  5 active torsions:
REMARK  status: ('A' for Active; 'I' for Inactive)
REMARK    1  A    between atoms: C_5  and  C_16
REMARK    2  A    between atoms: C_6  and  O_10
REMARK    3  A    between atoms: C_7  and  O_12
REMARK    4  A    between atoms: C_8  and  O_14
REMARK    5  A    between atoms: C_16  and  O_17
REMARK                            x       y       z     vdW  Elec       q    Type
REMARK                         _______ _______ _______ _____ _____    ______ ____
ROOT
ATOM      1  N   UNL     1      36.971 -23.883 -12.828  0.00  0.00    -0.212 N 
ATOM      2  N   UNL     1      36.566 -22.817 -12.124  0.00  0.00    -0.043 NA
ATOM      3  N   UNL     1      38.701 -23.282 -11.663  0.00  0.00    -0.110 NA
ATOM      4  N   UNL     1      37.622 -22.466 -11.400  0.00  0.00    -0.023 NA
ATOM      5  C   UNL     1      36.136 -24.555 -13.814  0.00  0.00    +0.167 C 
ATOM      6  C   UNL     1      36.779 -25.896 -14.246  0.00  0.00    +0.165 C 
ATOM      7  C   UNL     1      38.286 -25.714 -14.501  0.00  0.00    +0.173 C 
ATOM      8  C   UNL     1      39.022 -25.244 -13.238  0.00  0.00    +0.200 C 
ATOM      9  C   UNL     1      38.289 -24.144 -12.570  0.00  0.00    +0.190 A 
ENDROOT
BRANCH   6  10
ATOM     10  O   UNL     1      36.607 -26.889 -13.234  0.00  0.00    -0.380 OA
ATOM     11  H   UNL     1      36.529 -26.459 -12.368  0.00  0.00    +0.211 HD
ENDBRANCH   6  10
BRANCH   7  12
ATOM     12  O   UNL     1      38.857 -26.953 -14.920  0.00  0.00    -0.379 OA
ATOM     13  H   UNL     1      38.514 -27.187 -15.796  0.00  0.00    +0.211 HD
ENDBRANCH   7  12
BRANCH   8  14
ATOM     14  O   UNL     1      40.302 -24.732 -13.598  0.00  0.00    -0.375 OA
ATOM     15  H   UNL     1      40.665 -24.221 -12.858  0.00  0.00    +0.211 HD
ENDBRANCH   8  14
BRANCH   5  16
ATOM     16  C   UNL     1      34.694 -24.731 -13.333  0.00  0.00    +0.164 C 
BRANCH  16  17
ATOM     17  O   UNL     1      34.717 -25.019 -11.949  0.00  0.00    -0.380 OA
ATOM     18  H   UNL     1      33.987 -25.621 -11.732  0.00  0.00    +0.211 HD
ENDBRANCH  16  17
ENDBRANCH   5  16
TORSDOF 5
ENDMDL
MODEL 3
REMARK VINA RESULT:      -7.3      2.498      3.951
REMARK  Name = 5288483
REMARK  5 active torsions:
REMARK  status: ('A' for Active; 'I' for Inactive)
REMARK    1  A    between atoms: C_5  and  C_16
REMARK    2  A    between atoms: C_6  and  O_10
REMARK    3  A    between atoms: C_7  and  O_12
REMARK    4  A    between atoms: C_8  and  O_14
REMARK    5  A    between atoms: C_16  and  O_17
REMARK                            x       y       z     vdW  Elec       q    Type
REMARK                         _______ _______ _______ _____ _____    ______ ____
ROOT
ATOM      1  N   UNL     1      36.556 -24.103 -14.570  0.00  0.00    -0.212 N 
ATOM      2  N   UNL     1      36.740 -23.645 -15.816  0.00  0.00    -0.043 NA
ATOM      3  N   UNL     1      34.575 -23.566 -15.275  0.00  0.00    -0.110 NA
ATOM      4  N   UNL     1      35.523 -23.337 -16.249  0.00  0.00    -0.023 NA
ATOM      5  C   UNL     1      37.650 -24.494 -13.692  0.00  0.00    +0.167 C 
ATOM      6  C   UNL     1      37.105 -25.227 -12.441  0.00  0.00    +0.165 C 
ATOM      7  C   UNL     1      35.881 -24.487 -11.872  0.00  0.00    +0.173 C 
ATOM      8  C   UNL     1      34.736 -24.418 -12.892  0.00  0.00    +0.200 C 
ATOM      9  C   UNL     1      35.234 -24.020 -14.230  0.00  0.00    +0.190 A 
ENDROOT
BRANCH   6  10
ATOM     10  O   UNL     1      36.716 -26.563 -12.766  0.00  0.00    -0.380 OA
ATOM     11  H   UNL     1      35.841 -26.747 -12.388  0.00  0.00    +0.211 HD
ENDBRANCH   6  10
BRANCH   7  12
ATOM     12  O   UNL     1      35.408 -25.162 -10.708  0.00  0.00    -0.379 OA
ATOM     13  H   UNL     1      35.327 -24.530  -9.978  0.00  0.00    +0.211 HD
ENDBRANCH   7  12
BRANCH   8  14
ATOM     14  O   UNL     1      33.798 -23.426 -12.485  0.00  0.00    -0.375 OA
ATOM     15  H   UNL     1      33.410 -23.008 -13.269  0.00  0.00    +0.211 HD
ENDBRANCH   8  14
BRANCH   5  16
ATOM     16  C   UNL     1      38.719 -25.309 -14.422  0.00  0.00    +0.164 C 
BRANCH  16  17
ATOM     17  O   UNL     1      38.076 -26.162 -15.349  0.00  0.00    -0.380 OA
ATOM     18  H   UNL     1      38.627 -26.947 -15.502  0.00  0.00    +0.211 HD
ENDBRANCH  16  17
ENDBRANCH   5  16
TORSDOF 5
ENDMDL
MODEL 4
REMARK VINA RESULT:      -7.2      2.059      3.469
REMARK  Name = 5288483
REMARK  5 active torsions:
REMARK  status: ('A' for Active; 'I' for Inactive)
REMARK    1  A    between atoms: C_5  and  C_16
REMARK    2  A    between atoms: C_6  and  O_10
REMARK    3  A    between atoms: C_7  and  O_12
REMARK    4  A    between atoms: C_8  and  O_14
REMARK    5  A    between atoms: C_16  and  O_17
REMARK                            x       y       z     vdW  Elec       q    Type
REMARK                         _______ _______ _______ _____ _____    ______ ____
ROOT
ATOM      1  N   UNL     1      37.889 -24.240 -13.016  0.00  0.00    -0.212 N 
ATOM      2  N   UNL     1      39.000 -23.900 -12.348  0.00  0.00    -0.043 NA
ATOM      3  N   UNL     1      37.300 -22.583 -11.743  0.00  0.00    -0.110 NA
ATOM      4  N   UNL     1      38.638 -22.875 -11.585  0.00  0.00    -0.023 NA
ATOM      5  C   UNL     1      37.819 -25.375 -13.926  0.00  0.00    +0.167 C 
ATOM      6  C   UNL     1      36.501 -25.337 -14.738  0.00  0.00    +0.165 C 
ATOM      7  C   UNL     1      35.310 -25.004 -13.821  0.00  0.00    +0.173 C 
ATOM      8  C   UNL     1      35.473 -23.629 -13.158  0.00  0.00    +0.200 C 
ATOM      9  C   UNL     1      36.842 -23.455 -12.617  0.00  0.00    +0.190 A 
ENDROOT
BRANCH   6  10
ATOM     10  O   UNL     1      36.569 -24.350 -15.769  0.00  0.00    -0.380 OA
ATOM     11  H   UNL     1      36.626 -23.468 -15.369  0.00  0.00    +0.211 HD
ENDBRANCH   6  10
BRANCH   7  12
ATOM     12  O   UNL     1      34.103 -24.997 -14.582  0.00  0.00    -0.379 OA
ATOM     13  H   UNL     1      34.276 -25.356 -15.466  0.00  0.00    +0.211 HD
ENDBRANCH   7  12
BRANCH   8  14
ATOM     14  O   UNL     1      34.575 -23.525 -12.057  0.00  0.00    -0.375 OA
ATOM     15  H   UNL     1      35.065 -23.250 -11.266  0.00  0.00    +0.211 HD
ENDBRANCH   8  14
BRANCH   5  16
ATOM     16  C   UNL     1      39.053 -25.477 -14.825  0.00  0.00    +0.164 C 
BRANCH  16  17
ATOM     17  O   UNL     1      39.301 -24.204 -15.389  0.00  0.00    -0.380 OA
ATOM     18  H   UNL     1      39.363 -24.285 -16.354  0.00  0.00    +0.211 HD
ENDBRANCH  16  17
ENDBRANCH   5  16
TORSDOF 5
ENDMDL
MODEL 5
REMARK VINA RESULT:      -7.0      2.227      3.604
REMARK  Name = 5288483
REMARK  5 active torsions:
REMARK  status: ('A' for Active; 'I' for Inactive)
REMARK    1  A    between atoms: C_5  and  C_16
REMARK    2  A    between atoms: C_6  and  O_10
REMARK    3  A    between atoms: C_7  and  O_12
REMARK    4  A    between atoms: C_8  and  O_14
REMARK    5  A    between atoms: C_16  and  O_17
REMARK                            x       y       z     vdW  Elec       q    Type
REMARK                         _______ _______ _______ _____ _____    ______ ____
ROOT
ATOM      1  N   UNL     1      36.366 -25.369 -14.746  0.00  0.00    -0.212 N 
ATOM      2  N   UNL     1      35.960 -26.159 -15.750  0.00  0.00    -0.043 NA
ATOM      3  N   UNL     1      37.754 -27.038 -14.751  0.00  0.00    -0.110 NA
ATOM      4  N   UNL     1      36.824 -27.168 -15.760  0.00  0.00    -0.023 NA
ATOM      5  C   UNL     1      35.653 -24.168 -14.336  0.00  0.00    +0.167 C 
ATOM      6  C   UNL     1      36.512 -23.340 -13.348  0.00  0.00    +0.165 C 
ATOM      7  C   UNL     1      37.157 -24.256 -12.293  0.00  0.00    +0.173 C 
ATOM      8  C   UNL     1      38.084 -25.296 -12.937  0.00  0.00    +0.200 C 
ATOM      9  C   UNL     1      37.443 -25.928 -14.115  0.00  0.00    +0.190 A 
ENDROOT
BRANCH   6  10
ATOM     10  O   UNL     1      37.550 -22.643 -14.040  0.00  0.00    -0.380 OA
ATOM     11  H   UNL     1      37.317 -22.564 -14.978  0.00  0.00    +0.211 HD
ENDBRANCH   6  10
BRANCH   7  12
ATOM     12  O   UNL     1      37.923 -23.474 -11.379  0.00  0.00    -0.379 OA
ATOM     13  H   UNL     1      37.330 -22.912 -10.858  0.00  0.00    +0.211 HD
ENDBRANCH   7  12
BRANCH   8  14
ATOM     14  O   UNL     1      38.352 -26.337 -12.002  0.00  0.00    -0.375 OA
ATOM     15  H   UNL     1      39.308 -26.398 -11.852  0.00  0.00    +0.211 HD
ENDBRANCH   8  14
BRANCH   5  16
ATOM     16  C   UNL     1      35.177 -23.337 -15.529  0.00  0.00    +0.164 C 
BRANCH  16  17
ATOM     17  O   UNL     1      36.248 -23.215 -16.444  0.00  0.00    -0.380 OA
ATOM     18  H   UNL     1      36.991 -23.764 -16.147  0.00  0.00    +0.211 HD
ENDBRANCH  16  17
ENDBRANCH   5  16
TORSDOF 5
ENDMDL
MODEL 6
REMARK VINA RESULT:      -7.0      2.699      4.054
REMARK  Name = 5288483
REMARK  5 active torsions:
REMARK  status: ('A' for Active; 'I' for Inactive)
REMARK    1  A    between atoms: C_5  and  C_16
REMARK    2  A    between atoms: C_6  and  O_10
REMARK    3  A    between atoms: C_7  and  O_12
REMARK    4  A    between atoms: C_8  and  O_14
REMARK    5  A    between atoms: C_16  and  O_17
REMARK                            x       y       z     vdW  Elec       q    Type
REMARK                         _______ _______ _______ _____ _____    ______ ____
ROOT
ATOM      1  N   UNL     1      35.490 -24.237 -12.885  0.00  0.00    -0.212 N 
ATOM      2  N   UNL     1      34.681 -24.394 -11.828  0.00  0.00    -0.043 NA
ATOM      3  N   UNL     1      36.666 -25.336 -11.429  0.00  0.00    -0.110 NA
ATOM      4  N   UNL     1      35.400 -25.083 -10.949  0.00  0.00    -0.023 NA
ATOM      5  C   UNL     1      35.121 -23.471 -14.067  0.00  0.00    +0.167 C 
ATOM      6  C   UNL     1      36.145 -23.705 -15.206  0.00  0.00    +0.165 C 
ATOM      7  C   UNL     1      37.583 -23.645 -14.661  0.00  0.00    +0.173 C 
ATOM      8  C   UNL     1      37.832 -24.725 -13.598  0.00  0.00    +0.200 C 
ATOM      9  C   UNL     1      36.716 -24.784 -12.624  0.00  0.00    +0.190 A 
ENDROOT
BRANCH   6  10
ATOM     10  O   UNL     1      35.943 -24.983 -15.813  0.00  0.00    -0.380 OA
ATOM     11  H   UNL     1      35.036 -25.040 -16.153  0.00  0.00    +0.211 HD
ENDBRANCH   6  10
BRANCH   7  12
ATOM     12  O   UNL     1      38.511 -23.840 -15.726  0.00  0.00    -0.379 OA
ATOM     13  H   UNL     1      39.139 -23.102 -15.747  0.00  0.00    +0.211 HD
ENDBRANCH   7  12
BRANCH   8  14
ATOM     14  O   UNL     1      39.009 -24.404 -12.863  0.00  0.00    -0.375 OA
ATOM     15  H   UNL     1      39.451 -25.223 -12.589  0.00  0.00    +0.211 HD
ENDBRANCH   8  14
BRANCH   5  16
ATOM     16  C   UNL     1      33.683 -23.744 -14.513  0.00  0.00    +0.164 C 
BRANCH  16  17
ATOM     17  O   UNL     1      33.368 -25.088 -14.207  0.00  0.00    -0.380 OA
ATOM     18  H   UNL     1      33.806 -25.676 -14.843  0.00  0.00    +0.211 HD
ENDBRANCH  16  17
ENDBRANCH   5  16
TORSDOF 5
ENDMDL
MODEL 7
REMARK VINA RESULT:      -6.9      2.657      3.612
REMARK  Name = 5288483
REMARK  5 active torsions:
REMARK  status: ('A' for Active; 'I' for Inactive)
REMARK    1  A    between atoms: C_5  and  C_16
REMARK    2  A    between atoms: C_6  and  O_10
REMARK    3  A    between atoms: C_7  and  O_12
REMARK    4  A    between atoms: C_8  and  O_14
REMARK    5  A    between atoms: C_16  and  O_17
REMARK                            x       y       z     vdW  Elec       q    Type
REMARK                         _______ _______ _______ _____ _____    ______ ____
ROOT
ATOM      1  N   UNL     1      36.482 -25.017 -12.794  0.00  0.00    -0.212 N 
ATOM      2  N   UNL     1      36.560 -25.532 -11.559  0.00  0.00    -0.043 NA
ATOM      3  N   UNL     1      34.715 -24.290 -11.764  0.00  0.00    -0.110 NA
ATOM      4  N   UNL     1      35.487 -25.069 -10.929  0.00  0.00    -0.023 NA
ATOM      5  C   UNL     1      37.435 -25.326 -13.850  0.00  0.00    +0.167 C 
ATOM      6  C   UNL     1      37.234 -24.374 -15.056  0.00  0.00    +0.165 C 
ATOM      7  C   UNL     1      35.738 -24.222 -15.382  0.00  0.00    +0.173 C 
ATOM      8  C   UNL     1      34.958 -23.627 -14.200  0.00  0.00    +0.200 C 
ATOM      9  C   UNL     1      35.333 -24.285 -12.926  0.00  0.00    +0.190 A 
ENDROOT
BRANCH   6  10
ATOM     10  O   UNL     1      37.771 -23.080 -14.774  0.00  0.00    -0.380 OA
ATOM     11  H   UNL     1      38.625 -23.175 -14.323  0.00  0.00    +0.211 HD
ENDBRANCH   6  10
BRANCH   7  12
ATOM     12  O   UNL     1      35.574 -23.361 -16.507  0.00  0.00    -0.379 OA
ATOM     13  H   UNL     1      34.775 -22.825 -16.391  0.00  0.00    +0.211 HD
ENDBRANCH   7  12
BRANCH   8  14
ATOM     14  O   UNL     1      33.565 -23.853 -14.389  0.00  0.00    -0.375 OA
ATOM     15  H   UNL     1      33.183 -24.220 -13.577  0.00  0.00    +0.211 HD
ENDBRANCH   8  14
BRANCH   5  16
ATOM     16  C   UNL     1      38.880 -25.331 -13.349  0.00  0.00    +0.164 C 
BRANCH  16  17
ATOM     17  O   UNL     1      39.079 -24.182 -12.549  0.00  0.00    -0.380 OA
ATOM     18  H   UNL     1      39.331 -23.434 -13.114  0.00  0.00    +0.211 HD
ENDBRANCH  16  17
ENDBRANCH   5  16
TORSDOF 5
ENDMDL
MODEL 8
REMARK VINA RESULT:      -6.8      2.670      3.548
REMARK  Name = 5288483
REMARK  5 active torsions:
REMARK  status: ('A' for Active; 'I' for Inactive)
REMARK    1  A    between atoms: C_5  and  C_16
REMARK    2  A    between atoms: C_6  and  O_10
REMARK    3  A    between atoms: C_7  and  O_12
REMARK    4  A    between atoms: C_8  and  O_14
REMARK    5  A    between atoms: C_16  and  O_17
REMARK                            x       y       z     vdW  Elec       q    Type
REMARK                         _______ _______ _______ _____ _____    ______ ____
ROOT
ATOM      1  N   UNL     1      35.561 -24.651 -13.054  0.00  0.00    -0.212 N 
ATOM      2  N   UNL     1      34.396 -24.071 -12.734  0.00  0.00    -0.043 NA
ATOM      3  N   UNL     1      34.429 -24.593 -14.906  0.00  0.00    -0.110 NA
ATOM      4  N   UNL     1      33.716 -24.021 -13.874  0.00  0.00    -0.023 NA
ATOM      5  C   UNL     1      36.592 -24.966 -12.076  0.00  0.00    +0.167 C 
ATOM      6  C   UNL     1      37.907 -25.371 -12.786  0.00  0.00    +0.165 C 
ATOM      7  C   UNL     1      37.618 -26.340 -13.947  0.00  0.00    +0.173 C 
ATOM      8  C   UNL     1      36.709 -25.700 -15.006  0.00  0.00    +0.200 C 
ATOM      9  C   UNL     1      35.564 -25.001 -14.376  0.00  0.00    +0.190 A 
ENDROOT
BRANCH   6  10
ATOM     10  O   UNL     1      38.574 -24.221 -13.311  0.00  0.00    -0.380 OA
ATOM     11  H   UNL     1      39.146 -23.838 -12.626  0.00  0.00    +0.211 HD
ENDBRANCH   6  10
BRANCH   7  12
ATOM     12  O   UNL     1      38.842 -26.720 -14.574  0.00  0.00    -0.379 OA
ATOM     13  H   UNL     1      38.650 -27.196 -15.396  0.00  0.00    +0.211 HD
ENDBRANCH   7  12
BRANCH   8  14
ATOM     14  O   UNL     1      36.166 -26.718 -15.842  0.00  0.00    -0.375 OA
ATOM     15  H   UNL     1      35.410 -26.363 -16.333  0.00  0.00    +0.211 HD
ENDBRANCH   8  14
BRANCH   5  16
ATOM     16  C   UNL     1      36.802 -23.835 -11.066  0.00  0.00    +0.164 C 
BRANCH  16  17
ATOM     17  O   UNL     1      36.078 -24.145  -9.891  0.00  0.00    -0.380 OA
ATOM     18  H   UNL     1      36.183 -25.088  -9.686  0.00  0.00    +0.211 HD
ENDBRANCH  16  17
ENDBRANCH   5  16
TORSDOF 5
ENDMDL
MODEL 9
REMARK VINA RESULT:      -6.6     13.765     14.425
REMARK  Name = 5288483
REMARK  5 active torsions:
REMARK  status: ('A' for Active; 'I' for Inactive)
REMARK    1  A    between atoms: C_5  and  C_16
REMARK    2  A    between atoms: C_6  and  O_10
REMARK    3  A    between atoms: C_7  and  O_12
REMARK    4  A    between atoms: C_8  and  O_14
REMARK    5  A    between atoms: C_16  and  O_17
REMARK                            x       y       z     vdW  Elec       q    Type
REMARK                         _______ _______ _______ _____ _____    ______ ____
ROOT
ATOM      1  N   UNL     1      33.579 -15.298 -24.249  0.00  0.00    -0.212 N 
ATOM      2  N   UNL     1      33.135 -14.949 -25.464  0.00  0.00    -0.043 NA
ATOM      3  N   UNL     1      34.600 -16.627 -25.628  0.00  0.00    -0.110 NA
ATOM      4  N   UNL     1      33.777 -15.753 -26.304  0.00  0.00    -0.023 NA
ATOM      5  C   UNL     1      33.079 -14.708 -23.015  0.00  0.00    +0.167 C 
ATOM      6  C   UNL     1      33.973 -15.116 -21.818  0.00  0.00    +0.165 C 
ATOM      7  C   UNL     1      34.305 -16.618 -21.879  0.00  0.00    +0.173 C 
ATOM      8  C   UNL     1      35.072 -16.976 -23.161  0.00  0.00    +0.200 C 
ATOM      9  C   UNL     1      34.449 -16.349 -24.350  0.00  0.00    +0.190 A 
ENDROOT
BRANCH   6  10
ATOM     10  O   UNL     1      35.197 -14.380 -21.826  0.00  0.00    -0.380 OA
ATOM     11  H   UNL     1      35.945 -14.996 -21.870  0.00  0.00    +0.211 HD
ENDBRANCH   6  10
BRANCH   7  12
ATOM     12  O   UNL     1      35.109 -16.980 -20.758  0.00  0.00    -0.379 OA
ATOM     13  H   UNL     1      34.696 -16.651 -19.945  0.00  0.00    +0.211 HD
ENDBRANCH   7  12
BRANCH   8  14
ATOM     14  O   UNL     1      35.025 -18.386 -23.362  0.00  0.00    -0.375 OA
ATOM     15  H   UNL     1      34.750 -18.821 -22.540  0.00  0.00    +0.211 HD
ENDBRANCH   8  14
BRANCH   5  16
ATOM     16  C   UNL     1      32.909 -13.191 -23.123  0.00  0.00    +0.164 C 
BRANCH  16  17
ATOM     17  O   UNL     1      34.070 -12.653 -23.725  0.00  0.00    -0.380 OA
ATOM     18  H   UNL     1      34.853 -13.116 -23.387  0.00  0.00    +0.211 HD
ENDBRANCH  16  17
ENDBRANCH   5  16
TORSDOF 5
ENDMDL
