MODEL 1
REMARK VINA RESULT:     -10.6      0.000      0.000
REMARK  Name = 4369171
REMARK  6 active torsions:
REMARK  status: ('A' for Active; 'I' for Inactive)
REMARK    1  A    between atoms: N_5  and  C_12
REMARK    2  A    between atoms: C_6  and  C_26
REMARK    3  A    between atoms: C_11  and  S_20
REMARK    4  A    between atoms: C_15  and  O_18
REMARK    5  A    between atoms: S_20  and  N_23
REMARK    6  A    between atoms: C_26  and  N_28
REMARK                            x       y       z     vdW  Elec       q    Type
REMARK                         _______ _______ _______ _____ _____    ______ ____
ROOT
ATOM      1  S   UNL     1      32.559 -23.953 -13.840  0.00  0.00    +0.086 S 
ATOM      2  S   UNL     1      35.152 -24.086 -12.363  0.00  0.00    -0.047 S 
ATOM      3  O   UNL     1      32.066 -22.788 -13.133  0.00  0.00    -0.149 OA
ATOM      4  O   UNL     1      32.281 -25.301 -13.386  0.00  0.00    -0.149 OA
ATOM      5  N   UNL     1      32.215 -23.824 -15.510  0.00  0.00    -0.175 N 
ATOM      6  C   UNL     1      33.179 -23.270 -16.451  0.00  0.00    +0.031 C 
ATOM      7  C   UNL     1      34.294 -23.798 -13.788  0.00  0.00    +0.156 C 
ATOM      8  C   UNL     1      35.079 -23.427 -14.840  0.00  0.00    +0.028 C 
ATOM      9  C   UNL     1      34.479 -23.133 -16.101  0.00  0.00    +0.012 C 
ATOM     10  C   UNL     1      36.451 -23.375 -14.477  0.00  0.00    +0.028 C 
ATOM     11  C   UNL     1      36.637 -23.717 -13.151  0.00  0.00    +0.152 C 
ENDROOT
BRANCH   5  12
ATOM     12  C   UNL     1      30.826 -23.880 -15.871  0.00  0.00    +0.076 C 
ATOM     13  C   UNL     1      30.142 -22.711 -16.204  0.00  0.00    +0.053 C 
ATOM     14  C   UNL     1      30.159 -25.106 -15.892  0.00  0.00    +0.017 C 
ATOM     15  C   UNL     1      28.793 -22.766 -16.555  0.00  0.00    +0.140 C 
ATOM     16  C   UNL     1      28.810 -25.162 -16.242  0.00  0.00    +0.004 C 
ATOM     17  C   UNL     1      28.127 -23.992 -16.575  0.00  0.00    +0.037 C 
BRANCH  15  18
ATOM     18  O   UNL     1      28.126 -21.624 -16.877  0.00  0.00    -0.471 OA
ATOM     19  C   UNL     1      26.762 -21.759 -17.273  0.00  0.00    +0.252 C 
ENDBRANCH  15  18
ENDBRANCH   5  12
BRANCH  11  20
ATOM     20  S   UNL     1      38.060 -23.841 -12.127  0.00  0.00    +0.063 S 
ATOM     21  O   UNL     1      38.376 -22.478 -11.715  0.00  0.00    -0.153 OA
ATOM     22  O   UNL     1      37.726 -24.857 -11.137  0.00  0.00    -0.153 OA
BRANCH  20  23
ATOM     23  N   UNL     1      39.371 -24.418 -13.074  0.00  0.00    -0.203 NA
ATOM     24  H   UNL     1      39.716 -25.292 -12.680  0.00  0.00    +0.144 HD
ATOM     25  H   UNL     1      40.120 -23.726 -13.076  0.00  0.00    +0.144 HD
ENDBRANCH  20  23
ENDBRANCH  11  20
BRANCH   6  26
ATOM     26  C   UNL     1      32.730 -22.936 -17.847  0.00  0.00    -0.033 C 
BRANCH  26  28
ATOM     27  O   UNL     1      34.978 -20.869 -20.726  0.00  0.00    -0.358 OA
ATOM     28  N   UNL     1      33.614 -21.957 -18.478  0.00  0.00    +0.394 N 
ATOM     29  C   UNL     1      34.795 -22.616 -19.053  0.00  0.00    -0.044 C 
ATOM     30  C   UNL     1      32.900 -21.204 -19.518  0.00  0.00    -0.044 C 
ATOM     31  C   UNL     1      35.695 -21.576 -19.714  0.00  0.00    +0.119 C 
ATOM     32  C   UNL     1      33.845 -20.198 -20.170  0.00  0.00    +0.119 C 
ATOM     33  H   UNL     1      33.922 -21.306 -17.757  0.00  0.00    -0.079 HD
ENDBRANCH  26  28
ENDBRANCH   6  26
TORSDOF 6
ENDMDL
MODEL 2
REMARK VINA RESULT:      -9.4      2.293      7.093
REMARK  Name = 4369171
REMARK  6 active torsions:
REMARK  status: ('A' for Active; 'I' for Inactive)
REMARK    1  A    between atoms: N_5  and  C_12
REMARK    2  A    between atoms: C_6  and  C_26
REMARK    3  A    between atoms: C_11  and  S_20
REMARK    4  A    between atoms: C_15  and  O_18
REMARK    5  A    between atoms: S_20  and  N_23
REMARK    6  A    between atoms: C_26  and  N_28
REMARK                            x       y       z     vdW  Elec       q    Type
REMARK                         _______ _______ _______ _____ _____    ______ ____
ROOT
ATOM      1  S   UNL     1      32.700 -24.244 -13.982  0.00  0.00    +0.086 S 
ATOM      2  S   UNL     1      29.852 -23.860 -14.796  0.00  0.00    -0.047 S 
ATOM      3  O   UNL     1      32.666 -25.690 -14.069  0.00  0.00    -0.149 OA
ATOM      4  O   UNL     1      32.398 -23.541 -12.751  0.00  0.00    -0.149 OA
ATOM      5  N   UNL     1      34.157 -23.643 -14.647  0.00  0.00    -0.175 N 
ATOM      6  C   UNL     1      34.248 -23.219 -16.037  0.00  0.00    +0.031 C 
ATOM      7  C   UNL     1      31.500 -23.706 -15.126  0.00  0.00    +0.156 C 
ATOM      8  C   UNL     1      31.771 -23.157 -16.345  0.00  0.00    +0.028 C 
ATOM      9  C   UNL     1      33.126 -22.988 -16.759  0.00  0.00    +0.012 C 
ATOM     10  C   UNL     1      30.582 -22.838 -17.052  0.00  0.00    +0.028 C 
ATOM     11  C   UNL     1      29.456 -23.165 -16.320  0.00  0.00    +0.152 C 
ENDROOT
BRANCH   5  12
ATOM     12  C   UNL     1      35.356 -23.966 -13.926  0.00  0.00    +0.076 C 
ATOM     13  C   UNL     1      36.159 -25.028 -14.344  0.00  0.00    +0.053 C 
ATOM     14  C   UNL     1      35.721 -23.217 -12.806  0.00  0.00    +0.017 C 
ATOM     15  C   UNL     1      37.324 -25.340 -13.644  0.00  0.00    +0.140 C 
ATOM     16  C   UNL     1      36.886 -23.530 -12.105  0.00  0.00    +0.004 C 
ATOM     17  C   UNL     1      37.688 -24.591 -12.524  0.00  0.00    +0.037 C 
BRANCH  15  18
ATOM     18  O   UNL     1      38.106 -26.377 -14.051  0.00  0.00    -0.471 OA
ATOM     19  C   UNL     1      39.374 -26.052 -14.617  0.00  0.00    +0.252 C 
ENDBRANCH  15  18
ENDBRANCH   5  12
BRANCH  11  20
ATOM     20  S   UNL     1      27.733 -23.021 -16.633  0.00  0.00    +0.063 S 
ATOM     21  O   UNL     1      27.436 -23.983 -17.690  0.00  0.00    -0.153 OA
ATOM     22  O   UNL     1      27.099 -23.138 -15.326  0.00  0.00    -0.153 OA
BRANCH  20  23
ATOM     23  N   UNL     1      27.414 -21.451 -17.251  0.00  0.00    -0.203 NA
ATOM     24  H   UNL     1      28.135 -20.806 -16.930  0.00  0.00    +0.144 HD
ATOM     25  H   UNL     1      26.502 -21.134 -16.920  0.00  0.00    +0.144 HD
ENDBRANCH  20  23
ENDBRANCH  11  20
BRANCH   6  26
ATOM     26  C   UNL     1      35.603 -22.955 -16.635  0.00  0.00    -0.033 C 
BRANCH  26  28
ATOM     27  O   UNL     1      35.941 -21.140 -20.403  0.00  0.00    -0.358 OA
ATOM     28  N   UNL     1      35.534 -21.969 -17.711  0.00  0.00    +0.394 N 
ATOM     29  C   UNL     1      36.876 -21.666 -18.227  0.00  0.00    -0.044 C 
ATOM     30  C   UNL     1      34.671 -22.447 -18.801  0.00  0.00    -0.044 C 
ATOM     31  C   UNL     1      36.776 -20.645 -19.357  0.00  0.00    +0.119 C 
ATOM     32  C   UNL     1      34.624 -21.408 -19.918  0.00  0.00    +0.119 C 
ATOM     33  H   UNL     1      35.131 -21.115 -17.327  0.00  0.00    -0.079 HD
ENDBRANCH  26  28
ENDBRANCH   6  26
TORSDOF 6
ENDMDL
MODEL 3
REMARK VINA RESULT:      -8.8      2.076      6.930
REMARK  Name = 4369171
REMARK  6 active torsions:
REMARK  status: ('A' for Active; 'I' for Inactive)
REMARK    1  A    between atoms: N_5  and  C_12
REMARK    2  A    between atoms: C_6  and  C_26
REMARK    3  A    between atoms: C_11  and  S_20
REMARK    4  A    between atoms: C_15  and  O_18
REMARK    5  A    between atoms: S_20  and  N_23
REMARK    6  A    between atoms: C_26  and  N_28
REMARK                            x       y       z     vdW  Elec       q    Type
REMARK                         _______ _______ _______ _____ _____    ______ ____
ROOT
ATOM      1  S   UNL     1      32.966 -24.342 -14.188  0.00  0.00    +0.086 S 
ATOM      2  S   UNL     1      30.070 -23.961 -14.813  0.00  0.00    -0.047 S 
ATOM      3  O   UNL     1      32.947 -25.781 -14.364  0.00  0.00    -0.149 OA
ATOM      4  O   UNL     1      32.726 -23.722 -12.901  0.00  0.00    -0.149 OA
ATOM      5  N   UNL     1      34.372 -23.676 -14.898  0.00  0.00    -0.175 N 
ATOM      6  C   UNL     1      34.375 -23.166 -16.262  0.00  0.00    +0.031 C 
ATOM      7  C   UNL     1      31.693 -23.757 -15.226  0.00  0.00    +0.156 C 
ATOM      8  C   UNL     1      31.884 -23.129 -16.422  0.00  0.00    +0.028 C 
ATOM      9  C   UNL     1      33.210 -22.911 -16.903  0.00  0.00    +0.012 C 
ATOM     10  C   UNL     1      30.651 -22.790 -17.039  0.00  0.00    +0.028 C 
ATOM     11  C   UNL     1      29.575 -23.181 -16.265  0.00  0.00    +0.152 C 
ENDROOT
BRANCH   5  12
ATOM     12  C   UNL     1      35.616 -24.020 -14.268  0.00  0.00    +0.076 C 
ATOM     13  C   UNL     1      36.009 -23.373 -13.096  0.00  0.00    +0.053 C 
ATOM     14  C   UNL     1      36.434 -25.003 -14.828  0.00  0.00    +0.017 C 
ATOM     15  C   UNL     1      37.217 -23.708 -12.485  0.00  0.00    +0.140 C 
ATOM     16  C   UNL     1      37.642 -25.338 -14.217  0.00  0.00    +0.004 C 
ATOM     17  C   UNL     1      38.034 -24.691 -13.045  0.00  0.00    +0.037 C 
BRANCH  15  18
ATOM     18  O   UNL     1      37.601 -23.076 -11.342  0.00  0.00    -0.471 OA
ATOM     19  C   UNL     1      36.650 -23.017 -10.281  0.00  0.00    +0.252 C 
ENDBRANCH  15  18
ENDBRANCH   5  12
BRANCH  11  20
ATOM     20  S   UNL     1      27.834 -23.050 -16.469  0.00  0.00    +0.063 S 
ATOM     21  O   UNL     1      27.468 -24.065 -17.450  0.00  0.00    -0.153 OA
ATOM     22  O   UNL     1      27.290 -23.094 -15.117  0.00  0.00    -0.153 OA
BRANCH  20  23
ATOM     23  N   UNL     1      27.474 -21.514 -17.147  0.00  0.00    -0.203 NA
ATOM     24  H   UNL     1      28.160 -21.290 -17.867  0.00  0.00    +0.144 HD
ATOM     25  H   UNL     1      27.504 -20.803 -16.416  0.00  0.00    +0.144 HD
ENDBRANCH  20  23
ENDBRANCH  11  20
BRANCH   6  26
ATOM     26  C   UNL     1      35.689 -22.841 -16.919  0.00  0.00    -0.033 C 
BRANCH  26  28
ATOM     27  O   UNL     1      35.727 -20.901 -20.640  0.00  0.00    -0.358 OA
ATOM     28  N   UNL     1      35.536 -21.820 -17.953  0.00  0.00    +0.394 N 
ATOM     29  C   UNL     1      36.833 -21.500 -18.565  0.00  0.00    -0.044 C 
ATOM     30  C   UNL     1      34.586 -22.261 -18.984  0.00  0.00    -0.044 C 
ATOM     31  C   UNL     1      36.646 -20.441 -19.649  0.00  0.00    +0.119 C 
ATOM     32  C   UNL     1      34.453 -21.184 -20.059  0.00  0.00    +0.119 C 
ATOM     33  H   UNL     1      35.169 -20.979 -17.509  0.00  0.00    -0.079 HD
ENDBRANCH  26  28
ENDBRANCH   6  26
TORSDOF 6
ENDMDL
MODEL 4
REMARK VINA RESULT:      -7.7      3.432      7.732
REMARK  Name = 4369171
REMARK  6 active torsions:
REMARK  status: ('A' for Active; 'I' for Inactive)
REMARK    1  A    between atoms: N_5  and  C_12
REMARK    2  A    between atoms: C_6  and  C_26
REMARK    3  A    between atoms: C_11  and  S_20
REMARK    4  A    between atoms: C_15  and  O_18
REMARK    5  A    between atoms: S_20  and  N_23
REMARK    6  A    between atoms: C_26  and  N_28
REMARK                            x       y       z     vdW  Elec       q    Type
REMARK                         _______ _______ _______ _____ _____    ______ ____
ROOT
ATOM      1  S   UNL     1      36.381 -21.913 -17.479  0.00  0.00    +0.086 S 
ATOM      2  S   UNL     1      36.387 -20.159 -19.896  0.00  0.00    -0.047 S 
ATOM      3  O   UNL     1      36.421 -20.821 -16.526  0.00  0.00    -0.149 OA
ATOM      4  O   UNL     1      37.587 -22.539 -17.982  0.00  0.00    -0.149 OA
ATOM      5  N   UNL     1      35.281 -23.115 -16.958  0.00  0.00    -0.175 N 
ATOM      6  C   UNL     1      33.894 -23.129 -17.401  0.00  0.00    +0.031 C 
ATOM      7  C   UNL     1      35.589 -21.244 -18.880  0.00  0.00    +0.156 C 
ATOM      8  C   UNL     1      34.304 -21.508 -19.255  0.00  0.00    +0.028 C 
ATOM      9  C   UNL     1      33.507 -22.396 -18.470  0.00  0.00    +0.012 C 
ATOM     10  C   UNL     1      33.944 -20.798 -20.430  0.00  0.00    +0.028 C 
ATOM     11  C   UNL     1      34.991 -20.023 -20.893  0.00  0.00    +0.152 C 
ENDROOT
BRANCH   5  12
ATOM     12  C   UNL     1      35.651 -23.833 -15.770  0.00  0.00    +0.076 C 
ATOM     13  C   UNL     1      35.686 -23.177 -14.539  0.00  0.00    +0.053 C 
ATOM     14  C   UNL     1      35.977 -25.188 -15.846  0.00  0.00    +0.017 C 
ATOM     15  C   UNL     1      36.045 -23.874 -13.385  0.00  0.00    +0.140 C 
ATOM     16  C   UNL     1      36.337 -25.885 -14.693  0.00  0.00    +0.004 C 
ATOM     17  C   UNL     1      36.371 -25.229 -13.462  0.00  0.00    +0.037 C 
BRANCH  15  18
ATOM     18  O   UNL     1      36.081 -23.234 -12.185  0.00  0.00    -0.471 OA
ATOM     19  C   UNL     1      37.361 -22.834 -11.699  0.00  0.00    +0.252 C 
ENDBRANCH  15  18
ENDBRANCH   5  12
BRANCH  11  20
ATOM     20  S   UNL     1      35.174 -18.943 -22.267  0.00  0.00    +0.063 S 
ATOM     21  O   UNL     1      34.902 -19.751 -23.451  0.00  0.00    -0.153 OA
ATOM     22  O   UNL     1      34.346 -17.786 -21.951  0.00  0.00    -0.153 OA
BRANCH  20  23
ATOM     23  N   UNL     1      36.811 -18.430 -22.350  0.00  0.00    -0.203 NA
ATOM     24  H   UNL     1      36.853 -17.414 -22.283  0.00  0.00    +0.144 HD
ATOM     25  H   UNL     1      37.217 -18.730 -23.236  0.00  0.00    +0.144 HD
ENDBRANCH  20  23
ENDBRANCH  11  20
BRANCH   6  26
ATOM     26  C   UNL     1      32.914 -24.039 -16.711  0.00  0.00    -0.033 C 
BRANCH  26  28
ATOM     27  O   UNL     1      29.981 -23.149 -13.845  0.00  0.00    -0.358 OA
ATOM     28  N   UNL     1      32.105 -23.317 -15.732  0.00  0.00    +0.394 N 
ATOM     29  C   UNL     1      30.700 -23.257 -16.160  0.00  0.00    -0.044 C 
ATOM     30  C   UNL     1      32.202 -23.947 -14.408  0.00  0.00    -0.044 C 
ATOM     31  C   UNL     1      29.874 -22.509 -15.117  0.00  0.00    +0.119 C 
ATOM     32  C   UNL     1      31.340 -23.183 -13.406  0.00  0.00    +0.119 C 
ATOM     33  H   UNL     1      32.467 -22.366 -15.669  0.00  0.00    -0.079 HD
ENDBRANCH  26  28
ENDBRANCH   6  26
TORSDOF 6
ENDMDL
