MODEL 1
REMARK VINA RESULT:     -12.5      0.000      0.000
REMARK  Name = 5289110
REMARK  6 active torsions:
REMARK  status: ('A' for Active; 'I' for Inactive)
REMARK    1  A    between atoms: C_3  and  C_9
REMARK    2  A    between atoms: C_4  and  C_22
REMARK    3  A    between atoms: N_8  and  C_11
REMARK    4  A    between atoms: C_11  and  C_13
REMARK    5  A    between atoms: N_21  and  C_24
REMARK    6  A    between atoms: C_24  and  C_26
REMARK                            x       y       z     vdW  Elec       q    Type
REMARK                         _______ _______ _______ _____ _____    ______ ____
ROOT
ATOM      1  N   UNL     1      35.026 -16.613 -20.393  0.00  0.00    -0.244 NA
ATOM      2  N   UNL     1      34.280 -14.562 -21.414  0.00  0.00    -0.244 NA
ATOM      3  C   UNL     1      35.072 -17.165 -21.622  0.00  0.00    +0.115 C 
ATOM      4  C   UNL     1      34.357 -15.195 -22.587  0.00  0.00    +0.115 C 
ATOM      5  C   UNL     1      34.742 -16.489 -22.780  0.00  0.00    +0.100 C 
ATOM      6  C   UNL     1      34.626 -15.327 -20.362  0.00  0.00    +0.250 C 
ENDROOT
BRANCH   3   9
ATOM      7  O   UNL     1      35.298 -19.237 -22.697  0.00  0.00    -0.269 OA
ATOM      8  N   UNL     1      36.162 -19.059 -20.553  0.00  0.00    -0.296 N 
ATOM      9  C   UNL     1      35.501 -18.552 -21.678  0.00  0.00    +0.260 C 
ATOM     10  H   UNL     1      36.290 -18.462 -19.780  0.00  0.00    +0.150 HD
BRANCH   8  11
ATOM     11  C   UNL     1      36.669 -20.409 -20.463  0.00  0.00    +0.117 C 
BRANCH  11  13
ATOM     12  F   UNL     1      33.955 -23.418 -16.566  0.00  0.00    -0.205 F 
ATOM     13  C   UNL     1      35.946 -21.212 -19.420  0.00  0.00    -0.003 C 
ATOM     14  C   UNL     1      36.599 -21.558 -18.243  0.00  0.00    -0.005 C 
ATOM     15  C   UNL     1      35.928 -22.304 -17.274  0.00  0.00    +0.005 C 
ATOM     16  C   UNL     1      34.631 -21.603 -19.643  0.00  0.00    -0.000 C 
ATOM     17  C   UNL     1      34.607 -22.700 -17.490  0.00  0.00    +0.136 C 
ATOM     18  C   UNL     1      33.959 -22.349 -18.674  0.00  0.00    +0.029 C 
ATOM     19  C   UNL     1      36.624 -22.677 -16.009  0.00  0.00    +0.033 C 
ENDBRANCH  11  13
ENDBRANCH   8  11
ENDBRANCH   3   9
BRANCH   4  22
ATOM     20  O   UNL     1      33.504 -14.917 -24.753  0.00  0.00    -0.269 OA
ATOM     21  N   UNL     1      34.169 -13.000 -23.630  0.00  0.00    -0.296 N 
ATOM     22  C   UNL     1      33.977 -14.368 -23.761  0.00  0.00    +0.260 C 
ATOM     23  H   UNL     1      34.555 -12.654 -22.793  0.00  0.00    +0.150 HD
BRANCH  21  24
ATOM     24  C   UNL     1      33.826 -12.066 -24.672  0.00  0.00    +0.117 C 
BRANCH  24  26
ATOM     25  F   UNL     1      33.842  -6.743 -22.861  0.00  0.00    -0.205 F 
ATOM     26  C   UNL     1      33.828 -10.654 -24.189  0.00  0.00    -0.003 C 
ATOM     27  C   UNL     1      32.789 -10.191 -23.382  0.00  0.00    -0.005 C 
ATOM     28  C   UNL     1      32.791  -8.870 -22.932  0.00  0.00    +0.005 C 
ATOM     29  C   UNL     1      34.869  -9.796 -24.545  0.00  0.00    -0.000 C 
ATOM     30  C   UNL     1      33.832  -8.014 -23.289  0.00  0.00    +0.136 C 
ATOM     31  C   UNL     1      34.871  -8.477 -24.096  0.00  0.00    +0.029 C 
ATOM     32  C   UNL     1      31.678  -8.379 -22.068  0.00  0.00    +0.033 C 
ENDBRANCH  24  26
ENDBRANCH  21  24
ENDBRANCH   4  22
TORSDOF 6
ENDMDL
MODEL 2
REMARK VINA RESULT:     -12.5      0.046     11.421
REMARK  Name = 5289110
REMARK  6 active torsions:
REMARK  status: ('A' for Active; 'I' for Inactive)
REMARK    1  A    between atoms: C_3  and  C_9
REMARK    2  A    between atoms: C_4  and  C_22
REMARK    3  A    between atoms: N_8  and  C_11
REMARK    4  A    between atoms: C_11  and  C_13
REMARK    5  A    between atoms: N_21  and  C_24
REMARK    6  A    between atoms: C_24  and  C_26
REMARK                            x       y       z     vdW  Elec       q    Type
REMARK                         _______ _______ _______ _____ _____    ______ ____
ROOT
ATOM      1  N   UNL     1      34.272 -14.597 -21.404  0.00  0.00    -0.244 NA
ATOM      2  N   UNL     1      35.003 -16.648 -20.373  0.00  0.00    -0.244 NA
ATOM      3  C   UNL     1      34.336 -15.218 -22.600  0.00  0.00    +0.115 C 
ATOM      4  C   UNL     1      35.035 -17.175 -21.600  0.00  0.00    +0.115 C 
ATOM      5  C   UNL     1      34.719 -16.535 -22.761  0.00  0.00    +0.100 C 
ATOM      6  C   UNL     1      34.614 -15.359 -20.349  0.00  0.00    +0.250 C 
ENDROOT
BRANCH   3   9
ATOM      7  O   UNL     1      33.478 -14.943 -24.765  0.00  0.00    -0.269 OA
ATOM      8  N   UNL     1      34.179 -13.032 -23.655  0.00  0.00    -0.296 N 
ATOM      9  C   UNL     1      33.971 -14.413 -23.752  0.00  0.00    +0.260 C 
ATOM     10  H   UNL     1      34.573 -12.678 -22.826  0.00  0.00    +0.150 HD
BRANCH   8  11
ATOM     11  C   UNL     1      33.846 -12.096 -24.706  0.00  0.00    +0.117 C 
BRANCH  11  13
ATOM     12  F   UNL     1      33.886  -6.778 -22.883  0.00  0.00    -0.205 F 
ATOM     13  C   UNL     1      33.854 -10.677 -24.216  0.00  0.00    -0.003 C 
ATOM     14  C   UNL     1      32.806 -10.213 -23.431  0.00  0.00    -0.005 C 
ATOM     15  C   UNL     1      32.814  -8.894 -22.976  0.00  0.00    +0.005 C 
ATOM     16  C   UNL     1      34.911  -9.839 -24.557  0.00  0.00    -0.000 C 
ATOM     17  C   UNL     1      33.870  -8.047 -23.313  0.00  0.00    +0.136 C 
ATOM     18  C   UNL     1      34.918  -8.520 -24.102  0.00  0.00    +0.029 C 
ATOM     19  C   UNL     1      31.692  -8.392 -22.131  0.00  0.00    +0.033 C 
ENDBRANCH  11  13
ENDBRANCH   8  11
ENDBRANCH   3   9
BRANCH   4  22
ATOM     20  O   UNL     1      35.205 -19.268 -22.646  0.00  0.00    -0.269 OA
ATOM     21  N   UNL     1      36.162 -19.061 -20.543  0.00  0.00    -0.296 N 
ATOM     22  C   UNL     1      35.464 -18.597 -21.649  0.00  0.00    +0.260 C 
ATOM     23  H   UNL     1      36.321 -18.446 -19.791  0.00  0.00    +0.150 HD
BRANCH  21  24
ATOM     24  C   UNL     1      36.664 -20.409 -20.452  0.00  0.00    +0.117 C 
BRANCH  24  26
ATOM     25  F   UNL     1      33.965 -23.434 -16.558  0.00  0.00    -0.205 F 
ATOM     26  C   UNL     1      35.951 -21.211 -19.417  0.00  0.00    -0.003 C 
ATOM     27  C   UNL     1      36.601 -21.561 -18.234  0.00  0.00    -0.005 C 
ATOM     28  C   UNL     1      35.933 -22.312 -17.266  0.00  0.00    +0.005 C 
ATOM     29  C   UNL     1      34.632 -21.612 -19.632  0.00  0.00    -0.000 C 
ATOM     30  C   UNL     1      34.615 -22.712 -17.482  0.00  0.00    +0.136 C 
ATOM     31  C   UNL     1      33.964 -22.363 -18.665  0.00  0.00    +0.029 C 
ATOM     32  C   UNL     1      36.632 -22.683 -16.001  0.00  0.00    +0.033 C 
ENDBRANCH  24  26
ENDBRANCH  21  24
ENDBRANCH   4  22
TORSDOF 6
ENDMDL
MODEL 3
REMARK VINA RESULT:     -12.5      2.172     11.075
REMARK  Name = 5289110
REMARK  6 active torsions:
REMARK  status: ('A' for Active; 'I' for Inactive)
REMARK    1  A    between atoms: C_3  and  C_9
REMARK    2  A    between atoms: C_4  and  C_22
REMARK    3  A    between atoms: N_8  and  C_11
REMARK    4  A    between atoms: C_11  and  C_13
REMARK    5  A    between atoms: N_21  and  C_24
REMARK    6  A    between atoms: C_24  and  C_26
REMARK                            x       y       z     vdW  Elec       q    Type
REMARK                         _______ _______ _______ _____ _____    ______ ____
ROOT
ATOM      1  N   UNL     1      32.622 -13.496 -24.133  0.00  0.00    -0.244 NA
ATOM      2  N   UNL     1      33.762 -15.380 -25.111  0.00  0.00    -0.244 NA
ATOM      3  C   UNL     1      32.865 -14.027 -22.917  0.00  0.00    +0.115 C 
ATOM      4  C   UNL     1      33.954 -15.824 -23.867  0.00  0.00    +0.115 C 
ATOM      5  C   UNL     1      33.542 -15.214 -22.720  0.00  0.00    +0.100 C 
ATOM      6  C   UNL     1      33.091 -14.214 -25.171  0.00  0.00    +0.250 C 
ENDROOT
BRANCH   3   9
ATOM      7  O   UNL     1      32.647 -13.609 -20.620  0.00  0.00    -0.269 OA
ATOM      8  N   UNL     1      31.591 -12.137 -22.066  0.00  0.00    -0.296 N 
ATOM      9  C   UNL     1      32.368 -13.267 -21.783  0.00  0.00    +0.260 C 
ATOM     10  H   UNL     1      31.408 -11.923 -23.009  0.00  0.00    +0.150 HD
BRANCH   8  11
ATOM     11  C   UNL     1      31.043 -11.267 -21.050  0.00  0.00    +0.117 C 
BRANCH  11  13
ATOM     12  F   UNL     1      32.611  -5.919 -21.788  0.00  0.00    -0.205 F 
ATOM     13  C   UNL     1      31.460  -9.838 -21.250  0.00  0.00    -0.003 C 
ATOM     14  C   UNL     1      31.297  -9.241 -22.494  0.00  0.00    -0.005 C 
ATOM     15  C   UNL     1      31.684  -7.914 -22.679  0.00  0.00    +0.005 C 
ATOM     16  C   UNL     1      32.008  -9.127 -20.188  0.00  0.00    -0.000 C 
ATOM     17  C   UNL     1      32.235  -7.193 -21.619  0.00  0.00    +0.136 C 
ATOM     18  C   UNL     1      32.396  -7.800 -20.373  0.00  0.00    +0.029 C 
ATOM     19  C   UNL     1      31.509  -7.268 -24.012  0.00  0.00    +0.033 C 
ENDBRANCH  11  13
ENDBRANCH   8  11
ENDBRANCH   3   9
BRANCH   4  22
ATOM     20  O   UNL     1      34.901 -17.754 -24.805  0.00  0.00    -0.269 OA
ATOM     21  N   UNL     1      35.119 -17.483 -22.512  0.00  0.00    -0.296 N 
ATOM     22  C   UNL     1      34.692 -17.111 -23.779  0.00  0.00    +0.260 C 
ATOM     23  H   UNL     1      34.903 -16.899 -21.749  0.00  0.00    +0.150 HD
BRANCH  21  24
ATOM     24  C   UNL     1      35.867 -18.690 -22.269  0.00  0.00    +0.117 C 
BRANCH  24  26
ATOM     25  F   UNL     1      33.276 -22.101 -18.628  0.00  0.00    -0.205 F 
ATOM     26  C   UNL     1      35.182 -19.596 -21.301  0.00  0.00    -0.003 C 
ATOM     27  C   UNL     1      35.931 -20.321 -20.374  0.00  0.00    -0.005 C 
ATOM     28  C   UNL     1      35.289 -21.168 -19.470  0.00  0.00    +0.005 C 
ATOM     29  C   UNL     1      33.793 -19.717 -21.323  0.00  0.00    -0.000 C 
ATOM     30  C   UNL     1      33.900 -21.289 -19.493  0.00  0.00    +0.136 C 
ATOM     31  C   UNL     1      33.152 -20.565 -20.420  0.00  0.00    +0.029 C 
ATOM     32  C   UNL     1      36.093 -21.942 -18.479  0.00  0.00    +0.033 C 
ENDBRANCH  24  26
ENDBRANCH  21  24
ENDBRANCH   4  22
TORSDOF 6
ENDMDL
MODEL 4
REMARK VINA RESULT:     -12.5      2.162      3.163
REMARK  Name = 5289110
REMARK  6 active torsions:
REMARK  status: ('A' for Active; 'I' for Inactive)
REMARK    1  A    between atoms: C_3  and  C_9
REMARK    2  A    between atoms: C_4  and  C_22
REMARK    3  A    between atoms: N_8  and  C_11
REMARK    4  A    between atoms: C_11  and  C_13
REMARK    5  A    between atoms: N_21  and  C_24
REMARK    6  A    between atoms: C_24  and  C_26
REMARK                            x       y       z     vdW  Elec       q    Type
REMARK                         _______ _______ _______ _____ _____    ______ ____
ROOT
ATOM      1  N   UNL     1      33.784 -15.382 -25.107  0.00  0.00    -0.244 NA
ATOM      2  N   UNL     1      32.614 -13.505 -24.149  0.00  0.00    -0.244 NA
ATOM      3  C   UNL     1      33.988 -15.845 -23.857  0.00  0.00    +0.115 C 
ATOM      4  C   UNL     1      32.866 -14.044 -22.953  0.00  0.00    +0.115 C 
ATOM      5  C   UNL     1      33.542 -15.204 -22.718  0.00  0.00    +0.100 C 
ATOM      6  C   UNL     1      33.100 -14.224 -25.179  0.00  0.00    +0.250 C 
ENDROOT
BRANCH   3   9
ATOM      7  O   UNL     1      34.968 -17.769 -24.772  0.00  0.00    -0.269 OA
ATOM      8  N   UNL     1      35.154 -17.477 -22.480  0.00  0.00    -0.296 N 
ATOM      9  C   UNL     1      34.724 -17.093 -23.756  0.00  0.00    +0.260 C 
ATOM     10  H   UNL     1      34.926 -16.897 -21.719  0.00  0.00    +0.150 HD
BRANCH   8  11
ATOM     11  C   UNL     1      35.914 -18.678 -22.219  0.00  0.00    +0.117 C 
BRANCH  11  13
ATOM     12  F   UNL     1      33.253 -22.110 -18.648  0.00  0.00    -0.205 F 
ATOM     13  C   UNL     1      35.206 -19.595 -21.263  0.00  0.00    -0.003 C 
ATOM     14  C   UNL     1      35.942 -20.331 -20.343  0.00  0.00    -0.005 C 
ATOM     15  C   UNL     1      35.284 -21.183 -19.455  0.00  0.00    +0.005 C 
ATOM     16  C   UNL     1      33.820 -19.699 -21.311  0.00  0.00    -0.000 C 
ATOM     17  C   UNL     1      33.893 -21.293 -19.496  0.00  0.00    +0.136 C 
ATOM     18  C   UNL     1      33.162 -20.551 -20.423  0.00  0.00    +0.029 C 
ATOM     19  C   UNL     1      36.069 -21.974 -18.464  0.00  0.00    +0.033 C 
ENDBRANCH  11  13
ENDBRANCH   8  11
ENDBRANCH   3   9
BRANCH   4  22
ATOM     20  O   UNL     1      32.627 -13.614 -20.660  0.00  0.00    -0.269 OA
ATOM     21  N   UNL     1      31.560 -12.162 -22.120  0.00  0.00    -0.296 N 
ATOM     22  C   UNL     1      32.339 -13.265 -21.803  0.00  0.00    +0.260 C 
ATOM     23  H   UNL     1      31.385 -11.963 -23.069  0.00  0.00    +0.150 HD
BRANCH  21  24
ATOM     24  C   UNL     1      30.998 -11.294 -21.116  0.00  0.00    +0.117 C 
BRANCH  24  26
ATOM     25  F   UNL     1      32.655  -5.957 -21.722  0.00  0.00    -0.205 F 
ATOM     26  C   UNL     1      31.437  -9.878 -21.280  0.00  0.00    -0.003 C 
ATOM     27  C   UNL     1      31.305  -9.245 -22.516  0.00  0.00    -0.005 C 
ATOM     28  C   UNL     1      31.715  -7.920 -22.669  0.00  0.00    +0.005 C 
ATOM     29  C   UNL     1      31.979  -9.186 -20.197  0.00  0.00    -0.000 C 
ATOM     30  C   UNL     1      32.258  -7.229 -21.585  0.00  0.00    +0.136 C 
ATOM     31  C   UNL     1      32.390  -7.863 -20.350  0.00  0.00    +0.029 C 
ATOM     32  C   UNL     1      31.572  -7.246 -23.992  0.00  0.00    +0.033 C 
ENDBRANCH  24  26
ENDBRANCH  21  24
ENDBRANCH   4  22
TORSDOF 6
ENDMDL
MODEL 5
REMARK VINA RESULT:     -12.2      1.825     11.459
REMARK  Name = 5289110
REMARK  6 active torsions:
REMARK  status: ('A' for Active; 'I' for Inactive)
REMARK    1  A    between atoms: C_3  and  C_9
REMARK    2  A    between atoms: C_4  and  C_22
REMARK    3  A    between atoms: N_8  and  C_11
REMARK    4  A    between atoms: C_11  and  C_13
REMARK    5  A    between atoms: N_21  and  C_24
REMARK    6  A    between atoms: C_24  and  C_26
REMARK                            x       y       z     vdW  Elec       q    Type
REMARK                         _______ _______ _______ _____ _____    ______ ____
ROOT
ATOM      1  N   UNL     1      32.601 -12.621 -22.653  0.00  0.00    -0.244 NA
ATOM      2  N   UNL     1      32.851 -14.970 -22.178  0.00  0.00    -0.244 NA
ATOM      3  C   UNL     1      33.520 -12.758 -23.630  0.00  0.00    +0.115 C 
ATOM      4  C   UNL     1      33.749 -15.006 -23.165  0.00  0.00    +0.115 C 
ATOM      5  C   UNL     1      34.141 -13.953 -23.938  0.00  0.00    +0.100 C 
ATOM      6  C   UNL     1      32.318 -13.750 -21.976  0.00  0.00    +0.250 C 
ENDROOT
BRANCH   3   9
ATOM      7  O   UNL     1      33.780 -11.538 -25.616  0.00  0.00    -0.269 OA
ATOM      8  N   UNL     1      34.192 -10.420 -23.628  0.00  0.00    -0.296 N 
ATOM      9  C   UNL     1      33.840 -11.552 -24.374  0.00  0.00    +0.260 C 
ATOM     10  H   UNL     1      34.221 -10.500 -22.648  0.00  0.00    +0.150 HD
BRANCH   8  11
ATOM     11  C   UNL     1      34.515  -9.141 -24.219  0.00  0.00    +0.117 C 
BRANCH  11  13
ATOM     12  F   UNL     1      31.472  -4.966 -22.001  0.00  0.00    -0.205 F 
ATOM     13  C   UNL     1      33.703  -8.027 -23.623  0.00  0.00    -0.003 C 
ATOM     14  C   UNL     1      33.394  -8.048 -22.269  0.00  0.00    -0.005 C 
ATOM     15  C   UNL     1      32.640  -7.013 -21.716  0.00  0.00    +0.005 C 
ATOM     16  C   UNL     1      33.267  -6.985 -24.435  0.00  0.00    -0.000 C 
ATOM     17  C   UNL     1      32.198  -5.964 -22.523  0.00  0.00    +0.136 C 
ATOM     18  C   UNL     1      32.513  -5.950 -23.882  0.00  0.00    +0.029 C 
ATOM     19  C   UNL     1      32.308  -7.030 -20.262  0.00  0.00    +0.033 C 
ENDBRANCH  11  13
ENDBRANCH   8  11
ENDBRANCH   3   9
BRANCH   4  22
ATOM     20  O   UNL     1      34.274 -16.846 -24.522  0.00  0.00    -0.269 OA
ATOM     21  N   UNL     1      34.991 -16.925 -22.318  0.00  0.00    -0.296 N 
ATOM     22  C   UNL     1      34.351 -16.344 -23.403  0.00  0.00    +0.260 C 
ATOM     23  H   UNL     1      35.000 -16.443 -21.460  0.00  0.00    +0.150 HD
BRANCH  21  24
ATOM     24  C   UNL     1      35.643 -18.208 -22.398  0.00  0.00    +0.117 C 
BRANCH  24  26
ATOM     25  F   UNL     1      33.343 -21.985 -18.926  0.00  0.00    -0.205 F 
ATOM     26  C   UNL     1      35.035 -19.211 -21.475  0.00  0.00    -0.003 C 
ATOM     27  C   UNL     1      35.849 -19.960 -20.626  0.00  0.00    -0.005 C 
ATOM     28  C   UNL     1      35.280 -20.898 -19.764  0.00  0.00    +0.005 C 
ATOM     29  C   UNL     1      33.653 -19.399 -21.462  0.00  0.00    -0.000 C 
ATOM     30  C   UNL     1      33.898 -21.086 -19.751  0.00  0.00    +0.136 C 
ATOM     31  C   UNL     1      33.085 -20.337 -20.601  0.00  0.00    +0.029 C 
ATOM     32  C   UNL     1      36.153 -21.697 -18.856  0.00  0.00    +0.033 C 
ENDBRANCH  24  26
ENDBRANCH  21  24
ENDBRANCH   4  22
TORSDOF 6
ENDMDL
MODEL 6
REMARK VINA RESULT:     -12.1      2.026      3.165
REMARK  Name = 5289110
REMARK  6 active torsions:
REMARK  status: ('A' for Active; 'I' for Inactive)
REMARK    1  A    between atoms: C_3  and  C_9
REMARK    2  A    between atoms: C_4  and  C_22
REMARK    3  A    between atoms: N_8  and  C_11
REMARK    4  A    between atoms: C_11  and  C_13
REMARK    5  A    between atoms: N_21  and  C_24
REMARK    6  A    between atoms: C_24  and  C_26
REMARK                            x       y       z     vdW  Elec       q    Type
REMARK                         _______ _______ _______ _____ _____    ______ ____
ROOT
ATOM      1  N   UNL     1      32.852 -15.029 -22.160  0.00  0.00    -0.244 NA
ATOM      2  N   UNL     1      32.493 -12.676 -22.535  0.00  0.00    -0.244 NA
ATOM      3  C   UNL     1      33.794 -15.002 -23.124  0.00  0.00    +0.115 C 
ATOM      4  C   UNL     1      33.441 -12.749 -23.473  0.00  0.00    +0.115 C 
ATOM      5  C   UNL     1      34.139 -13.865 -23.829  0.00  0.00    +0.100 C 
ATOM      6  C   UNL     1      32.249 -13.849 -21.921  0.00  0.00    +0.250 C 
ENDROOT
BRANCH   3   9
ATOM      7  O   UNL     1      34.884 -16.522 -24.539  0.00  0.00    -0.269 OA
ATOM      8  N   UNL     1      34.607 -17.151 -22.325  0.00  0.00    -0.296 N 
ATOM      9  C   UNL     1      34.457 -16.265 -23.399  0.00  0.00    +0.260 C 
ATOM     10  H   UNL     1      34.246 -16.885 -21.449  0.00  0.00    +0.150 HD
BRANCH   8  11
ATOM     11  C   UNL     1      35.263 -18.434 -22.431  0.00  0.00    +0.117 C 
BRANCH  11  13
ATOM     12  F   UNL     1      33.338 -22.097 -18.625  0.00  0.00    -0.205 F 
ATOM     13  C   UNL     1      34.752 -19.412 -21.413  0.00  0.00    -0.003 C 
ATOM     14  C   UNL     1      35.652 -20.117 -20.623  0.00  0.00    -0.005 C 
ATOM     15  C   UNL     1      35.177 -21.026 -19.677  0.00  0.00    +0.005 C 
ATOM     16  C   UNL     1      33.382 -19.605 -21.272  0.00  0.00    -0.000 C 
ATOM     17  C   UNL     1      33.804 -21.225 -19.530  0.00  0.00    +0.136 C 
ATOM     18  C   UNL     1      32.907 -20.514 -20.326  0.00  0.00    +0.029 C 
ATOM     19  C   UNL     1      36.139 -21.784 -18.826  0.00  0.00    +0.033 C 
ENDBRANCH  11  13
ENDBRANCH   8  11
ENDBRANCH   3   9
BRANCH   4  22
ATOM     20  O   UNL     1      34.019 -11.478 -25.357  0.00  0.00    -0.269 OA
ATOM     21  N   UNL     1      33.608 -10.318 -23.391  0.00  0.00    -0.296 N 
ATOM     22  C   UNL     1      33.725 -11.465 -24.164  0.00  0.00    +0.260 C 
ATOM     23  H   UNL     1      33.366 -10.411 -22.441  0.00  0.00    +0.150 HD
BRANCH  21  24
ATOM     24  C   UNL     1      33.827  -8.998 -23.924  0.00  0.00    +0.117 C 
BRANCH  24  26
ATOM     25  F   UNL     1      30.666  -5.118 -21.364  0.00  0.00    -0.205 F 
ATOM     26  C   UNL     1      32.988  -7.967 -23.247  0.00  0.00    -0.003 C 
ATOM     27  C   UNL     1      32.429  -6.926 -23.988  0.00  0.00    -0.005 C 
ATOM     28  C   UNL     1      31.644  -5.962 -23.355  0.00  0.00    +0.005 C 
ATOM     29  C   UNL     1      32.761  -8.044 -21.873  0.00  0.00    -0.000 C 
ATOM     30  C   UNL     1      31.418  -6.040 -21.981  0.00  0.00    +0.136 C 
ATOM     31  C   UNL     1      31.977  -7.081 -21.240  0.00  0.00    +0.029 C 
ATOM     32  C   UNL     1      31.047  -4.850 -24.151  0.00  0.00    +0.033 C 
ENDBRANCH  24  26
ENDBRANCH  21  24
ENDBRANCH   4  22
TORSDOF 6
ENDMDL
MODEL 7
REMARK VINA RESULT:     -12.1      1.908      2.838
REMARK  Name = 5289110
REMARK  6 active torsions:
REMARK  status: ('A' for Active; 'I' for Inactive)
REMARK    1  A    between atoms: C_3  and  C_9
REMARK    2  A    between atoms: C_4  and  C_22
REMARK    3  A    between atoms: N_8  and  C_11
REMARK    4  A    between atoms: C_11  and  C_13
REMARK    5  A    between atoms: N_21  and  C_24
REMARK    6  A    between atoms: C_24  and  C_26
REMARK                            x       y       z     vdW  Elec       q    Type
REMARK                         _______ _______ _______ _____ _____    ______ ____
ROOT
ATOM      1  N   UNL     1      33.918 -16.028 -25.631  0.00  0.00    -0.244 NA
ATOM      2  N   UNL     1      32.952 -13.885 -25.101  0.00  0.00    -0.244 NA
ATOM      3  C   UNL     1      34.179 -16.194 -24.318  0.00  0.00    +0.115 C 
ATOM      4  C   UNL     1      33.251 -14.140 -23.824  0.00  0.00    +0.115 C 
ATOM      5  C   UNL     1      33.861 -15.264 -23.349  0.00  0.00    +0.100 C 
ATOM      6  C   UNL     1      33.313 -14.867 -25.948  0.00  0.00    +0.250 C 
ENDROOT
BRANCH   3   9
ATOM      7  O   UNL     1      34.888 -18.385 -24.762  0.00  0.00    -0.269 OA
ATOM      8  N   UNL     1      35.403 -17.509 -22.678  0.00  0.00    -0.296 N 
ATOM      9  C   UNL     1      34.832 -17.439 -23.955  0.00  0.00    +0.260 C 
ATOM     10  H   UNL     1      35.322 -16.724 -22.089  0.00  0.00    +0.150 HD
BRANCH   8  11
ATOM     11  C   UNL     1      36.106 -18.668 -22.177  0.00  0.00    +0.117 C 
BRANCH  11  13
ATOM     12  F   UNL     1      32.849 -21.811 -18.841  0.00  0.00    -0.205 F 
ATOM     13  C   UNL     1      35.238 -19.508 -21.284  0.00  0.00    -0.003 C 
ATOM     14  C   UNL     1      35.826 -20.363 -20.360  0.00  0.00    -0.005 C 
ATOM     15  C   UNL     1      35.021 -21.143 -19.530  0.00  0.00    +0.005 C 
ATOM     16  C   UNL     1      33.855 -19.423 -21.393  0.00  0.00    -0.000 C 
ATOM     17  C   UNL     1      33.631 -21.064 -19.633  0.00  0.00    +0.136 C 
ATOM     18  C   UNL     1      33.049 -20.204 -20.563  0.00  0.00    +0.029 C 
ATOM     19  C   UNL     1      35.647 -22.061 -18.535  0.00  0.00    +0.033 C 
ENDBRANCH  11  13
ENDBRANCH   8  11
ENDBRANCH   3   9
BRANCH   4  22
ATOM     20  O   UNL     1      32.795 -13.325 -21.673  0.00  0.00    -0.269 OA
ATOM     21  N   UNL     1      32.625 -11.818 -23.428  0.00  0.00    -0.296 N 
ATOM     22  C   UNL     1      32.863 -13.067 -22.873  0.00  0.00    +0.260 C 
ATOM     23  H   UNL     1      32.705 -11.711 -24.404  0.00  0.00    +0.150 HD
BRANCH  21  24
ATOM     24  C   UNL     1      32.264 -10.672 -22.634  0.00  0.00    +0.117 C 
BRANCH  24  26
ATOM     25  F   UNL     1      34.137  -5.862 -24.861  0.00  0.00    -0.205 F 
ATOM     26  C   UNL     1      32.758  -9.394 -23.224  0.00  0.00    -0.003 C 
ATOM     27  C   UNL     1      31.908  -8.292 -23.314  0.00  0.00    -0.005 C 
ATOM     28  C   UNL     1      32.371  -7.098 -23.867  0.00  0.00    +0.005 C 
ATOM     29  C   UNL     1      34.071  -9.301 -23.685  0.00  0.00    -0.000 C 
ATOM     30  C   UNL     1      33.683  -7.006 -24.328  0.00  0.00    +0.136 C 
ATOM     31  C   UNL     1      34.534  -8.107 -24.238  0.00  0.00    +0.029 C 
ATOM     32  C   UNL     1      31.459  -5.921 -23.962  0.00  0.00    +0.033 C 
ENDBRANCH  24  26
ENDBRANCH  21  24
ENDBRANCH   4  22
TORSDOF 6
ENDMDL
MODEL 8
REMARK VINA RESULT:     -11.9      2.519      4.145
REMARK  Name = 5289110
REMARK  6 active torsions:
REMARK  status: ('A' for Active; 'I' for Inactive)
REMARK    1  A    between atoms: C_3  and  C_9
REMARK    2  A    between atoms: C_4  and  C_22
REMARK    3  A    between atoms: N_8  and  C_11
REMARK    4  A    between atoms: C_11  and  C_13
REMARK    5  A    between atoms: N_21  and  C_24
REMARK    6  A    between atoms: C_24  and  C_26
REMARK                            x       y       z     vdW  Elec       q    Type
REMARK                         _______ _______ _______ _____ _____    ______ ____
ROOT
ATOM      1  N   UNL     1      32.586 -14.323 -22.700  0.00  0.00    -0.244 NA
ATOM      2  N   UNL     1      32.635 -11.914 -22.687  0.00  0.00    -0.244 NA
ATOM      3  C   UNL     1      33.482 -14.299 -23.708  0.00  0.00    +0.115 C 
ATOM      4  C   UNL     1      33.519 -11.993 -23.685  0.00  0.00    +0.115 C 
ATOM      5  C   UNL     1      33.995 -13.138 -24.251  0.00  0.00    +0.100 C 
ATOM      6  C   UNL     1      32.211 -13.113 -22.245  0.00  0.00    +0.250 C 
ENDROOT
BRANCH   3   9
ATOM      7  O   UNL     1      33.840 -15.850 -25.430  0.00  0.00    -0.269 OA
ATOM      8  N   UNL     1      34.389 -16.516 -23.279  0.00  0.00    -0.296 N 
ATOM      9  C   UNL     1      33.901 -15.594 -24.214  0.00  0.00    +0.260 C 
ATOM     10  H   UNL     1      34.409 -16.249 -22.331  0.00  0.00    +0.150 HD
BRANCH   8  11
ATOM     11  C   UNL     1      34.864 -17.835 -23.627  0.00  0.00    +0.117 C 
BRANCH  11  13
ATOM     12  F   UNL     1      35.976 -20.938 -19.072  0.00  0.00    -0.205 F 
ATOM     13  C   UNL     1      35.158 -18.665 -22.411  0.00  0.00    -0.003 C 
ATOM     14  C   UNL     1      34.132 -19.371 -21.795  0.00  0.00    -0.005 C 
ATOM     15  C   UNL     1      34.405 -20.143 -20.665  0.00  0.00    +0.005 C 
ATOM     16  C   UNL     1      36.455 -18.718 -21.912  0.00  0.00    -0.000 C 
ATOM     17  C   UNL     1      35.704 -20.201 -20.158  0.00  0.00    +0.136 C 
ATOM     18  C   UNL     1      36.728 -19.490 -20.782  0.00  0.00    +0.029 C 
ATOM     19  C   UNL     1      33.307 -20.903 -20.001  0.00  0.00    +0.033 C 
ENDBRANCH  11  13
ENDBRANCH   8  11
ENDBRANCH   3   9
BRANCH   4  22
ATOM     20  O   UNL     1      34.613 -10.634 -25.253  0.00  0.00    -0.269 OA
ATOM     21  N   UNL     1      33.686  -9.577 -23.408  0.00  0.00    -0.296 N 
ATOM     22  C   UNL     1      33.999 -10.680 -24.189  0.00  0.00    +0.260 C 
ATOM     23  H   UNL     1      33.189  -9.716 -22.570  0.00  0.00    +0.150 HD
BRANCH  21  24
ATOM     24  C   UNL     1      34.060  -8.235 -23.776  0.00  0.00    +0.117 C 
BRANCH  24  26
ATOM     25  F   UNL     1      30.340  -4.419 -21.987  0.00  0.00    -0.205 F 
ATOM     26  C   UNL     1      33.073  -7.221 -23.304  0.00  0.00    -0.003 C 
ATOM     27  C   UNL     1      32.498  -6.332 -24.212  0.00  0.00    -0.005 C 
ATOM     28  C   UNL     1      31.574  -5.384 -23.770  0.00  0.00    +0.005 C 
ATOM     29  C   UNL     1      32.723  -7.163 -21.955  0.00  0.00    -0.000 C 
ATOM     30  C   UNL     1      31.226  -5.326 -22.421  0.00  0.00    +0.136 C 
ATOM     31  C   UNL     1      31.801  -6.216 -21.513  0.00  0.00    +0.029 C 
ATOM     32  C   UNL     1      30.961  -4.435 -24.744  0.00  0.00    +0.033 C 
ENDBRANCH  24  26
ENDBRANCH  21  24
ENDBRANCH   4  22
TORSDOF 6
ENDMDL
MODEL 9
REMARK VINA RESULT:     -11.9      6.803     12.064
REMARK  Name = 5289110
REMARK  6 active torsions:
REMARK  status: ('A' for Active; 'I' for Inactive)
REMARK    1  A    between atoms: C_3  and  C_9
REMARK    2  A    between atoms: C_4  and  C_22
REMARK    3  A    between atoms: N_8  and  C_11
REMARK    4  A    between atoms: C_11  and  C_13
REMARK    5  A    between atoms: N_21  and  C_24
REMARK    6  A    between atoms: C_24  and  C_26
REMARK                            x       y       z     vdW  Elec       q    Type
REMARK                         _______ _______ _______ _____ _____    ______ ____
ROOT
ATOM      1  N   UNL     1      37.938 -23.537 -15.166  0.00  0.00    -0.244 NA
ATOM      2  N   UNL     1      36.485 -24.540 -13.527  0.00  0.00    -0.244 NA
ATOM      3  C   UNL     1      36.892 -22.798 -15.588  0.00  0.00    +0.115 C 
ATOM      4  C   UNL     1      35.511 -23.766 -14.014  0.00  0.00    +0.115 C 
ATOM      5  C   UNL     1      35.628 -22.873 -15.037  0.00  0.00    +0.100 C 
ATOM      6  C   UNL     1      37.668 -24.375 -14.147  0.00  0.00    +0.250 C 
ENDROOT
BRANCH   3   9
ATOM      7  O   UNL     1      37.865 -20.876 -16.513  0.00  0.00    -0.269 OA
ATOM      8  N   UNL     1      36.614 -22.214 -17.934  0.00  0.00    -0.296 N 
ATOM      9  C   UNL     1      37.161 -21.887 -16.686  0.00  0.00    +0.260 C 
ATOM     10  H   UNL     1      36.066 -23.029 -18.001  0.00  0.00    +0.150 HD
BRANCH   8  11
ATOM     11  C   UNL     1      36.810 -21.422 -19.126  0.00  0.00    +0.117 C 
BRANCH  11  13
ATOM     12  F   UNL     1      31.927 -19.732 -21.340  0.00  0.00    -0.205 F 
ATOM     13  C   UNL     1      35.508 -20.969 -19.720  0.00  0.00    -0.003 C 
ATOM     14  C   UNL     1      35.502 -19.976 -20.692  0.00  0.00    -0.005 C 
ATOM     15  C   UNL     1      34.292 -19.555 -21.244  0.00  0.00    +0.005 C 
ATOM     16  C   UNL     1      34.318 -21.547 -19.290  0.00  0.00    -0.000 C 
ATOM     17  C   UNL     1      33.094 -20.130 -20.818  0.00  0.00    +0.136 C 
ATOM     18  C   UNL     1      33.108 -21.127 -19.842  0.00  0.00    +0.029 C 
ATOM     19  C   UNL     1      34.282 -18.490 -22.288  0.00  0.00    +0.033 C 
ENDBRANCH  11  13
ENDBRANCH   8  11
ENDBRANCH   3   9
BRANCH   4  22
ATOM     20  O   UNL     1      34.107 -24.687 -12.377  0.00  0.00    -0.269 OA
ATOM     21  N   UNL     1      33.147 -23.189 -13.865  0.00  0.00    -0.296 N 
ATOM     22  C   UNL     1      34.196 -23.934 -13.344  0.00  0.00    +0.260 C 
ATOM     23  H   UNL     1      33.318 -22.612 -14.644  0.00  0.00    +0.150 HD
BRANCH  21  24
ATOM     24  C   UNL     1      31.819 -23.226 -13.309  0.00  0.00    +0.117 C 
BRANCH  24  26
ATOM     25  F   UNL     1      27.977 -24.868 -17.071  0.00  0.00    -0.205 F 
ATOM     26  C   UNL     1      30.798 -23.659 -14.308  0.00  0.00    -0.003 C 
ATOM     27  C   UNL     1      29.936 -22.721 -14.876  0.00  0.00    -0.005 C 
ATOM     28  C   UNL     1      28.982 -23.127 -15.810  0.00  0.00    +0.005 C 
ATOM     29  C   UNL     1      30.707 -25.001 -14.674  0.00  0.00    -0.000 C 
ATOM     30  C   UNL     1      28.891 -24.469 -16.174  0.00  0.00    +0.136 C 
ATOM     31  C   UNL     1      29.753 -25.407 -15.606  0.00  0.00    +0.029 C 
ATOM     32  C   UNL     1      28.062 -22.121 -16.416  0.00  0.00    +0.033 C 
ENDBRANCH  24  26
ENDBRANCH  21  24
ENDBRANCH   4  22
TORSDOF 6
ENDMDL
