MODEL 1
REMARK VINA RESULT:      -9.8      0.000      0.000
REMARK  Name = 5289247
REMARK  1 active torsions:
REMARK  status: ('A' for Active; 'I' for Inactive)
REMARK    1  A    between atoms: C_3  and  C_15
REMARK                            x       y       z     vdW  Elec       q    Type
REMARK                         _______ _______ _______ _____ _____    ______ ____
ROOT
ATOM      1  N   UNL     1      33.901 -14.439 -23.626  0.00  0.00    -0.241 NA
ATOM      2  N   UNL     1      33.505 -15.582 -26.127  0.00  0.00    -0.241 NA
ATOM      3  C   UNL     1      35.225 -17.798 -23.073  0.00  0.00    +0.002 C 
ATOM      4  C   UNL     1      34.263 -15.712 -23.862  0.00  0.00    +0.099 C 
ATOM      5  C   UNL     1      34.842 -16.476 -22.852  0.00  0.00    +0.021 C 
ATOM      6  C   UNL     1      34.062 -16.292 -25.129  0.00  0.00    +0.099 C 
ATOM      7  C   UNL     1      35.028 -18.369 -24.321  0.00  0.00    +0.002 C 
ATOM      8  C   UNL     1      34.449 -17.612 -25.339  0.00  0.00    +0.021 C 
ATOM      9  C   UNL     1      33.347 -13.746 -24.637  0.00  0.00    +0.119 C 
ATOM     10  C   UNL     1      33.152 -14.310 -25.870  0.00  0.00    +0.119 C 
ENDROOT
BRANCH   3  15
ATOM     11  S   UNL     1      33.514 -19.816 -21.231  0.00  0.00    -0.025 S 
ATOM     12  O   UNL     1      37.067 -20.122 -19.851  0.00  0.00    -0.269 OA
ATOM     13  O   UNL     1      32.683 -21.566 -19.440  0.00  0.00    -0.262 OA
ATOM     14  N   UNL     1      34.942 -20.987 -19.463  0.00  0.00    -0.243 N 
ATOM     15  C   UNL     1      35.829 -18.574 -22.000  0.00  0.00    +0.011 C 
ATOM     16  C   UNL     1      35.193 -19.438 -21.183  0.00  0.00    +0.087 C 
ATOM     17  C   UNL     1      35.875 -20.197 -20.108  0.00  0.00    +0.258 C 
ATOM     18  C   UNL     1      33.635 -20.945 -19.888  0.00  0.00    +0.283 C 
ATOM     19  H   UNL     1      35.209 -21.569 -18.715  0.00  0.00    +0.159 HD
ENDBRANCH   3  15
TORSDOF 1
ENDMDL
MODEL 2
REMARK VINA RESULT:      -9.7      1.243      1.501
REMARK  Name = 5289247
REMARK  1 active torsions:
REMARK  status: ('A' for Active; 'I' for Inactive)
REMARK    1  A    between atoms: C_3  and  C_15
REMARK                            x       y       z     vdW  Elec       q    Type
REMARK                         _______ _______ _______ _____ _____    ______ ____
ROOT
ATOM      1  N   UNL     1      34.572 -15.073 -22.007  0.00  0.00    -0.241 NA
ATOM      2  N   UNL     1      33.980 -15.793 -24.624  0.00  0.00    -0.241 NA
ATOM      3  C   UNL     1      35.432 -18.623 -21.963  0.00  0.00    +0.002 C 
ATOM      4  C   UNL     1      34.751 -16.337 -22.427  0.00  0.00    +0.099 C 
ATOM      5  C   UNL     1      35.238 -17.305 -21.551  0.00  0.00    +0.021 C 
ATOM      6  C   UNL     1      34.451 -16.702 -23.752  0.00  0.00    +0.099 C 
ATOM      7  C   UNL     1      35.136 -18.982 -23.270  0.00  0.00    +0.002 C 
ATOM      8  C   UNL     1      34.649 -18.021 -24.153  0.00  0.00    +0.021 C 
ATOM      9  C   UNL     1      34.101 -14.178 -22.894  0.00  0.00    +0.119 C 
ATOM     10  C   UNL     1      33.809 -14.533 -24.184  0.00  0.00    +0.119 C 
ENDROOT
BRANCH   3  15
ATOM     11  S   UNL     1      33.485 -20.537 -20.249  0.00  0.00    -0.025 S 
ATOM     12  O   UNL     1      36.994 -21.599 -19.157  0.00  0.00    -0.269 OA
ATOM     13  O   UNL     1      32.450 -22.329 -18.613  0.00  0.00    -0.262 OA
ATOM     14  N   UNL     1      34.771 -22.138 -18.725  0.00  0.00    -0.243 N 
ATOM     15  C   UNL     1      35.942 -19.614 -21.029  0.00  0.00    +0.011 C 
ATOM     16  C   UNL     1      35.205 -20.454 -20.273  0.00  0.00    +0.087 C 
ATOM     17  C   UNL     1      35.796 -21.442 -19.339  0.00  0.00    +0.258 C 
ATOM     18  C   UNL     1      33.473 -21.826 -19.052  0.00  0.00    +0.283 C 
ATOM     19  H   UNL     1      34.968 -22.844 -18.067  0.00  0.00    +0.159 HD
ENDBRANCH   3  15
TORSDOF 1
ENDMDL
MODEL 3
REMARK VINA RESULT:      -9.7      0.844      1.770
REMARK  Name = 5289247
REMARK  1 active torsions:
REMARK  status: ('A' for Active; 'I' for Inactive)
REMARK    1  A    between atoms: C_3  and  C_15
REMARK                            x       y       z     vdW  Elec       q    Type
REMARK                         _______ _______ _______ _____ _____    ______ ____
ROOT
ATOM      1  N   UNL     1      34.019 -16.401 -25.584  0.00  0.00    -0.241 NA
ATOM      2  N   UNL     1      33.135 -14.188 -24.156  0.00  0.00    -0.241 NA
ATOM      3  C   UNL     1      35.069 -17.292 -22.200  0.00  0.00    +0.002 C 
ATOM      4  C   UNL     1      34.211 -16.321 -24.255  0.00  0.00    +0.099 C 
ATOM      5  C   UNL     1      34.858 -17.351 -23.577  0.00  0.00    +0.021 C 
ATOM      6  C   UNL     1      33.764 -15.200 -23.532  0.00  0.00    +0.099 C 
ATOM      7  C   UNL     1      34.628 -16.187 -21.487  0.00  0.00    +0.002 C 
ATOM      8  C   UNL     1      33.979 -15.151 -22.157  0.00  0.00    +0.021 C 
ATOM      9  C   UNL     1      33.387 -15.379 -26.189  0.00  0.00    +0.119 C 
ATOM     10  C   UNL     1      32.952 -14.288 -25.485  0.00  0.00    +0.119 C 
ENDROOT
BRANCH   3  15
ATOM     11  S   UNL     1      33.464 -19.721 -20.816  0.00  0.00    -0.025 S 
ATOM     12  O   UNL     1      37.134 -20.562 -20.149  0.00  0.00    -0.269 OA
ATOM     13  O   UNL     1      32.744 -21.910 -19.532  0.00  0.00    -0.262 OA
ATOM     14  N   UNL     1      35.018 -21.431 -19.722  0.00  0.00    -0.243 N 
ATOM     15  C   UNL     1      35.747 -18.382 -21.516  0.00  0.00    +0.011 C 
ATOM     16  C   UNL     1      35.159 -19.435 -20.912  0.00  0.00    +0.087 C 
ATOM     17  C   UNL     1      35.917 -20.513 -20.232  0.00  0.00    +0.258 C 
ATOM     18  C   UNL     1      33.673 -21.214 -19.911  0.00  0.00    +0.283 C 
ATOM     19  H   UNL     1      35.335 -22.226 -19.234  0.00  0.00    +0.159 HD
ENDBRANCH   3  15
TORSDOF 1
ENDMDL
MODEL 4
REMARK VINA RESULT:      -9.6      2.928      7.139
REMARK  Name = 5289247
REMARK  1 active torsions:
REMARK  status: ('A' for Active; 'I' for Inactive)
REMARK    1  A    between atoms: C_3  and  C_15
REMARK                            x       y       z     vdW  Elec       q    Type
REMARK                         _______ _______ _______ _____ _____    ______ ____
ROOT
ATOM      1  N   UNL     1      32.873 -22.032 -18.972  0.00  0.00    -0.241 NA
ATOM      2  N   UNL     1      35.317 -22.499 -17.736  0.00  0.00    -0.241 NA
ATOM      3  C   UNL     1      35.119 -20.126 -21.131  0.00  0.00    +0.002 C 
ATOM      4  C   UNL     1      34.003 -21.495 -19.463  0.00  0.00    +0.099 C 
ATOM      5  C   UNL     1      33.962 -20.695 -20.602  0.00  0.00    +0.021 C 
ATOM      6  C   UNL     1      35.241 -21.731 -18.837  0.00  0.00    +0.099 C 
ATOM      7  C   UNL     1      36.340 -20.359 -20.514  0.00  0.00    +0.002 C 
ATOM      8  C   UNL     1      36.391 -21.159 -19.374  0.00  0.00    +0.021 C 
ATOM      9  C   UNL     1      32.970 -22.798 -17.870  0.00  0.00    +0.119 C 
ATOM     10  C   UNL     1      34.175 -23.028 -17.261  0.00  0.00    +0.119 C 
ENDROOT
BRANCH   3  15
ATOM     11  S   UNL     1      34.763 -16.926 -20.980  0.00  0.00    -0.025 S 
ATOM     12  O   UNL     1      34.909 -17.646 -24.733  0.00  0.00    -0.269 OA
ATOM     13  O   UNL     1      34.483 -14.354 -21.500  0.00  0.00    -0.262 OA
ATOM     14  N   UNL     1      34.682 -15.834 -23.291  0.00  0.00    -0.243 N 
ATOM     15  C   UNL     1      35.048 -19.295 -22.323  0.00  0.00    +0.011 C 
ATOM     16  C   UNL     1      34.900 -17.954 -22.354  0.00  0.00    +0.087 C 
ATOM     17  C   UNL     1      34.836 -17.170 -23.611  0.00  0.00    +0.258 C 
ATOM     18  C   UNL     1      34.618 -15.476 -21.965  0.00  0.00    +0.283 C 
ATOM     19  H   UNL     1      34.621 -15.152 -23.999  0.00  0.00    +0.159 HD
ENDBRANCH   3  15
TORSDOF 1
ENDMDL
MODEL 5
REMARK VINA RESULT:      -9.2      3.136      6.701
REMARK  Name = 5289247
REMARK  1 active torsions:
REMARK  status: ('A' for Active; 'I' for Inactive)
REMARK    1  A    between atoms: C_3  and  C_15
REMARK                            x       y       z     vdW  Elec       q    Type
REMARK                         _______ _______ _______ _____ _____    ______ ____
ROOT
ATOM      1  N   UNL     1      33.632 -21.019 -20.289  0.00  0.00    -0.241 NA
ATOM      2  N   UNL     1      36.201 -20.919 -19.236  0.00  0.00    -0.241 NA
ATOM      3  C   UNL     1      35.199 -18.579 -22.510  0.00  0.00    +0.002 C 
ATOM      4  C   UNL     1      34.563 -20.215 -20.830  0.00  0.00    +0.099 C 
ATOM      5  C   UNL     1      34.250 -19.420 -21.930  0.00  0.00    +0.021 C 
ATOM      6  C   UNL     1      35.865 -20.164 -20.298  0.00  0.00    +0.099 C 
ATOM      7  C   UNL     1      36.481 -18.528 -21.985  0.00  0.00    +0.002 C 
ATOM      8  C   UNL     1      36.804 -19.321 -20.884  0.00  0.00    +0.021 C 
ATOM      9  C   UNL     1      33.988 -21.766 -19.228  0.00  0.00    +0.119 C 
ATOM     10  C   UNL     1      35.255 -21.717 -18.709  0.00  0.00    +0.119 C 
ENDROOT
BRANCH   3  15
ATOM     11  S   UNL     1      33.867 -15.659 -22.199  0.00  0.00    -0.025 S 
ATOM     12  O   UNL     1      34.145 -16.131 -25.984  0.00  0.00    -0.269 OA
ATOM     13  O   UNL     1      32.790 -13.283 -22.589  0.00  0.00    -0.262 OA
ATOM     14  N   UNL     1      33.399 -14.545 -24.452  0.00  0.00    -0.243 N 
ATOM     15  C   UNL     1      34.845 -17.759 -23.658  0.00  0.00    +0.011 C 
ATOM     16  C   UNL     1      34.287 -16.532 -23.623  0.00  0.00    +0.087 C 
ATOM     17  C   UNL     1      33.953 -15.752 -24.839  0.00  0.00    +0.258 C 
ATOM     18  C   UNL     1      33.257 -14.285 -23.110  0.00  0.00    +0.283 C 
ATOM     19  H   UNL     1      33.113 -13.887 -25.126  0.00  0.00    +0.159 HD
ENDBRANCH   3  15
TORSDOF 1
ENDMDL
MODEL 6
REMARK VINA RESULT:      -8.8      9.500     10.709
REMARK  Name = 5289247
REMARK  1 active torsions:
REMARK  status: ('A' for Active; 'I' for Inactive)
REMARK    1  A    between atoms: C_3  and  C_15
REMARK                            x       y       z     vdW  Elec       q    Type
REMARK                         _______ _______ _______ _____ _____    ______ ____
ROOT
ATOM      1  N   UNL     1      30.484 -22.994 -16.775  0.00  0.00    -0.241 NA
ATOM      2  N   UNL     1      29.645 -24.588 -14.660  0.00  0.00    -0.241 NA
ATOM      3  C   UNL     1      33.651 -23.592 -15.056  0.00  0.00    +0.002 C 
ATOM      4  C   UNL     1      31.366 -23.451 -15.869  0.00  0.00    +0.099 C 
ATOM      5  C   UNL     1      32.716 -23.130 -15.982  0.00  0.00    +0.021 C 
ATOM      6  C   UNL     1      30.942 -24.259 -14.798  0.00  0.00    +0.099 C 
ATOM      7  C   UNL     1      33.233 -24.388 -14.000  0.00  0.00    +0.002 C 
ATOM      8  C   UNL     1      31.883 -24.715 -13.879  0.00  0.00    +0.021 C 
ATOM      9  C   UNL     1      29.191 -23.335 -16.619  0.00  0.00    +0.119 C 
ATOM     10  C   UNL     1      28.778 -24.121 -15.576  0.00  0.00    +0.119 C 
ENDROOT
BRANCH   3  15
ATOM     11  S   UNL     1      36.001 -25.792 -14.880  0.00  0.00    -0.025 S 
ATOM     12  O   UNL     1      37.872 -22.512 -15.487  0.00  0.00    -0.269 OA
ATOM     13  O   UNL     1      38.303 -27.079 -14.832  0.00  0.00    -0.262 OA
ATOM     14  N   UNL     1      38.327 -24.774 -15.180  0.00  0.00    -0.243 N 
ATOM     15  C   UNL     1      35.056 -23.242 -15.198  0.00  0.00    +0.011 C 
ATOM     16  C   UNL     1      36.101 -24.093 -15.138  0.00  0.00    +0.087 C 
ATOM     17  C   UNL     1      37.512 -23.663 -15.292  0.00  0.00    +0.258 C 
ATOM     18  C   UNL     1      37.745 -26.000 -14.959  0.00  0.00    +0.283 C 
ATOM     19  H   UNL     1      39.305 -24.688 -15.257  0.00  0.00    +0.159 HD
ENDBRANCH   3  15
TORSDOF 1
ENDMDL
MODEL 7
REMARK VINA RESULT:      -8.8      3.593      5.486
REMARK  Name = 5289247
REMARK  1 active torsions:
REMARK  status: ('A' for Active; 'I' for Inactive)
REMARK    1  A    between atoms: C_3  and  C_15
REMARK                            x       y       z     vdW  Elec       q    Type
REMARK                         _______ _______ _______ _____ _____    ______ ____
ROOT
ATOM      1  N   UNL     1      33.722  -9.929 -23.990  0.00  0.00    -0.241 NA
ATOM      2  N   UNL     1      31.916 -10.127 -21.888  0.00  0.00    -0.241 NA
ATOM      3  C   UNL     1      33.241 -13.547 -23.824  0.00  0.00    +0.002 C 
ATOM      4  C   UNL     1      33.267 -11.129 -23.587  0.00  0.00    +0.099 C 
ATOM      5  C   UNL     1      33.698 -12.291 -24.222  0.00  0.00    +0.021 C 
ATOM      6  C   UNL     1      32.352 -11.229 -22.523  0.00  0.00    +0.099 C 
ATOM      7  C   UNL     1      32.339 -13.645 -22.775  0.00  0.00    +0.002 C 
ATOM      8  C   UNL     1      31.902 -12.487 -22.133  0.00  0.00    +0.021 C 
ATOM      9  C   UNL     1      33.273  -8.839 -23.342  0.00  0.00    +0.119 C 
ATOM     10  C   UNL     1      32.382  -8.936 -22.306  0.00  0.00    +0.119 C 
ENDROOT
BRANCH   3  15
ATOM     11  S   UNL     1      34.758 -15.931 -22.272  0.00  0.00    -0.025 S 
ATOM     12  O   UNL     1      34.631 -17.143 -25.897  0.00  0.00    -0.269 OA
ATOM     13  O   UNL     1      36.017 -18.146 -21.591  0.00  0.00    -0.262 OA
ATOM     14  N   UNL     1      35.412 -17.855 -23.823  0.00  0.00    -0.243 N 
ATOM     15  C   UNL     1      33.706 -14.745 -24.505  0.00  0.00    +0.011 C 
ATOM     16  C   UNL     1      34.347 -15.788 -23.938  0.00  0.00    +0.087 C 
ATOM     17  C   UNL     1      34.794 -16.980 -24.697  0.00  0.00    +0.258 C 
ATOM     18  C   UNL     1      35.507 -17.505 -22.497  0.00  0.00    +0.283 C 
ATOM     19  H   UNL     1      35.776 -18.712 -24.145  0.00  0.00    +0.159 HD
ENDBRANCH   3  15
TORSDOF 1
ENDMDL
MODEL 8
REMARK VINA RESULT:      -8.8      1.808      2.342
REMARK  Name = 5289247
REMARK  1 active torsions:
REMARK  status: ('A' for Active; 'I' for Inactive)
REMARK    1  A    between atoms: C_3  and  C_15
REMARK                            x       y       z     vdW  Elec       q    Type
REMARK                         _______ _______ _______ _____ _____    ______ ____
ROOT
ATOM      1  N   UNL     1      32.673 -13.846 -20.559  0.00  0.00    -0.241 NA
ATOM      2  N   UNL     1      32.550 -13.435 -23.303  0.00  0.00    -0.241 NA
ATOM      3  C   UNL     1      34.699 -16.634 -21.771  0.00  0.00    +0.002 C 
ATOM      4  C   UNL     1      33.306 -14.677 -21.405  0.00  0.00    +0.099 C 
ATOM      5  C   UNL     1      34.034 -15.758 -20.914  0.00  0.00    +0.021 C 
ATOM      6  C   UNL     1      33.244 -14.469 -22.795  0.00  0.00    +0.099 C 
ATOM      7  C   UNL     1      34.638 -16.429 -23.141  0.00  0.00    +0.002 C 
ATOM      8  C   UNL     1      33.912 -15.349 -23.642  0.00  0.00    +0.021 C 
ATOM      9  C   UNL     1      31.985 -12.818 -21.087  0.00  0.00    +0.119 C 
ATOM     10  C   UNL     1      31.925 -12.615 -22.440  0.00  0.00    +0.119 C 
ENDROOT
BRANCH   3  15
ATOM     11  S   UNL     1      33.289 -19.398 -20.899  0.00  0.00    -0.025 S 
ATOM     12  O   UNL     1      36.992 -19.993 -20.150  0.00  0.00    -0.269 OA
ATOM     13  O   UNL     1      32.738 -21.828 -20.032  0.00  0.00    -0.262 OA
ATOM     14  N   UNL     1      34.958 -21.115 -20.001  0.00  0.00    -0.243 N 
ATOM     15  C   UNL     1      35.453 -17.754 -21.231  0.00  0.00    +0.011 C 
ATOM     16  C   UNL     1      34.949 -18.943 -20.842  0.00  0.00    +0.087 C 
ATOM     17  C   UNL     1      35.780 -20.044 -20.299  0.00  0.00    +0.258 C 
ATOM     18  C   UNL     1      33.608 -20.995 -20.235  0.00  0.00    +0.283 C 
ATOM     19  H   UNL     1      35.332 -21.946 -19.629  0.00  0.00    +0.159 HD
ENDBRANCH   3  15
TORSDOF 1
ENDMDL
MODEL 9
REMARK VINA RESULT:      -8.7      9.923     11.523
REMARK  Name = 5289247
REMARK  1 active torsions:
REMARK  status: ('A' for Active; 'I' for Inactive)
REMARK    1  A    between atoms: C_3  and  C_15
REMARK                            x       y       z     vdW  Elec       q    Type
REMARK                         _______ _______ _______ _____ _____    ______ ____
ROOT
ATOM      1  N   UNL     1      30.330 -25.090 -14.072  0.00  0.00    -0.241 NA
ATOM      2  N   UNL     1      30.552 -23.561 -16.381  0.00  0.00    -0.241 NA
ATOM      3  C   UNL     1      33.819 -24.026 -13.870  0.00  0.00    +0.002 C 
ATOM      4  C   UNL     1      31.493 -24.493 -14.390  0.00  0.00    +0.099 C 
ATOM      5  C   UNL     1      32.603 -24.635 -13.562  0.00  0.00    +0.021 C 
ATOM      6  C   UNL     1      31.605 -23.719 -15.560  0.00  0.00    +0.099 C 
ATOM      7  C   UNL     1      33.930 -23.263 -15.023  0.00  0.00    +0.002 C 
ATOM      8  C   UNL     1      32.824 -23.115 -15.858  0.00  0.00    +0.021 C 
ATOM      9  C   UNL     1      29.289 -24.919 -14.907  0.00  0.00    +0.119 C 
ATOM     10  C   UNL     1      29.398 -24.165 -16.045  0.00  0.00    +0.119 C 
ENDROOT
BRANCH   3  15
ATOM     11  S   UNL     1      36.424 -25.724 -14.722  0.00  0.00    -0.025 S 
ATOM     12  O   UNL     1      37.252 -24.503 -11.194  0.00  0.00    -0.269 OA
ATOM     13  O   UNL     1      38.759 -26.947 -14.831  0.00  0.00    -0.262 OA
ATOM     14  N   UNL     1      38.211 -25.770 -12.894  0.00  0.00    -0.243 N 
ATOM     15  C   UNL     1      34.964 -24.190 -12.987  0.00  0.00    +0.011 C 
ATOM     16  C   UNL     1      36.091 -24.879 -13.259  0.00  0.00    +0.087 C 
ATOM     17  C   UNL     1      37.220 -25.004 -12.308  0.00  0.00    +0.258 C 
ATOM     18  C   UNL     1      38.004 -26.257 -14.163  0.00  0.00    +0.283 C 
ATOM     19  H   UNL     1      39.047 -25.963 -12.412  0.00  0.00    +0.159 HD
ENDBRANCH   3  15
TORSDOF 1
ENDMDL
