MODEL 1
REMARK VINA RESULT:      -9.2      0.000      0.000
REMARK  Name = 50515
REMARK  4 active torsions:
REMARK  status: ('A' for Active; 'I' for Inactive)
REMARK    1  A    between atoms: N_3  and  C_19
REMARK    2  A    between atoms: C_13  and  N_16
REMARK    3  A    between atoms: C_19  and  C_20
REMARK    4  A    between atoms: C_20  and  N_21
REMARK                            x       y       z     vdW  Elec       q    Type
REMARK                         _______ _______ _______ _____ _____    ______ ____
ROOT
ATOM      1  O   UNL     1      34.944 -16.538 -20.192  0.00  0.00    -0.269 OA
ATOM      2  O   UNL     1      35.380 -17.915 -24.629  0.00  0.00    -0.269 OA
ATOM      3  N   UNL     1      35.144 -17.311 -22.384  0.00  0.00    -0.225 N 
ATOM      4  C   UNL     1      33.590 -15.132 -23.217  0.00  0.00    +0.009 C 
ATOM      5  C   UNL     1      33.859 -15.291 -21.850  0.00  0.00    +0.055 C 
ATOM      6  C   UNL     1      34.089 -16.019 -24.181  0.00  0.00    +0.054 C 
ATOM      7  C   UNL     1      34.690 -16.425 -21.390  0.00  0.00    +0.255 C 
ATOM      8  C   UNL     1      32.791 -14.038 -23.636  0.00  0.00    +0.002 C 
ATOM      9  C   UNL     1      34.925 -17.167 -23.767  0.00  0.00    +0.255 C 
ATOM     10  C   UNL     1      33.349 -14.388 -20.909  0.00  0.00    +0.019 C 
ATOM     11  C   UNL     1      33.805 -15.832 -25.540  0.00  0.00    +0.005 C 
ATOM     12  C   UNL     1      32.287 -13.143 -22.682  0.00  0.00    +0.014 C 
ATOM     13  C   UNL     1      32.564 -13.317 -21.328  0.00  0.00    +0.042 C 
ATOM     14  C   UNL     1      32.515 -13.866 -25.001  0.00  0.00    +0.000 C 
ATOM     15  C   UNL     1      33.019 -14.757 -25.945  0.00  0.00    +0.000 C 
ENDROOT
BRANCH  13  16
ATOM     16  N   UNL     1      32.051 -12.407 -20.381  0.00  0.00    -0.357 N 
ATOM     17  H   UNL     1      31.156 -12.550 -19.995  0.00  0.00    +0.142 HD
ATOM     18  H   UNL     1      32.586 -11.628 -20.106  0.00  0.00    +0.142 HD
ENDBRANCH  13  16
BRANCH   3  19
ATOM     19  C   UNL     1      35.905 -18.476 -21.946  0.00  0.00    +0.079 C 
BRANCH  19  20
ATOM     20  C   UNL     1      35.011 -19.700 -21.812  0.00  0.00    -0.055 C 
BRANCH  20  21
ATOM     21  N   UNL     1      34.634 -19.902 -20.419  0.00  0.00    +0.385 N 
ATOM     22  C   UNL     1      35.460 -20.944 -19.806  0.00  0.00    -0.101 C 
ATOM     23  C   UNL     1      33.216 -20.251 -20.312  0.00  0.00    -0.101 C 
ATOM     24  H   UNL     1      34.791 -19.027 -19.919  0.00  0.00    -0.080 HD
ENDBRANCH  20  21
ENDBRANCH  19  20
ENDBRANCH   3  19
TORSDOF 4
ENDMDL
MODEL 2
REMARK VINA RESULT:      -9.1      1.381      3.253
REMARK  Name = 50515
REMARK  4 active torsions:
REMARK  status: ('A' for Active; 'I' for Inactive)
REMARK    1  A    between atoms: N_3  and  C_19
REMARK    2  A    between atoms: C_13  and  N_16
REMARK    3  A    between atoms: C_19  and  C_20
REMARK    4  A    between atoms: C_20  and  N_21
REMARK                            x       y       z     vdW  Elec       q    Type
REMARK                         _______ _______ _______ _____ _____    ______ ____
ROOT
ATOM      1  O   UNL     1      35.211 -17.751 -24.661  0.00  0.00    -0.269 OA
ATOM      2  O   UNL     1      35.028 -16.734 -20.111  0.00  0.00    -0.269 OA
ATOM      3  N   UNL     1      35.208 -17.255 -22.381  0.00  0.00    -0.225 N 
ATOM      4  C   UNL     1      33.572 -15.049 -22.937  0.00  0.00    +0.009 C 
ATOM      5  C   UNL     1      34.007 -15.856 -23.998  0.00  0.00    +0.055 C 
ATOM      6  C   UNL     1      33.915 -15.323 -21.606  0.00  0.00    +0.054 C 
ATOM      7  C   UNL     1      34.859 -17.034 -23.726  0.00  0.00    +0.255 C 
ATOM      8  C   UNL     1      32.756 -13.924 -23.220  0.00  0.00    +0.002 C 
ATOM      9  C   UNL     1      34.765 -16.491 -21.287  0.00  0.00    +0.255 C 
ATOM     10  C   UNL     1      33.647 -15.559 -25.318  0.00  0.00    +0.019 C 
ATOM     11  C   UNL     1      33.461 -14.499 -20.566  0.00  0.00    +0.005 C 
ATOM     12  C   UNL     1      32.405 -13.639 -24.547  0.00  0.00    +0.014 C 
ATOM     13  C   UNL     1      32.848 -14.452 -25.589  0.00  0.00    +0.042 C 
ATOM     14  C   UNL     1      32.312 -13.109 -22.168  0.00  0.00    +0.000 C 
ATOM     15  C   UNL     1      32.663 -13.396 -20.851  0.00  0.00    +0.000 C 
ENDROOT
BRANCH  13  16
ATOM     16  N   UNL     1      32.484 -14.154 -26.919  0.00  0.00    -0.357 N 
ATOM     17  H   UNL     1      33.069 -14.427 -27.662  0.00  0.00    +0.142 HD
ATOM     18  H   UNL     1      31.646 -13.671 -27.103  0.00  0.00    +0.142 HD
ENDBRANCH  13  16
BRANCH   3  19
ATOM     19  C   UNL     1      36.105 -18.370 -22.098  0.00  0.00    +0.079 C 
BRANCH  19  20
ATOM     20  C   UNL     1      35.331 -19.668 -21.917  0.00  0.00    -0.055 C 
BRANCH  20  21
ATOM     21  N   UNL     1      34.976 -19.855 -20.517  0.00  0.00    +0.385 N 
ATOM     22  C   UNL     1      35.795 -20.909 -19.913  0.00  0.00    -0.101 C 
ATOM     23  C   UNL     1      33.554 -20.178 -20.382  0.00  0.00    -0.101 C 
ATOM     24  H   UNL     1      35.158 -18.980 -20.024  0.00  0.00    -0.080 HD
ENDBRANCH  20  21
ENDBRANCH  19  20
ENDBRANCH   3  19
TORSDOF 4
ENDMDL
MODEL 3
REMARK VINA RESULT:      -8.8      8.409     11.190
REMARK  Name = 50515
REMARK  4 active torsions:
REMARK  status: ('A' for Active; 'I' for Inactive)
REMARK    1  A    between atoms: N_3  and  C_19
REMARK    2  A    between atoms: C_13  and  N_16
REMARK    3  A    between atoms: C_19  and  C_20
REMARK    4  A    between atoms: C_20  and  N_21
REMARK                            x       y       z     vdW  Elec       q    Type
REMARK                         _______ _______ _______ _____ _____    ______ ____
ROOT
ATOM      1  O   UNL     1      36.782 -23.208 -16.066  0.00  0.00    -0.269 OA
ATOM      2  O   UNL     1      34.472 -24.341 -12.173  0.00  0.00    -0.269 OA
ATOM      3  N   UNL     1      35.681 -23.718 -14.073  0.00  0.00    -0.225 N 
ATOM      4  C   UNL     1      33.245 -23.403 -15.423  0.00  0.00    +0.009 C 
ATOM      5  C   UNL     1      34.442 -23.191 -16.123  0.00  0.00    +0.055 C 
ATOM      6  C   UNL     1      33.231 -23.785 -14.075  0.00  0.00    +0.054 C 
ATOM      7  C   UNL     1      35.739 -23.367 -15.435  0.00  0.00    +0.255 C 
ATOM      8  C   UNL     1      32.013 -23.229 -16.102  0.00  0.00    +0.002 C 
ATOM      9  C   UNL     1      34.504 -23.974 -13.346  0.00  0.00    +0.255 C 
ATOM     10  C   UNL     1      34.426 -22.812 -17.471  0.00  0.00    +0.019 C 
ATOM     11  C   UNL     1      32.018 -23.993 -13.403  0.00  0.00    +0.005 C 
ATOM     12  C   UNL     1      32.013 -22.847 -17.452  0.00  0.00    +0.014 C 
ATOM     13  C   UNL     1      33.212 -22.641 -18.130  0.00  0.00    +0.042 C 
ATOM     14  C   UNL     1      30.808 -23.439 -15.414  0.00  0.00    +0.000 C 
ATOM     15  C   UNL     1      30.812 -23.818 -14.074  0.00  0.00    +0.000 C 
ENDROOT
BRANCH  13  16
ATOM     16  N   UNL     1      33.195 -22.260 -19.489  0.00  0.00    -0.357 N 
ATOM     17  H   UNL     1      32.832 -21.382 -19.749  0.00  0.00    +0.142 HD
ATOM     18  H   UNL     1      33.545 -22.870 -20.176  0.00  0.00    +0.142 HD
ENDBRANCH  13  16
BRANCH   3  19
ATOM     19  C   UNL     1      36.947 -23.828 -13.356  0.00  0.00    +0.079 C 
BRANCH  19  20
ATOM     20  C   UNL     1      37.436 -25.269 -13.319  0.00  0.00    -0.055 C 
BRANCH  20  21
ATOM     21  N   UNL     1      37.930 -25.670 -14.630  0.00  0.00    +0.385 N 
ATOM     22  C   UNL     1      37.231 -26.868 -15.101  0.00  0.00    -0.101 C 
ATOM     23  C   UNL     1      39.374 -25.909 -14.586  0.00  0.00    -0.101 C 
ATOM     24  H   UNL     1      37.746 -24.910 -15.284  0.00  0.00    -0.080 HD
ENDBRANCH  20  21
ENDBRANCH  19  20
ENDBRANCH   3  19
TORSDOF 4
ENDMDL
MODEL 4
REMARK VINA RESULT:      -8.8      8.759     10.969
REMARK  Name = 50515
REMARK  4 active torsions:
REMARK  status: ('A' for Active; 'I' for Inactive)
REMARK    1  A    between atoms: N_3  and  C_19
REMARK    2  A    between atoms: C_13  and  N_16
REMARK    3  A    between atoms: C_19  and  C_20
REMARK    4  A    between atoms: C_20  and  N_21
REMARK                            x       y       z     vdW  Elec       q    Type
REMARK                         _______ _______ _______ _____ _____    ______ ____
ROOT
ATOM      1  O   UNL     1      34.423 -24.238 -12.339  0.00  0.00    -0.269 OA
ATOM      2  O   UNL     1      37.638 -22.644 -15.321  0.00  0.00    -0.269 OA
ATOM      3  N   UNL     1      36.085 -23.508 -13.804  0.00  0.00    -0.225 N 
ATOM      4  C   UNL     1      34.121 -23.243 -15.786  0.00  0.00    +0.009 C 
ATOM      5  C   UNL     1      33.748 -23.716 -14.519  0.00  0.00    +0.055 C 
ATOM      6  C   UNL     1      35.441 -22.880 -16.085  0.00  0.00    +0.054 C 
ATOM      7  C   UNL     1      34.766 -23.850 -13.454  0.00  0.00    +0.255 C 
ATOM      8  C   UNL     1      33.129 -23.123 -16.792  0.00  0.00    +0.002 C 
ATOM      9  C   UNL     1      36.493 -22.997 -15.050  0.00  0.00    +0.255 C 
ATOM     10  C   UNL     1      32.421 -24.069 -14.248  0.00  0.00    +0.019 C 
ATOM     11  C   UNL     1      35.782 -22.407 -17.359  0.00  0.00    +0.005 C 
ATOM     12  C   UNL     1      31.804 -23.480 -16.505  0.00  0.00    +0.014 C 
ATOM     13  C   UNL     1      31.453 -23.950 -15.242  0.00  0.00    +0.042 C 
ATOM     14  C   UNL     1      33.487 -22.648 -18.063  0.00  0.00    +0.000 C 
ATOM     15  C   UNL     1      34.805 -22.293 -18.343  0.00  0.00    +0.000 C 
ENDROOT
BRANCH  13  16
ATOM     16  N   UNL     1      30.115 -24.303 -14.968  0.00  0.00    -0.357 N 
ATOM     17  H   UNL     1      29.551 -23.709 -14.421  0.00  0.00    +0.142 HD
ATOM     18  H   UNL     1      29.745 -25.144 -15.323  0.00  0.00    +0.142 HD
ENDBRANCH  13  16
BRANCH   3  19
ATOM     19  C   UNL     1      37.117 -23.699 -12.791  0.00  0.00    +0.079 C 
BRANCH  19  20
ATOM     20  C   UNL     1      37.622 -25.135 -12.783  0.00  0.00    -0.055 C 
BRANCH  20  21
ATOM     21  N   UNL     1      38.197 -25.476 -14.078  0.00  0.00    +0.385 N 
ATOM     22  C   UNL     1      37.601 -26.709 -14.598  0.00  0.00    -0.101 C 
ATOM     23  C   UNL     1      39.651 -25.619 -13.976  0.00  0.00    -0.101 C 
ATOM     24  H   UNL     1      37.990 -24.717 -14.726  0.00  0.00    -0.080 HD
ENDBRANCH  20  21
ENDBRANCH  19  20
ENDBRANCH   3  19
TORSDOF 4
ENDMDL
MODEL 5
REMARK VINA RESULT:      -8.6      3.725      8.732
REMARK  Name = 50515
REMARK  4 active torsions:
REMARK  status: ('A' for Active; 'I' for Inactive)
REMARK    1  A    between atoms: N_3  and  C_19
REMARK    2  A    between atoms: C_13  and  N_16
REMARK    3  A    between atoms: C_19  and  C_20
REMARK    4  A    between atoms: C_20  and  N_21
REMARK                            x       y       z     vdW  Elec       q    Type
REMARK                         _______ _______ _______ _____ _____    ______ ____
ROOT
ATOM      1  O   UNL     1      32.645 -21.653 -20.069  0.00  0.00    -0.269 OA
ATOM      2  O   UNL     1      37.213 -20.786 -19.670  0.00  0.00    -0.269 OA
ATOM      3  N   UNL     1      34.913 -21.135 -19.897  0.00  0.00    -0.225 N 
ATOM      4  C   UNL     1      34.941 -22.409 -17.401  0.00  0.00    +0.009 C 
ATOM      5  C   UNL     1      33.735 -22.338 -18.114  0.00  0.00    +0.055 C 
ATOM      6  C   UNL     1      36.136 -21.879 -17.907  0.00  0.00    +0.054 C 
ATOM      7  C   UNL     1      33.701 -21.683 -19.440  0.00  0.00    +0.255 C 
ATOM      8  C   UNL     1      34.951 -23.041 -16.132  0.00  0.00    +0.002 C 
ATOM      9  C   UNL     1      36.149 -21.216 -19.229  0.00  0.00    +0.255 C 
ATOM     10  C   UNL     1      32.557 -22.879 -17.585  0.00  0.00    +0.019 C 
ATOM     11  C   UNL     1      37.326 -21.969 -17.172  0.00  0.00    +0.005 C 
ATOM     12  C   UNL     1      33.762 -23.577 -15.615  0.00  0.00    +0.014 C 
ATOM     13  C   UNL     1      32.574 -23.496 -16.337  0.00  0.00    +0.042 C 
ATOM     14  C   UNL     1      36.150 -23.121 -15.408  0.00  0.00    +0.000 C 
ATOM     15  C   UNL     1      37.329 -22.588 -15.926  0.00  0.00    +0.000 C 
ENDROOT
BRANCH  13  16
ATOM     16  N   UNL     1      31.387 -24.041 -15.805  0.00  0.00    -0.357 N 
ATOM     17  H   UNL     1      31.430 -24.652 -15.033  0.00  0.00    +0.142 HD
ATOM     18  H   UNL     1      30.518 -23.813 -16.204  0.00  0.00    +0.142 HD
ENDBRANCH  13  16
BRANCH   3  19
ATOM     19  C   UNL     1      34.887 -20.423 -21.170  0.00  0.00    +0.079 C 
BRANCH  19  20
ATOM     20  C   UNL     1      34.337 -19.013 -21.002  0.00  0.00    -0.055 C 
BRANCH  20  21
ATOM     21  N   UNL     1      35.425 -18.044 -20.988  0.00  0.00    +0.385 N 
ATOM     22  C   UNL     1      34.898 -16.677 -21.002  0.00  0.00    -0.101 C 
ATOM     23  C   UNL     1      36.320 -18.255 -22.127  0.00  0.00    -0.101 C 
ATOM     24  H   UNL     1      35.957 -18.177 -20.128  0.00  0.00    -0.080 HD
ENDBRANCH  20  21
ENDBRANCH  19  20
ENDBRANCH   3  19
TORSDOF 4
ENDMDL
MODEL 6
REMARK VINA RESULT:      -8.6      2.700      6.692
REMARK  Name = 50515
REMARK  4 active torsions:
REMARK  status: ('A' for Active; 'I' for Inactive)
REMARK    1  A    between atoms: N_3  and  C_19
REMARK    2  A    between atoms: C_13  and  N_16
REMARK    3  A    between atoms: C_19  and  C_20
REMARK    4  A    between atoms: C_20  and  N_21
REMARK                            x       y       z     vdW  Elec       q    Type
REMARK                         _______ _______ _______ _____ _____    ______ ____
ROOT
ATOM      1  O   UNL     1      33.513 -15.548 -26.564  0.00  0.00    -0.269 OA
ATOM      2  O   UNL     1      33.633 -12.997 -22.659  0.00  0.00    -0.269 OA
ATOM      3  N   UNL     1      33.492 -14.239 -24.633  0.00  0.00    -0.225 N 
ATOM      4  C   UNL     1      34.382 -16.474 -23.195  0.00  0.00    +0.009 C 
ATOM      5  C   UNL     1      34.146 -16.602 -24.572  0.00  0.00    +0.055 C 
ATOM      6  C   UNL     1      34.206 -15.259 -22.521  0.00  0.00    +0.054 C 
ATOM      7  C   UNL     1      33.689 -15.432 -25.353  0.00  0.00    +0.255 C 
ATOM      8  C   UNL     1      34.819 -17.609 -22.466  0.00  0.00    +0.002 C 
ATOM      9  C   UNL     1      33.751 -14.061 -23.262  0.00  0.00    +0.255 C 
ATOM     10  C   UNL     1      34.333 -17.829 -25.220  0.00  0.00    +0.019 C 
ATOM     11  C   UNL     1      34.454 -15.161 -21.145  0.00  0.00    +0.005 C 
ATOM     12  C   UNL     1      35.002 -18.831 -23.129  0.00  0.00    +0.014 C 
ATOM     13  C   UNL     1      34.760 -18.939 -24.497  0.00  0.00    +0.042 C 
ATOM     14  C   UNL     1      35.062 -17.495 -21.089  0.00  0.00    +0.000 C 
ATOM     15  C   UNL     1      34.880 -16.279 -20.434  0.00  0.00    +0.000 C 
ENDROOT
BRANCH  13  16
ATOM     16  N   UNL     1      34.951 -20.175 -25.150  0.00  0.00    -0.357 N 
ATOM     17  H   UNL     1      34.815 -21.018 -24.658  0.00  0.00    +0.142 HD
ATOM     18  H   UNL     1      35.220 -20.196 -26.096  0.00  0.00    +0.142 HD
ENDBRANCH  13  16
BRANCH   3  19
ATOM     19  C   UNL     1      32.974 -13.091 -25.370  0.00  0.00    +0.079 C 
BRANCH  19  20
ATOM     20  C   UNL     1      34.105 -12.270 -25.975  0.00  0.00    -0.055 C 
BRANCH  20  21
ATOM     21  N   UNL     1      34.554 -11.255 -25.032  0.00  0.00    +0.385 N 
ATOM     22  C   UNL     1      33.411 -10.530 -24.471  0.00  0.00    -0.101 C 
ATOM     23  C   UNL     1      35.479 -10.322 -25.678  0.00  0.00    -0.101 C 
ATOM     24  H   UNL     1      35.045 -11.724 -24.271  0.00  0.00    -0.080 HD
ENDBRANCH  20  21
ENDBRANCH  19  20
ENDBRANCH   3  19
TORSDOF 4
ENDMDL
MODEL 7
REMARK VINA RESULT:      -8.5      7.797     10.594
REMARK  Name = 50515
REMARK  4 active torsions:
REMARK  status: ('A' for Active; 'I' for Inactive)
REMARK    1  A    between atoms: N_3  and  C_19
REMARK    2  A    between atoms: C_13  and  N_16
REMARK    3  A    between atoms: C_19  and  C_20
REMARK    4  A    between atoms: C_20  and  N_21
REMARK                            x       y       z     vdW  Elec       q    Type
REMARK                         _______ _______ _______ _____ _____    ______ ____
ROOT
ATOM      1  O   UNL     1      31.827 -23.015 -17.777  0.00  0.00    -0.269 OA
ATOM      2  O   UNL     1      33.045 -24.213 -13.435  0.00  0.00    -0.269 OA
ATOM      3  N   UNL     1      32.389 -23.691 -15.616  0.00  0.00    -0.225 N 
ATOM      4  C   UNL     1      35.032 -22.920 -16.141  0.00  0.00    +0.009 C 
ATOM      5  C   UNL     1      34.071 -22.782 -17.153  0.00  0.00    +0.055 C 
ATOM      6  C   UNL     1      34.708 -23.414 -14.871  0.00  0.00    +0.054 C 
ATOM      7  C   UNL     1      32.667 -23.168 -16.893  0.00  0.00    +0.255 C 
ATOM      8  C   UNL     1      36.372 -22.544 -16.412  0.00  0.00    +0.002 C 
ATOM      9  C   UNL     1      33.316 -23.813 -14.565  0.00  0.00    +0.255 C 
ATOM     10  C   UNL     1      34.423 -22.283 -18.413  0.00  0.00    +0.019 C 
ATOM     11  C   UNL     1      35.691 -23.537 -13.879  0.00  0.00    +0.005 C 
ATOM     12  C   UNL     1      36.710 -22.046 -17.680  0.00  0.00    +0.014 C 
ATOM     13  C   UNL     1      35.741 -21.917 -18.672  0.00  0.00    +0.042 C 
ATOM     14  C   UNL     1      37.344 -22.675 -15.409  0.00  0.00    +0.000 C 
ATOM     15  C   UNL     1      37.004 -23.168 -14.151  0.00  0.00    +0.000 C 
ENDROOT
BRANCH  13  16
ATOM     16  N   UNL     1      36.096 -21.413 -19.941  0.00  0.00    -0.357 N 
ATOM     17  H   UNL     1      37.045 -21.292 -20.175  0.00  0.00    +0.142 HD
ATOM     18  H   UNL     1      35.396 -21.182 -20.593  0.00  0.00    +0.142 HD
ENDBRANCH  13  16
BRANCH   3  19
ATOM     19  C   UNL     1      31.026 -24.144 -15.361  0.00  0.00    +0.079 C 
BRANCH  19  20
ATOM     20  C   UNL     1      30.083 -22.967 -15.161  0.00  0.00    -0.055 C 
BRANCH  20  21
ATOM     21  N   UNL     1      29.055 -22.961 -16.193  0.00  0.00    +0.385 N 
ATOM     22  C   UNL     1      27.855 -22.265 -15.722  0.00  0.00    -0.101 C 
ATOM     23  C   UNL     1      28.722 -24.327 -16.600  0.00  0.00    -0.101 C 
ATOM     24  H   UNL     1      29.422 -22.461 -17.003  0.00  0.00    -0.080 HD
ENDBRANCH  20  21
ENDBRANCH  19  20
ENDBRANCH   3  19
TORSDOF 4
ENDMDL
MODEL 8
REMARK VINA RESULT:      -8.4      8.489     10.816
REMARK  Name = 50515
REMARK  4 active torsions:
REMARK  status: ('A' for Active; 'I' for Inactive)
REMARK    1  A    between atoms: N_3  and  C_19
REMARK    2  A    between atoms: C_13  and  N_16
REMARK    3  A    between atoms: C_19  and  C_20
REMARK    4  A    between atoms: C_20  and  N_21
REMARK                            x       y       z     vdW  Elec       q    Type
REMARK                         _______ _______ _______ _____ _____    ______ ____
ROOT
ATOM      1  O   UNL     1      32.698 -24.569 -13.334  0.00  0.00    -0.269 OA
ATOM      2  O   UNL     1      31.807 -23.169 -17.695  0.00  0.00    -0.269 OA
ATOM      3  N   UNL     1      32.179 -23.826 -15.484  0.00  0.00    -0.225 N 
ATOM      4  C   UNL     1      34.868 -23.105 -15.806  0.00  0.00    +0.009 C 
ATOM      5  C   UNL     1      34.455 -23.657 -14.585  0.00  0.00    +0.055 C 
ATOM      6  C   UNL     1      33.982 -22.921 -16.876  0.00  0.00    +0.054 C 
ATOM      7  C   UNL     1      33.043 -24.059 -14.398  0.00  0.00    +0.255 C 
ATOM      8  C   UNL     1      36.226 -22.727 -15.963  0.00  0.00    +0.002 C 
ATOM      9  C   UNL     1      32.561 -23.308 -16.735  0.00  0.00    +0.255 C 
ATOM     10  C   UNL     1      35.363 -23.833 -13.534  0.00  0.00    +0.019 C 
ATOM     11  C   UNL     1      34.426 -22.370 -18.086  0.00  0.00    +0.005 C 
ATOM     12  C   UNL     1      37.123 -22.908 -14.901  0.00  0.00    +0.014 C 
ATOM     13  C   UNL     1      36.694 -23.457 -13.695  0.00  0.00    +0.042 C 
ATOM     14  C   UNL     1      36.654 -22.176 -17.180  0.00  0.00    +0.000 C 
ATOM     15  C   UNL     1      35.759 -21.999 -18.233  0.00  0.00    +0.000 C 
ENDROOT
BRANCH  13  16
ATOM     16  N   UNL     1      37.609 -23.635 -12.636  0.00  0.00    -0.357 N 
ATOM     17  H   UNL     1      38.179 -22.885 -12.348  0.00  0.00    +0.142 HD
ATOM     18  H   UNL     1      37.679 -24.507 -12.187  0.00  0.00    +0.142 HD
ENDBRANCH  13  16
BRANCH   3  19
ATOM     19  C   UNL     1      30.769 -24.149 -15.297  0.00  0.00    +0.079 C 
BRANCH  19  20
ATOM     20  C   UNL     1      29.928 -22.887 -15.164  0.00  0.00    -0.055 C 
BRANCH  20  21
ATOM     21  N   UNL     1      28.893 -22.858 -16.188  0.00  0.00    +0.385 N 
ATOM     22  C   UNL     1      27.677 -22.220 -15.677  0.00  0.00    -0.101 C 
ATOM     23  C   UNL     1      28.594 -24.212 -16.660  0.00  0.00    -0.101 C 
ATOM     24  H   UNL     1      29.241 -22.309 -16.975  0.00  0.00    -0.080 HD
ENDBRANCH  20  21
ENDBRANCH  19  20
ENDBRANCH   3  19
TORSDOF 4
ENDMDL
MODEL 9
REMARK VINA RESULT:      -8.4      1.829      5.618
REMARK  Name = 50515
REMARK  4 active torsions:
REMARK  status: ('A' for Active; 'I' for Inactive)
REMARK    1  A    between atoms: N_3  and  C_19
REMARK    2  A    between atoms: C_13  and  N_16
REMARK    3  A    between atoms: C_19  and  C_20
REMARK    4  A    between atoms: C_20  and  N_21
REMARK                            x       y       z     vdW  Elec       q    Type
REMARK                         _______ _______ _______ _____ _____    ______ ____
ROOT
ATOM      1  O   UNL     1      34.695 -15.128 -20.271  0.00  0.00    -0.269 OA
ATOM      2  O   UNL     1      33.248 -14.666 -24.683  0.00  0.00    -0.269 OA
ATOM      3  N   UNL     1      34.015 -14.817 -22.481  0.00  0.00    -0.225 N 
ATOM      4  C   UNL     1      34.739 -17.475 -23.000  0.00  0.00    +0.009 C 
ATOM      5  C   UNL     1      34.935 -16.957 -21.712  0.00  0.00    +0.055 C 
ATOM      6  C   UNL     1      34.175 -16.711 -24.031  0.00  0.00    +0.054 C 
ATOM      7  C   UNL     1      34.546 -15.562 -21.412  0.00  0.00    +0.255 C 
ATOM      8  C   UNL     1      35.118 -18.815 -23.266  0.00  0.00    +0.002 C 
ATOM      9  C   UNL     1      33.771 -15.310 -23.776  0.00  0.00    +0.255 C 
ATOM     10  C   UNL     1      35.498 -17.745 -20.701  0.00  0.00    +0.019 C 
ATOM     11  C   UNL     1      33.988 -17.257 -25.308  0.00  0.00    +0.005 C 
ATOM     12  C   UNL     1      35.682 -19.592 -22.244  0.00  0.00    +0.014 C 
ATOM     13  C   UNL     1      35.870 -19.059 -20.970  0.00  0.00    +0.042 C 
ATOM     14  C   UNL     1      34.926 -19.347 -24.550  0.00  0.00    +0.000 C 
ATOM     15  C   UNL     1      34.365 -18.572 -25.563  0.00  0.00    +0.000 C 
ENDROOT
BRANCH  13  16
ATOM     16  N   UNL     1      36.437 -19.854 -19.951  0.00  0.00    -0.357 N 
ATOM     17  H   UNL     1      35.876 -20.174 -19.207  0.00  0.00    +0.142 HD
ATOM     18  H   UNL     1      37.391 -20.089 -19.984  0.00  0.00    +0.142 HD
ENDBRANCH  13  16
BRANCH   3  19
ATOM     19  C   UNL     1      33.691 -13.418 -22.226  0.00  0.00    +0.079 C 
BRANCH  19  20
ATOM     20  C   UNL     1      32.274 -13.270 -21.690  0.00  0.00    -0.055 C 
BRANCH  20  21
ATOM     21  N   UNL     1      31.619 -12.121 -22.300  0.00  0.00    +0.385 N 
ATOM     22  C   UNL     1      32.594 -11.284 -23.003  0.00  0.00    -0.101 C 
ATOM     23  C   UNL     1      30.911 -11.333 -21.289  0.00  0.00    -0.101 C 
ATOM     24  H   UNL     1      30.940 -12.466 -22.977  0.00  0.00    -0.080 HD
ENDBRANCH  20  21
ENDBRANCH  19  20
ENDBRANCH   3  19
TORSDOF 4
ENDMDL
