MODEL 1
REMARK VINA RESULT:      -7.2      0.000      0.000
REMARK  Name = 5288266
REMARK  13 active torsions:
REMARK  status: ('A' for Active; 'I' for Inactive)
REMARK    1  A    between atoms: C_1  and  C_2
REMARK    2  A    between atoms: C_1  and  C_11
REMARK    3  A    between atoms: C_2  and  C_3
REMARK    4  A    between atoms: C_3  and  C_4
REMARK    5  A    between atoms: C_4  and  C_5
REMARK    6  A    between atoms: C_5  and  C_6
REMARK    7  A    between atoms: C_7  and  C_8
REMARK    8  A    between atoms: C_8  and  C_9
REMARK    9  A    between atoms: C_11  and  C_12
REMARK   10  A    between atoms: C_12  and  O_13
REMARK   11  A    between atoms: C_12  and  C_15
REMARK   12  A    between atoms: C_15  and  C_17
REMARK   13  A    between atoms: C_17  and  O_18
REMARK                            x       y       z     vdW  Elec       q    Type
REMARK                         _______ _______ _______ _____ _____    ______ ____
ROOT
ATOM      1  C   UNL     1      35.637 -24.232 -15.057  0.00  0.00    +0.002 C 
ENDROOT
BRANCH   1   2
ATOM      2  C   UNL     1      34.992 -23.063 -15.807  0.00  0.00    +0.000 C 
BRANCH   2   3
ATOM      3  C   UNL     1      33.662 -23.425 -16.472  0.00  0.00    +0.000 C 
BRANCH   3   4
ATOM      4  C   UNL     1      33.484 -22.800 -17.857  0.00  0.00    +0.005 C 
BRANCH   4   5
ATOM      5  C   UNL     1      34.836 -22.458 -18.488  0.00  0.00    +0.026 C 
BRANCH   5   6
ATOM      6  C   UNL     1      34.733 -21.477 -19.660  0.00  0.00    -0.031 C 
ATOM      7  C   UNL     1      33.360 -20.831 -19.868  0.00  0.00    -0.031 C 
BRANCH   7   8
ATOM      8  C   UNL     1      33.272 -19.810 -21.006  0.00  0.00    +0.026 C 
BRANCH   8   9
ATOM      9  C   UNL     1      34.638 -19.343 -21.510  0.00  0.00    +0.005 C 
ATOM     10  C   UNL     1      34.584 -18.958 -22.981  0.00  0.00    +0.000 C 
ENDBRANCH   8   9
ENDBRANCH   7   8
ENDBRANCH   5   6
ENDBRANCH   4   5
ENDBRANCH   3   4
ENDBRANCH   2   3
ENDBRANCH   1   2
BRANCH   1  11
ATOM     11  C   UNL     1      37.167 -24.180 -15.160  0.00  0.00    +0.030 C 
BRANCH  11  12
ATOM     12  C   UNL     1      37.824 -25.437 -14.576  0.00  0.00    +0.122 C 
BRANCH  12  13
ATOM     13  O   UNL     1      37.886 -26.467 -15.560  0.00  0.00    -0.384 OA
ATOM     14  H   UNL     1      38.441 -27.193 -15.234  0.00  0.00    +0.210 HD
ENDBRANCH  12  13
BRANCH  12  15
ATOM     15  C   UNL     1      39.219 -25.185 -14.002  0.00  0.00    +0.138 C 
BRANCH  15  17
ATOM     16  O   UNL     1      41.051 -26.759 -14.184  0.00  0.00    -0.250 OA
ATOM     17  C   UNL     1      40.312 -25.941 -14.713  0.00  0.00    +0.316 C 
BRANCH  17  18
ATOM     18  O   UNL     1      40.382 -25.591 -16.021  0.00  0.00    -0.480 OA
ATOM     19  H   UNL     1      40.569 -24.704 -16.259  0.00  0.00    +0.295 HD
ENDBRANCH  17  18
ENDBRANCH  15  17
ENDBRANCH  12  15
ENDBRANCH  11  12
ENDBRANCH   1  11
TORSDOF 13
ENDMDL
MODEL 2
REMARK VINA RESULT:      -7.1      6.144      8.424
REMARK  Name = 5288266
REMARK  13 active torsions:
REMARK  status: ('A' for Active; 'I' for Inactive)
REMARK    1  A    between atoms: C_1  and  C_2
REMARK    2  A    between atoms: C_1  and  C_11
REMARK    3  A    between atoms: C_2  and  C_3
REMARK    4  A    between atoms: C_3  and  C_4
REMARK    5  A    between atoms: C_4  and  C_5
REMARK    6  A    between atoms: C_5  and  C_6
REMARK    7  A    between atoms: C_7  and  C_8
REMARK    8  A    between atoms: C_8  and  C_9
REMARK    9  A    between atoms: C_11  and  C_12
REMARK   10  A    between atoms: C_12  and  O_13
REMARK   11  A    between atoms: C_12  and  C_15
REMARK   12  A    between atoms: C_15  and  C_17
REMARK   13  A    between atoms: C_17  and  O_18
REMARK                            x       y       z     vdW  Elec       q    Type
REMARK                         _______ _______ _______ _____ _____    ______ ____
ROOT
ATOM      1  C   UNL     1      30.309 -23.512 -14.846  0.00  0.00    +0.002 C 
ENDROOT
BRANCH   1   2
ATOM      2  C   UNL     1      31.784 -23.536 -15.254  0.00  0.00    +0.000 C 
BRANCH   2   3
ATOM      3  C   UNL     1      32.026 -23.079 -16.694  0.00  0.00    +0.000 C 
BRANCH   3   4
ATOM      4  C   UNL     1      33.502 -23.089 -17.098  0.00  0.00    +0.005 C 
BRANCH   4   5
ATOM      5  C   UNL     1      33.660 -23.165 -18.619  0.00  0.00    +0.026 C 
BRANCH   5   6
ATOM      6  C   UNL     1      34.118 -21.847 -19.251  0.00  0.00    -0.031 C 
ATOM      7  C   UNL     1      33.051 -21.079 -20.037  0.00  0.00    -0.031 C 
BRANCH   7   8
ATOM      8  C   UNL     1      33.496 -19.735 -20.622  0.00  0.00    +0.026 C 
BRANCH   8   9
ATOM      9  C   UNL     1      34.990 -19.677 -20.944  0.00  0.00    +0.005 C 
ATOM     10  C   UNL     1      35.396 -18.299 -21.444  0.00  0.00    +0.000 C 
ENDBRANCH   8   9
ENDBRANCH   7   8
ENDBRANCH   5   6
ENDBRANCH   4   5
ENDBRANCH   3   4
ENDBRANCH   2   3
ENDBRANCH   1   2
BRANCH   1  11
ATOM     11  C   UNL     1      29.396 -23.769 -16.051  0.00  0.00    +0.030 C 
BRANCH  11  12
ATOM     12  C   UNL     1      28.096 -22.960 -15.969  0.00  0.00    +0.122 C 
BRANCH  12  13
ATOM     13  O   UNL     1      28.276 -21.815 -15.137  0.00  0.00    -0.384 OA
ATOM     14  H   UNL     1      28.297 -21.016 -15.687  0.00  0.00    +0.210 HD
ENDBRANCH  12  13
BRANCH  12  15
ATOM     15  C   UNL     1      27.559 -22.527 -17.334  0.00  0.00    +0.138 C 
BRANCH  15  17
ATOM     16  O   UNL     1      26.253 -20.597 -17.998  0.00  0.00    -0.250 OA
ATOM     17  C   UNL     1      26.410 -21.555 -17.253  0.00  0.00    +0.316 C 
BRANCH  17  18
ATOM     18  O   UNL     1      25.570 -21.870 -16.237  0.00  0.00    -0.480 OA
ATOM     19  H   UNL     1      25.267 -22.751 -16.136  0.00  0.00    +0.295 HD
ENDBRANCH  17  18
ENDBRANCH  15  17
ENDBRANCH  12  15
ENDBRANCH  11  12
ENDBRANCH   1  11
TORSDOF 13
ENDMDL
MODEL 3
REMARK VINA RESULT:      -7.1      5.387      7.200
REMARK  Name = 5288266
REMARK  13 active torsions:
REMARK  status: ('A' for Active; 'I' for Inactive)
REMARK    1  A    between atoms: C_1  and  C_2
REMARK    2  A    between atoms: C_1  and  C_11
REMARK    3  A    between atoms: C_2  and  C_3
REMARK    4  A    between atoms: C_3  and  C_4
REMARK    5  A    between atoms: C_4  and  C_5
REMARK    6  A    between atoms: C_5  and  C_6
REMARK    7  A    between atoms: C_7  and  C_8
REMARK    8  A    between atoms: C_8  and  C_9
REMARK    9  A    between atoms: C_11  and  C_12
REMARK   10  A    between atoms: C_12  and  O_13
REMARK   11  A    between atoms: C_12  and  C_15
REMARK   12  A    between atoms: C_15  and  C_17
REMARK   13  A    between atoms: C_17  and  O_18
REMARK                            x       y       z     vdW  Elec       q    Type
REMARK                         _______ _______ _______ _____ _____    ______ ____
ROOT
ATOM      1  C   UNL     1      32.748 -23.184 -15.980  0.00  0.00    +0.002 C 
ENDROOT
BRANCH   1   2
ATOM      2  C   UNL     1      32.515 -22.765 -17.434  0.00  0.00    +0.000 C 
BRANCH   2   3
ATOM      3  C   UNL     1      33.686 -23.101 -18.361  0.00  0.00    +0.000 C 
BRANCH   3   4
ATOM      4  C   UNL     1      34.126 -21.926 -19.237  0.00  0.00    +0.005 C 
BRANCH   4   5
ATOM      5  C   UNL     1      32.936 -21.040 -19.612  0.00  0.00    +0.026 C 
BRANCH   5   6
ATOM      6  C   UNL     1      33.258 -20.015 -20.703  0.00  0.00    -0.031 C 
ATOM      7  C   UNL     1      34.741 -19.676 -20.882  0.00  0.00    -0.031 C 
BRANCH   7   8
ATOM      8  C   UNL     1      35.068 -18.693 -22.010  0.00  0.00    +0.026 C 
BRANCH   8   9
ATOM      9  C   UNL     1      34.846 -19.276 -23.407  0.00  0.00    +0.005 C 
ATOM     10  C   UNL     1      34.657 -18.178 -24.441  0.00  0.00    +0.000 C 
ENDBRANCH   8   9
ENDBRANCH   7   8
ENDBRANCH   5   6
ENDBRANCH   4   5
ENDBRANCH   3   4
ENDBRANCH   2   3
ENDBRANCH   1   2
BRANCH   1  11
ATOM     11  C   UNL     1      31.435 -23.191 -15.187  0.00  0.00    +0.030 C 
BRANCH  11  12
ATOM     12  C   UNL     1      30.235 -23.564 -16.067  0.00  0.00    +0.122 C 
BRANCH  12  13
ATOM     13  O   UNL     1      29.956 -24.958 -15.960  0.00  0.00    -0.384 OA
ATOM     14  H   UNL     1      29.507 -25.134 -15.118  0.00  0.00    +0.210 HD
ENDBRANCH  12  13
BRANCH  12  15
ATOM     15  C   UNL     1      28.975 -22.759 -15.752  0.00  0.00    +0.138 C 
BRANCH  15  17
ATOM     16  O   UNL     1      27.492 -21.631 -17.301  0.00  0.00    -0.250 OA
ATOM     17  C   UNL     1      28.010 -22.666 -16.907  0.00  0.00    +0.316 C 
BRANCH  17  18
ATOM     18  O   UNL     1      27.777 -23.885 -17.452  0.00  0.00    -0.480 OA
ATOM     19  H   UNL     1      28.492 -24.469 -17.617  0.00  0.00    +0.295 HD
ENDBRANCH  17  18
ENDBRANCH  15  17
ENDBRANCH  12  15
ENDBRANCH  11  12
ENDBRANCH   1  11
TORSDOF 13
ENDMDL
MODEL 4
REMARK VINA RESULT:      -7.0      1.886      2.740
REMARK  Name = 5288266
REMARK  13 active torsions:
REMARK  status: ('A' for Active; 'I' for Inactive)
REMARK    1  A    between atoms: C_1  and  C_2
REMARK    2  A    between atoms: C_1  and  C_11
REMARK    3  A    between atoms: C_2  and  C_3
REMARK    4  A    between atoms: C_3  and  C_4
REMARK    5  A    between atoms: C_4  and  C_5
REMARK    6  A    between atoms: C_5  and  C_6
REMARK    7  A    between atoms: C_7  and  C_8
REMARK    8  A    between atoms: C_8  and  C_9
REMARK    9  A    between atoms: C_11  and  C_12
REMARK   10  A    between atoms: C_12  and  O_13
REMARK   11  A    between atoms: C_12  and  C_15
REMARK   12  A    between atoms: C_15  and  C_17
REMARK   13  A    between atoms: C_17  and  O_18
REMARK                            x       y       z     vdW  Elec       q    Type
REMARK                         _______ _______ _______ _____ _____    ______ ____
ROOT
ATOM      1  C   UNL     1      37.239 -22.047 -16.745  0.00  0.00    +0.002 C 
ENDROOT
BRANCH   1   2
ATOM      2  C   UNL     1      36.440 -21.776 -18.023  0.00  0.00    +0.000 C 
BRANCH   2   3
ATOM      3  C   UNL     1      35.033 -22.378 -18.001  0.00  0.00    +0.000 C 
BRANCH   3   4
ATOM      4  C   UNL     1      34.339 -22.353 -19.365  0.00  0.00    +0.005 C 
BRANCH   4   5
ATOM      5  C   UNL     1      33.149 -21.390 -19.363  0.00  0.00    +0.026 C 
BRANCH   5   6
ATOM      6  C   UNL     1      33.291 -20.243 -20.368  0.00  0.00    -0.031 C 
ATOM      7  C   UNL     1      34.705 -19.995 -20.901  0.00  0.00    -0.031 C 
BRANCH   7   8
ATOM      8  C   UNL     1      34.836 -18.885 -21.947  0.00  0.00    +0.026 C 
BRANCH   8   9
ATOM      9  C   UNL     1      35.269 -17.542 -21.357  0.00  0.00    +0.005 C 
ATOM     10  C   UNL     1      34.085 -16.603 -21.187  0.00  0.00    +0.000 C 
ENDBRANCH   8   9
ENDBRANCH   7   8
ENDBRANCH   5   6
ENDBRANCH   4   5
ENDBRANCH   3   4
ENDBRANCH   2   3
ENDBRANCH   1   2
BRANCH   1  11
ATOM     11  C   UNL     1      36.414 -22.857 -15.737  0.00  0.00    +0.030 C 
BRANCH  11  12
ATOM     12  C   UNL     1      37.179 -24.083 -15.222  0.00  0.00    +0.122 C 
BRANCH  12  13
ATOM     13  O   UNL     1      37.916 -23.750 -14.047  0.00  0.00    -0.384 OA
ATOM     14  H   UNL     1      38.720 -23.267 -14.295  0.00  0.00    +0.210 HD
ENDBRANCH  12  13
BRANCH  12  15
ATOM     15  C   UNL     1      36.283 -25.290 -14.946  0.00  0.00    +0.138 C 
BRANCH  15  17
ATOM     16  O   UNL     1      36.707 -27.334 -16.174  0.00  0.00    -0.250 OA
ATOM     17  C   UNL     1      36.950 -26.615 -15.216  0.00  0.00    +0.316 C 
BRANCH  17  18
ATOM     18  O   UNL     1      37.853 -26.917 -14.251  0.00  0.00    -0.480 OA
ATOM     19  H   UNL     1      37.827 -27.755 -13.832  0.00  0.00    +0.295 HD
ENDBRANCH  17  18
ENDBRANCH  15  17
ENDBRANCH  12  15
ENDBRANCH  11  12
ENDBRANCH   1  11
TORSDOF 13
ENDMDL
MODEL 5
REMARK VINA RESULT:      -7.0      5.342      8.235
REMARK  Name = 5288266
REMARK  13 active torsions:
REMARK  status: ('A' for Active; 'I' for Inactive)
REMARK    1  A    between atoms: C_1  and  C_2
REMARK    2  A    between atoms: C_1  and  C_11
REMARK    3  A    between atoms: C_2  and  C_3
REMARK    4  A    between atoms: C_3  and  C_4
REMARK    5  A    between atoms: C_4  and  C_5
REMARK    6  A    between atoms: C_5  and  C_6
REMARK    7  A    between atoms: C_7  and  C_8
REMARK    8  A    between atoms: C_8  and  C_9
REMARK    9  A    between atoms: C_11  and  C_12
REMARK   10  A    between atoms: C_12  and  O_13
REMARK   11  A    between atoms: C_12  and  C_15
REMARK   12  A    between atoms: C_15  and  C_17
REMARK   13  A    between atoms: C_17  and  O_18
REMARK                            x       y       z     vdW  Elec       q    Type
REMARK                         _______ _______ _______ _____ _____    ______ ____
ROOT
ATOM      1  C   UNL     1      34.657 -18.689 -22.368  0.00  0.00    +0.002 C 
ENDROOT
BRANCH   1   2
ATOM      2  C   UNL     1      34.970 -19.268 -23.750  0.00  0.00    +0.000 C 
BRANCH   2   3
ATOM      3  C   UNL     1      34.346 -18.474 -24.900  0.00  0.00    +0.000 C 
BRANCH   3   4
ATOM      4  C   UNL     1      34.897 -17.052 -25.028  0.00  0.00    +0.005 C 
BRANCH   4   5
ATOM      5  C   UNL     1      33.847 -16.102 -25.610  0.00  0.00    +0.026 C 
BRANCH   5   6
ATOM      6  C   UNL     1      33.408 -15.006 -24.634  0.00  0.00    -0.031 C 
ATOM      7  C   UNL     1      33.958 -15.123 -23.209  0.00  0.00    -0.031 C 
BRANCH   7   8
ATOM      8  C   UNL     1      33.564 -13.997 -22.249  0.00  0.00    +0.026 C 
BRANCH   8   9
ATOM      9  C   UNL     1      33.383 -14.466 -20.804  0.00  0.00    +0.005 C 
ATOM     10  C   UNL     1      34.441 -15.488 -20.418  0.00  0.00    +0.000 C 
ENDBRANCH   8   9
ENDBRANCH   7   8
ENDBRANCH   5   6
ENDBRANCH   4   5
ENDBRANCH   3   4
ENDBRANCH   2   3
ENDBRANCH   1   2
BRANCH   1  11
ATOM     11  C   UNL     1      35.790 -18.978 -21.376  0.00  0.00    +0.030 C 
BRANCH  11  12
ATOM     12  C   UNL     1      35.552 -20.277 -20.595  0.00  0.00    +0.122 C 
BRANCH  12  13
ATOM     13  O   UNL     1      36.406 -20.333 -19.455  0.00  0.00    -0.384 OA
ATOM     14  H   UNL     1      36.721 -19.440 -19.243  0.00  0.00    +0.210 HD
ENDBRANCH  12  13
BRANCH  12  15
ATOM     15  C   UNL     1      34.099 -20.473 -20.163  0.00  0.00    +0.138 C 
BRANCH  15  17
ATOM     16  O   UNL     1      32.775 -22.130 -18.993  0.00  0.00    -0.250 OA
ATOM     17  C   UNL     1      33.835 -21.805 -19.508  0.00  0.00    +0.316 C 
BRANCH  17  18
ATOM     18  O   UNL     1      34.932 -22.600 -19.552  0.00  0.00    -0.480 OA
ATOM     19  H   UNL     1      34.965 -23.381 -19.035  0.00  0.00    +0.295 HD
ENDBRANCH  17  18
ENDBRANCH  15  17
ENDBRANCH  12  15
ENDBRANCH  11  12
ENDBRANCH   1  11
TORSDOF 13
ENDMDL
MODEL 6
REMARK VINA RESULT:      -6.9      2.000      3.061
REMARK  Name = 5288266
REMARK  13 active torsions:
REMARK  status: ('A' for Active; 'I' for Inactive)
REMARK    1  A    between atoms: C_1  and  C_2
REMARK    2  A    between atoms: C_1  and  C_11
REMARK    3  A    between atoms: C_2  and  C_3
REMARK    4  A    between atoms: C_3  and  C_4
REMARK    5  A    between atoms: C_4  and  C_5
REMARK    6  A    between atoms: C_5  and  C_6
REMARK    7  A    between atoms: C_7  and  C_8
REMARK    8  A    between atoms: C_8  and  C_9
REMARK    9  A    between atoms: C_11  and  C_12
REMARK   10  A    between atoms: C_12  and  O_13
REMARK   11  A    between atoms: C_12  and  C_15
REMARK   12  A    between atoms: C_15  and  C_17
REMARK   13  A    between atoms: C_17  and  O_18
REMARK                            x       y       z     vdW  Elec       q    Type
REMARK                         _______ _______ _______ _____ _____    ______ ____
ROOT
ATOM      1  C   UNL     1      33.400 -23.461 -16.370  0.00  0.00    +0.002 C 
ENDROOT
BRANCH   1   2
ATOM      2  C   UNL     1      32.977 -22.736 -17.650  0.00  0.00    +0.000 C 
BRANCH   2   3
ATOM      3  C   UNL     1      34.018 -22.819 -18.770  0.00  0.00    +0.000 C 
BRANCH   3   4
ATOM      4  C   UNL     1      34.310 -21.471 -19.431  0.00  0.00    +0.005 C 
BRANCH   4   5
ATOM      5  C   UNL     1      33.027 -20.825 -19.961  0.00  0.00    +0.026 C 
BRANCH   5   6
ATOM      6  C   UNL     1      33.281 -19.697 -20.965  0.00  0.00    -0.031 C 
ATOM      7  C   UNL     1      34.722 -19.182 -21.038  0.00  0.00    -0.031 C 
BRANCH   7   8
ATOM      8  C   UNL     1      34.986 -18.092 -22.081  0.00  0.00    +0.026 C 
BRANCH   8   9
ATOM      9  C   UNL     1      35.596 -18.628 -23.378  0.00  0.00    +0.005 C 
ATOM     10  C   UNL     1      34.540 -18.792 -24.460  0.00  0.00    +0.000 C 
ENDBRANCH   8   9
ENDBRANCH   7   8
ENDBRANCH   5   6
ENDBRANCH   4   5
ENDBRANCH   3   4
ENDBRANCH   2   3
ENDBRANCH   1   2
BRANCH   1  11
ATOM     11  C   UNL     1      34.875 -23.195 -16.043  0.00  0.00    +0.030 C 
BRANCH  11  12
ATOM     12  C   UNL     1      35.352 -24.011 -14.835  0.00  0.00    +0.122 C 
BRANCH  12  13
ATOM     13  O   UNL     1      34.351 -24.950 -14.446  0.00  0.00    -0.384 OA
ATOM     14  H   UNL     1      34.567 -25.309 -13.570  0.00  0.00    +0.210 HD
ENDBRANCH  12  13
BRANCH  12  15
ATOM     15  C   UNL     1      36.676 -24.736 -15.074  0.00  0.00    +0.138 C 
BRANCH  15  17
ATOM     16  O   UNL     1      36.297 -26.946 -15.991  0.00  0.00    -0.250 OA
ATOM     17  C   UNL     1      36.562 -26.239 -15.029  0.00  0.00    +0.316 C 
BRANCH  17  18
ATOM     18  O   UNL     1      36.780 -26.712 -13.778  0.00  0.00    -0.480 OA
ATOM     19  H   UNL     1      37.551 -26.459 -13.309  0.00  0.00    +0.295 HD
ENDBRANCH  17  18
ENDBRANCH  15  17
ENDBRANCH  12  15
ENDBRANCH  11  12
ENDBRANCH   1  11
TORSDOF 13
ENDMDL
MODEL 7
REMARK VINA RESULT:      -6.9      7.564     11.157
REMARK  Name = 5288266
REMARK  13 active torsions:
REMARK  status: ('A' for Active; 'I' for Inactive)
REMARK    1  A    between atoms: C_1  and  C_2
REMARK    2  A    between atoms: C_1  and  C_11
REMARK    3  A    between atoms: C_2  and  C_3
REMARK    4  A    between atoms: C_3  and  C_4
REMARK    5  A    between atoms: C_4  and  C_5
REMARK    6  A    between atoms: C_5  and  C_6
REMARK    7  A    between atoms: C_7  and  C_8
REMARK    8  A    between atoms: C_8  and  C_9
REMARK    9  A    between atoms: C_11  and  C_12
REMARK   10  A    between atoms: C_12  and  O_13
REMARK   11  A    between atoms: C_12  and  C_15
REMARK   12  A    between atoms: C_15  and  C_17
REMARK   13  A    between atoms: C_17  and  O_18
REMARK                            x       y       z     vdW  Elec       q    Type
REMARK                         _______ _______ _______ _____ _____    ______ ____
ROOT
ATOM      1  C   UNL     1      34.794 -16.643 -25.110  0.00  0.00    +0.002 C 
ENDROOT
BRANCH   1   2
ATOM      2  C   UNL     1      34.214 -18.059 -25.129  0.00  0.00    +0.000 C 
BRANCH   2   3
ATOM      3  C   UNL     1      34.932 -19.025 -24.184  0.00  0.00    +0.000 C 
BRANCH   3   4
ATOM      4  C   UNL     1      34.749 -18.679 -22.705  0.00  0.00    +0.005 C 
BRANCH   4   5
ATOM      5  C   UNL     1      36.087 -18.326 -22.049  0.00  0.00    +0.026 C 
BRANCH   5   6
ATOM      6  C   UNL     1      36.433 -19.217 -20.852  0.00  0.00    -0.031 C 
ATOM      7  C   UNL     1      35.445 -20.349 -20.556  0.00  0.00    -0.031 C 
BRANCH   7   8
ATOM      8  C   UNL     1      35.820 -21.272 -19.393  0.00  0.00    +0.026 C 
BRANCH   8   9
ATOM      9  C   UNL     1      34.700 -22.235 -18.996  0.00  0.00    +0.005 C 
ATOM     10  C   UNL     1      33.330 -21.633 -19.267  0.00  0.00    +0.000 C 
ENDBRANCH   8   9
ENDBRANCH   7   8
ENDBRANCH   5   6
ENDBRANCH   4   5
ENDBRANCH   3   4
ENDBRANCH   2   3
ENDBRANCH   1   2
BRANCH   1  11
ATOM     11  C   UNL     1      33.757 -15.625 -24.617  0.00  0.00    +0.030 C 
BRANCH  11  12
ATOM     12  C   UNL     1      34.170 -14.982 -23.288  0.00  0.00    +0.122 C 
BRANCH  12  13
ATOM     13  O   UNL     1      34.402 -13.586 -23.465  0.00  0.00    -0.384 OA
ATOM     14  H   UNL     1      33.609 -13.171 -23.839  0.00  0.00    +0.210 HD
ENDBRANCH  12  13
BRANCH  12  15
ATOM     15  C   UNL     1      33.157 -15.199 -22.164  0.00  0.00    +0.138 C 
BRANCH  15  17
ATOM     16  O   UNL     1      32.540 -13.506 -20.545  0.00  0.00    -0.250 OA
ATOM     17  C   UNL     1      32.495 -13.930 -21.691  0.00  0.00    +0.316 C 
BRANCH  17  18
ATOM     18  O   UNL     1      31.827 -13.318 -22.700  0.00  0.00    -0.480 OA
ATOM     19  H   UNL     1      30.982 -12.945 -22.543  0.00  0.00    +0.295 HD
ENDBRANCH  17  18
ENDBRANCH  15  17
ENDBRANCH  12  15
ENDBRANCH  11  12
ENDBRANCH   1  11
TORSDOF 13
ENDMDL
MODEL 8
REMARK VINA RESULT:      -6.8      7.927     11.677
REMARK  Name = 5288266
REMARK  13 active torsions:
REMARK  status: ('A' for Active; 'I' for Inactive)
REMARK    1  A    between atoms: C_1  and  C_2
REMARK    2  A    between atoms: C_1  and  C_11
REMARK    3  A    between atoms: C_2  and  C_3
REMARK    4  A    between atoms: C_3  and  C_4
REMARK    5  A    between atoms: C_4  and  C_5
REMARK    6  A    between atoms: C_5  and  C_6
REMARK    7  A    between atoms: C_7  and  C_8
REMARK    8  A    between atoms: C_8  and  C_9
REMARK    9  A    between atoms: C_11  and  C_12
REMARK   10  A    between atoms: C_12  and  O_13
REMARK   11  A    between atoms: C_12  and  C_15
REMARK   12  A    between atoms: C_15  and  C_17
REMARK   13  A    between atoms: C_17  and  O_18
REMARK                            x       y       z     vdW  Elec       q    Type
REMARK                         _______ _______ _______ _____ _____    ______ ____
ROOT
ATOM      1  C   UNL     1      32.911 -15.325 -21.790  0.00  0.00    +0.002 C 
ENDROOT
BRANCH   1   2
ATOM      2  C   UNL     1      34.190 -15.315 -20.949  0.00  0.00    +0.000 C 
BRANCH   2   3
ATOM      3  C   UNL     1      34.964 -16.635 -21.001  0.00  0.00    +0.000 C 
BRANCH   3   4
ATOM      4  C   UNL     1      35.368 -17.049 -22.418  0.00  0.00    +0.005 C 
BRANCH   4   5
ATOM      5  C   UNL     1      35.426 -18.573 -22.553  0.00  0.00    +0.026 C 
BRANCH   5   6
ATOM      6  C   UNL     1      34.219 -19.287 -21.936  0.00  0.00    -0.031 C 
ATOM      7  C   UNL     1      34.493 -20.063 -20.645  0.00  0.00    -0.031 C 
BRANCH   7   8
ATOM      8  C   UNL     1      33.274 -20.730 -19.999  0.00  0.00    +0.026 C 
BRANCH   8   9
ATOM      9  C   UNL     1      33.594 -22.074 -19.343  0.00  0.00    +0.005 C 
ATOM     10  C   UNL     1      34.991 -22.078 -18.741  0.00  0.00    +0.000 C 
ENDBRANCH   8   9
ENDBRANCH   7   8
ENDBRANCH   5   6
ENDBRANCH   4   5
ENDBRANCH   3   4
ENDBRANCH   2   3
ENDBRANCH   1   2
BRANCH   1  11
ATOM     11  C   UNL     1      32.552 -13.913 -22.271  0.00  0.00    +0.030 C 
BRANCH  11  12
ATOM     12  C   UNL     1      33.058 -13.645 -23.693  0.00  0.00    +0.122 C 
BRANCH  12  13
ATOM     13  O   UNL     1      34.178 -12.762 -23.663  0.00  0.00    -0.384 OA
ATOM     14  H   UNL     1      34.092 -12.107 -24.374  0.00  0.00    +0.210 HD
ENDBRANCH  12  13
BRANCH  12  15
ATOM     15  C   UNL     1      33.423 -14.916 -24.461  0.00  0.00    +0.138 C 
BRANCH  15  17
ATOM     16  O   UNL     1      32.814 -15.826 -26.622  0.00  0.00    -0.250 OA
ATOM     17  C   UNL     1      33.083 -14.856 -25.929  0.00  0.00    +0.316 C 
BRANCH  17  18
ATOM     18  O   UNL     1      33.125 -13.582 -26.392  0.00  0.00    -0.480 OA
ATOM     19  H   UNL     1      32.622 -12.914 -25.969  0.00  0.00    +0.295 HD
ENDBRANCH  17  18
ENDBRANCH  15  17
ENDBRANCH  12  15
ENDBRANCH  11  12
ENDBRANCH   1  11
TORSDOF 13
ENDMDL
MODEL 9
REMARK VINA RESULT:      -6.8      2.357      2.941
REMARK  Name = 5288266
REMARK  13 active torsions:
REMARK  status: ('A' for Active; 'I' for Inactive)
REMARK    1  A    between atoms: C_1  and  C_2
REMARK    2  A    between atoms: C_1  and  C_11
REMARK    3  A    between atoms: C_2  and  C_3
REMARK    4  A    between atoms: C_3  and  C_4
REMARK    5  A    between atoms: C_4  and  C_5
REMARK    6  A    between atoms: C_5  and  C_6
REMARK    7  A    between atoms: C_7  and  C_8
REMARK    8  A    between atoms: C_8  and  C_9
REMARK    9  A    between atoms: C_11  and  C_12
REMARK   10  A    between atoms: C_12  and  O_13
REMARK   11  A    between atoms: C_12  and  C_15
REMARK   12  A    between atoms: C_15  and  C_17
REMARK   13  A    between atoms: C_17  and  O_18
REMARK                            x       y       z     vdW  Elec       q    Type
REMARK                         _______ _______ _______ _____ _____    ______ ____
ROOT
ATOM      1  C   UNL     1      36.513 -22.514 -16.313  0.00  0.00    +0.002 C 
ENDROOT
BRANCH   1   2
ATOM      2  C   UNL     1      36.848 -21.566 -17.467  0.00  0.00    +0.000 C 
BRANCH   2   3
ATOM      3  C   UNL     1      35.998 -21.804 -18.718  0.00  0.00    +0.000 C 
BRANCH   3   4
ATOM      4  C   UNL     1      34.559 -22.220 -18.406  0.00  0.00    +0.005 C 
BRANCH   4   5
ATOM      5  C   UNL     1      33.583 -21.651 -19.439  0.00  0.00    +0.026 C 
BRANCH   5   6
ATOM      6  C   UNL     1      34.253 -20.752 -20.482  0.00  0.00    -0.031 C 
ATOM      7  C   UNL     1      33.554 -19.418 -20.761  0.00  0.00    -0.031 C 
BRANCH   7   8
ATOM      8  C   UNL     1      34.255 -18.497 -21.763  0.00  0.00    +0.026 C 
BRANCH   8   9
ATOM      9  C   UNL     1      34.811 -19.235 -22.982  0.00  0.00    +0.005 C 
ATOM     10  C   UNL     1      34.960 -18.303 -24.174  0.00  0.00    +0.000 C 
ENDBRANCH   8   9
ENDBRANCH   7   8
ENDBRANCH   5   6
ENDBRANCH   4   5
ENDBRANCH   3   4
ENDBRANCH   2   3
ENDBRANCH   1   2
BRANCH   1  11
ATOM     11  C   UNL     1      37.784 -22.983 -15.594  0.00  0.00    +0.030 C 
BRANCH  11  12
ATOM     12  C   UNL     1      37.475 -23.992 -14.481  0.00  0.00    +0.122 C 
BRANCH  12  13
ATOM     13  O   UNL     1      38.680 -24.595 -14.011  0.00  0.00    -0.384 OA
ATOM     14  H   UNL     1      38.850 -25.410 -14.509  0.00  0.00    +0.210 HD
ENDBRANCH  12  13
BRANCH  12  15
ATOM     15  C   UNL     1      36.706 -23.389 -13.306  0.00  0.00    +0.138 C 
BRANCH  15  17
ATOM     16  O   UNL     1      37.326 -24.341 -11.167  0.00  0.00    -0.250 OA
ATOM     17  C   UNL     1      37.451 -23.452 -11.997  0.00  0.00    +0.316 C 
BRANCH  17  18
ATOM     18  O   UNL     1      38.275 -22.386 -11.848  0.00  0.00    -0.480 OA
ATOM     19  H   UNL     1      38.606 -22.165 -11.000  0.00  0.00    +0.295 HD
ENDBRANCH  17  18
ENDBRANCH  15  17
ENDBRANCH  12  15
ENDBRANCH  11  12
ENDBRANCH   1  11
TORSDOF 13
ENDMDL
