MODEL 1
REMARK VINA RESULT:      -9.8      0.000      0.000
REMARK  Name = 4631605
REMARK  7 active torsions:
REMARK  status: ('A' for Active; 'I' for Inactive)
REMARK    1  A    between atoms: C_1  and  C_5
REMARK    2  A    between atoms: C_1  and  N_16
REMARK    3  A    between atoms: C_8  and  C_14
REMARK    4  A    between atoms: C_18  and  C_21
REMARK    5  A    between atoms: C_21  and  C_22
REMARK    6  A    between atoms: C_22  and  O_23
REMARK    7  A    between atoms: O_23  and  P_24
REMARK                            x       y       z     vdW  Elec       q    Type
REMARK                         _______ _______ _______ _____ _____    ______ ____
ROOT
ATOM      1  C   UNL     1      35.152 -22.042 -19.892  0.00  0.00    +0.124 C 
ENDROOT
BRANCH   1   5
ATOM      2  N   UNL     1      33.657 -18.725 -20.916  0.00  0.00    -0.333 NA
ATOM      3  N   UNL     1      36.060 -18.548 -20.930  0.00  0.00    -0.180 NA
ATOM      4  N   UNL     1      32.612 -20.768 -20.316  0.00  0.00    -0.332 N 
ATOM      5  C   UNL     1      35.008 -20.626 -20.321  0.00  0.00    +0.062 C 
ATOM      6  C   UNL     1      33.791 -20.010 -20.526  0.00  0.00    +0.187 C 
ATOM      7  C   UNL     1      36.120 -19.838 -20.540  0.00  0.00    +0.112 C 
ATOM      8  C   UNL     1      34.815 -18.062 -21.098  0.00  0.00    +0.161 C 
ATOM      9  H   UNL     1      31.730 -20.355 -20.455  0.00  0.00    +0.145 HD
ATOM     10  H   UNL     1      32.677 -21.709 -20.033  0.00  0.00    +0.145 HD
BRANCH   8  14
ATOM     11  F   UNL     1      35.514 -16.324 -22.585  0.00  0.00    -0.157 F 
ATOM     12  F   UNL     1      33.450 -16.280 -21.921  0.00  0.00    -0.157 F 
ATOM     13  F   UNL     1      35.045 -15.763 -20.537  0.00  0.00    -0.157 F 
ATOM     14  C   UNL     1      34.708 -16.639 -21.528  0.00  0.00    +0.489 C 
ENDBRANCH   8  14
ENDBRANCH   1   5
BRANCH   1  16
ATOM     15  S   UNL     1      37.078 -21.857 -16.506  0.00  0.00    -0.095 S 
ATOM     16  N   UNL     1      35.622 -22.108 -18.506  0.00  0.00    -0.297 N 
ATOM     17  C   UNL     1      34.872 -22.639 -17.496  0.00  0.00    +0.028 C 
ATOM     18  C   UNL     1      35.534 -22.584 -16.294  0.00  0.00    +0.016 C 
ATOM     19  C   UNL     1      36.800 -21.650 -18.182  0.00  0.00    +0.154 C 
ATOM     20  C   UNL     1      33.537 -23.172 -17.802  0.00  0.00    +0.047 C 
BRANCH  18  21
ATOM     21  C   UNL     1      35.108 -23.038 -14.955  0.00  0.00    +0.066 C 
BRANCH  21  22
ATOM     22  C   UNL     1      36.261 -23.614 -14.114  0.00  0.00    +0.159 C 
BRANCH  22  23
ATOM     23  O   UNL     1      36.087 -23.285 -12.741  0.00  0.00    -0.270 OA
BRANCH  23  24
ATOM     24  P   UNL     1      37.236 -23.769 -11.659  0.00  0.00    +0.533 P 
ATOM     25  O   UNL     1      38.221 -22.604 -11.642  0.00  0.00    -0.115 OA
ATOM     26  O   UNL     1      37.808 -25.055 -12.250  0.00  0.00    -0.115 OA
ATOM     27  O   UNL     1      36.479 -23.962 -10.349  0.00  0.00    -0.222 OA
ENDBRANCH  23  24
ENDBRANCH  22  23
ENDBRANCH  21  22
ENDBRANCH  18  21
ENDBRANCH   1  16
TORSDOF 7
ENDMDL
MODEL 2
REMARK VINA RESULT:      -9.8      1.296      1.877
REMARK  Name = 4631605
REMARK  7 active torsions:
REMARK  status: ('A' for Active; 'I' for Inactive)
REMARK    1  A    between atoms: C_1  and  C_5
REMARK    2  A    between atoms: C_1  and  N_16
REMARK    3  A    between atoms: C_8  and  C_14
REMARK    4  A    between atoms: C_18  and  C_21
REMARK    5  A    between atoms: C_21  and  C_22
REMARK    6  A    between atoms: C_22  and  O_23
REMARK    7  A    between atoms: O_23  and  P_24
REMARK                            x       y       z     vdW  Elec       q    Type
REMARK                         _______ _______ _______ _____ _____    ______ ____
ROOT
ATOM      1  C   UNL     1      35.230 -21.961 -19.994  0.00  0.00    +0.124 C 
ENDROOT
BRANCH   1   5
ATOM      2  N   UNL     1      33.642 -18.658 -20.915  0.00  0.00    -0.333 NA
ATOM      3  N   UNL     1      36.040 -18.415 -20.930  0.00  0.00    -0.180 NA
ATOM      4  N   UNL     1      32.655 -20.745 -20.374  0.00  0.00    -0.332 N 
ATOM      5  C   UNL     1      35.046 -20.538 -20.380  0.00  0.00    +0.062 C 
ATOM      6  C   UNL     1      33.812 -19.950 -20.564  0.00  0.00    +0.187 C 
ATOM      7  C   UNL     1      36.136 -19.714 -20.579  0.00  0.00    +0.112 C 
ATOM      8  C   UNL     1      34.782 -17.959 -21.079  0.00  0.00    +0.161 C 
ATOM      9  H   UNL     1      31.762 -20.352 -20.499  0.00  0.00    +0.145 HD
ATOM     10  H   UNL     1      32.746 -21.692 -20.119  0.00  0.00    +0.145 HD
BRANCH   8  14
ATOM     11  F   UNL     1      35.007 -15.652 -20.485  0.00  0.00    -0.157 F 
ATOM     12  F   UNL     1      35.381 -16.176 -22.556  0.00  0.00    -0.157 F 
ATOM     13  F   UNL     1      33.349 -16.197 -21.783  0.00  0.00    -0.157 F 
ATOM     14  C   UNL     1      34.635 -16.526 -21.467  0.00  0.00    +0.489 C 
ENDBRANCH   8  14
ENDBRANCH   1   5
BRANCH   1  16
ATOM     15  S   UNL     1      37.057 -21.833 -16.551  0.00  0.00    -0.095 S 
ATOM     16  N   UNL     1      35.662 -22.058 -18.598  0.00  0.00    -0.297 N 
ATOM     17  C   UNL     1      34.897 -22.635 -17.625  0.00  0.00    +0.028 C 
ATOM     18  C   UNL     1      35.525 -22.600 -16.403  0.00  0.00    +0.016 C 
ATOM     19  C   UNL     1      36.820 -21.584 -18.228  0.00  0.00    +0.154 C 
ATOM     20  C   UNL     1      33.583 -23.188 -17.984  0.00  0.00    +0.047 C 
BRANCH  18  21
ATOM     21  C   UNL     1      35.072 -23.102 -15.090  0.00  0.00    +0.066 C 
BRANCH  21  22
ATOM     22  C   UNL     1      35.129 -24.636 -14.975  0.00  0.00    +0.159 C 
BRANCH  22  23
ATOM     23  O   UNL     1      36.383 -25.122 -15.440  0.00  0.00    -0.270 OA
BRANCH  23  24
ATOM     24  P   UNL     1      37.541 -25.514 -14.331  0.00  0.00    +0.533 P 
ATOM     25  O   UNL     1      36.753 -25.659 -13.032  0.00  0.00    -0.115 OA
ATOM     26  O   UNL     1      38.505 -24.331 -14.342  0.00  0.00    -0.115 OA
ATOM     27  O   UNL     1      38.141 -26.820 -14.842  0.00  0.00    -0.222 OA
ENDBRANCH  23  24
ENDBRANCH  22  23
ENDBRANCH  21  22
ENDBRANCH  18  21
ENDBRANCH   1  16
TORSDOF 7
ENDMDL
MODEL 3
REMARK VINA RESULT:      -9.2      7.741      9.285
REMARK  Name = 4631605
REMARK  7 active torsions:
REMARK  status: ('A' for Active; 'I' for Inactive)
REMARK    1  A    between atoms: C_1  and  C_5
REMARK    2  A    between atoms: C_1  and  N_16
REMARK    3  A    between atoms: C_8  and  C_14
REMARK    4  A    between atoms: C_18  and  C_21
REMARK    5  A    between atoms: C_21  and  C_22
REMARK    6  A    between atoms: C_22  and  O_23
REMARK    7  A    between atoms: O_23  and  P_24
REMARK                            x       y       z     vdW  Elec       q    Type
REMARK                         _______ _______ _______ _____ _____    ______ ____
ROOT
ATOM      1  C   UNL     1      34.650 -24.382 -13.308  0.00  0.00    +0.124 C 
ENDROOT
BRANCH   1   5
ATOM      2  N   UNL     1      38.426 -24.267 -13.402  0.00  0.00    -0.333 NA
ATOM      3  N   UNL     1      37.648 -25.974 -14.915  0.00  0.00    -0.180 NA
ATOM      4  N   UNL     1      36.875 -22.982 -12.150  0.00  0.00    -0.332 N 
ATOM      5  C   UNL     1      36.067 -24.674 -13.649  0.00  0.00    +0.062 C 
ATOM      6  C   UNL     1      37.139 -24.005 -13.095  0.00  0.00    +0.187 C 
ATOM      7  C   UNL     1      36.385 -25.659 -14.562  0.00  0.00    +0.112 C 
ATOM      8  C   UNL     1      38.606 -25.250 -14.307  0.00  0.00    +0.161 C 
ATOM      9  H   UNL     1      37.620 -22.488 -11.740  0.00  0.00    +0.145 HD
ATOM     10  H   UNL     1      35.947 -22.766 -11.906  0.00  0.00    +0.145 HD
BRANCH   8  14
ATOM     11  F   UNL     1      40.290 -25.400 -15.999  0.00  0.00    -0.157 F 
ATOM     12  F   UNL     1      40.937 -24.802 -14.017  0.00  0.00    -0.157 F 
ATOM     13  F   UNL     1      40.352 -26.862 -14.390  0.00  0.00    -0.157 F 
ATOM     14  C   UNL     1      40.016 -25.569 -14.672  0.00  0.00    +0.489 C 
ENDBRANCH   8  14
ENDBRANCH   1   5
BRANCH   1  16
ATOM     15  S   UNL     1      33.414 -23.106 -16.780  0.00  0.00    -0.095 S 
ATOM     16  N   UNL     1      33.907 -23.993 -14.510  0.00  0.00    -0.297 N 
ATOM     17  C   UNL     1      32.559 -24.170 -14.635  0.00  0.00    +0.028 C 
ATOM     18  C   UNL     1      32.104 -23.726 -15.853  0.00  0.00    +0.016 C 
ATOM     19  C   UNL     1      34.524 -23.453 -15.525  0.00  0.00    +0.154 C 
ATOM     20  C   UNL     1      31.812 -24.773 -13.523  0.00  0.00    +0.047 C 
BRANCH  18  21
ATOM     21  C   UNL     1      30.736 -23.721 -16.410  0.00  0.00    +0.066 C 
BRANCH  21  22
ATOM     22  C   UNL     1      29.836 -22.633 -15.797  0.00  0.00    +0.159 C 
BRANCH  22  23
ATOM     23  O   UNL     1      29.052 -22.011 -16.807  0.00  0.00    -0.270 OA
BRANCH  23  24
ATOM     24  P   UNL     1      27.450 -22.395 -16.913  0.00  0.00    +0.533 P 
ATOM     25  O   UNL     1      27.450 -23.708 -17.690  0.00  0.00    -0.115 OA
ATOM     26  O   UNL     1      26.820 -21.228 -17.669  0.00  0.00    -0.115 OA
ATOM     27  O   UNL     1      26.987 -22.530 -15.466  0.00  0.00    -0.222 OA
ENDBRANCH  23  24
ENDBRANCH  22  23
ENDBRANCH  21  22
ENDBRANCH  18  21
ENDBRANCH   1  16
TORSDOF 7
ENDMDL
MODEL 4
REMARK VINA RESULT:      -9.2      2.941      4.308
REMARK  Name = 4631605
REMARK  7 active torsions:
REMARK  status: ('A' for Active; 'I' for Inactive)
REMARK    1  A    between atoms: C_1  and  C_5
REMARK    2  A    between atoms: C_1  and  N_16
REMARK    3  A    between atoms: C_8  and  C_14
REMARK    4  A    between atoms: C_18  and  C_21
REMARK    5  A    between atoms: C_21  and  C_22
REMARK    6  A    between atoms: C_22  and  O_23
REMARK    7  A    between atoms: O_23  and  P_24
REMARK                            x       y       z     vdW  Elec       q    Type
REMARK                         _______ _______ _______ _____ _____    ______ ____
ROOT
ATOM      1  C   UNL     1      35.960 -18.425 -21.357  0.00  0.00    +0.124 C 
ENDROOT
BRANCH   1   5
ATOM      2  N   UNL     1      34.270 -15.966 -23.676  0.00  0.00    -0.333 NA
ATOM      3  N   UNL     1      34.086 -15.171 -21.409  0.00  0.00    -0.180 NA
ATOM      4  N   UNL     1      35.385 -18.006 -24.140  0.00  0.00    -0.332 N 
ATOM      5  C   UNL     1      35.220 -17.243 -21.871  0.00  0.00    +0.062 C 
ATOM      6  C   UNL     1      34.942 -17.038 -23.206  0.00  0.00    +0.187 C 
ATOM      7  C   UNL     1      34.763 -16.267 -21.009  0.00  0.00    +0.112 C 
ATOM      8  C   UNL     1      33.878 -15.084 -22.736  0.00  0.00    +0.161 C 
ATOM      9  H   UNL     1      35.202 -17.886 -25.099  0.00  0.00    +0.145 HD
ATOM     10  H   UNL     1      35.879 -18.799 -23.830  0.00  0.00    +0.145 HD
BRANCH   8  14
ATOM     11  F   UNL     1      32.029 -13.590 -22.467  0.00  0.00    -0.157 F 
ATOM     12  F   UNL     1      33.878 -12.741 -23.217  0.00  0.00    -0.157 F 
ATOM     13  F   UNL     1      32.679 -14.026 -24.496  0.00  0.00    -0.157 F 
ATOM     14  C   UNL     1      33.132 -13.885 -23.216  0.00  0.00    +0.489 C 
ENDBRANCH   8  14
ENDBRANCH   1   5
BRANCH   1  16
ATOM     15  S   UNL     1      32.892 -20.590 -20.304  0.00  0.00    -0.095 S 
ATOM     16  N   UNL     1      35.023 -19.429 -20.847  0.00  0.00    -0.297 N 
ATOM     17  C   UNL     1      35.432 -20.564 -20.206  0.00  0.00    +0.028 C 
ATOM     18  C   UNL     1      34.364 -21.341 -19.827  0.00  0.00    +0.016 C 
ATOM     19  C   UNL     1      33.736 -19.270 -20.991  0.00  0.00    +0.154 C 
ATOM     20  C   UNL     1      36.870 -20.796 -20.014  0.00  0.00    +0.047 C 
BRANCH  18  21
ATOM     21  C   UNL     1      34.339 -22.635 -19.117  0.00  0.00    +0.066 C 
BRANCH  21  22
ATOM     22  C   UNL     1      34.506 -22.495 -17.593  0.00  0.00    +0.159 C 
BRANCH  22  23
ATOM     23  O   UNL     1      35.863 -22.707 -17.222  0.00  0.00    -0.270 OA
BRANCH  23  24
ATOM     24  P   UNL     1      36.200 -23.132 -15.663  0.00  0.00    +0.533 P 
ATOM     25  O   UNL     1      35.021 -22.566 -14.878  0.00  0.00    -0.115 OA
ATOM     26  O   UNL     1      37.532 -22.454 -15.355  0.00  0.00    -0.115 OA
ATOM     27  O   UNL     1      36.259 -24.657 -15.681  0.00  0.00    -0.222 OA
ENDBRANCH  23  24
ENDBRANCH  22  23
ENDBRANCH  21  22
ENDBRANCH  18  21
ENDBRANCH   1  16
TORSDOF 7
ENDMDL
MODEL 5
REMARK VINA RESULT:      -9.1      8.409     10.277
REMARK  Name = 4631605
REMARK  7 active torsions:
REMARK  status: ('A' for Active; 'I' for Inactive)
REMARK    1  A    between atoms: C_1  and  C_5
REMARK    2  A    between atoms: C_1  and  N_16
REMARK    3  A    between atoms: C_8  and  C_14
REMARK    4  A    between atoms: C_18  and  C_21
REMARK    5  A    between atoms: C_21  and  C_22
REMARK    6  A    between atoms: C_22  and  O_23
REMARK    7  A    between atoms: O_23  and  P_24
REMARK                            x       y       z     vdW  Elec       q    Type
REMARK                         _______ _______ _______ _____ _____    ______ ____
ROOT
ATOM      1  C   UNL     1      35.613 -18.037 -22.561  0.00  0.00    +0.124 C 
ENDROOT
BRANCH   1   5
ATOM      2  N   UNL     1      35.740 -20.686 -19.869  0.00  0.00    -0.333 NA
ATOM      3  N   UNL     1      33.481 -20.498 -20.689  0.00  0.00    -0.180 NA
ATOM      4  N   UNL     1      37.455 -19.315 -20.764  0.00  0.00    -0.332 N 
ATOM      5  C   UNL     1      35.216 -19.103 -21.604  0.00  0.00    +0.062 C 
ATOM      6  C   UNL     1      36.097 -19.719 -20.739  0.00  0.00    +0.187 C 
ATOM      7  C   UNL     1      33.908 -19.537 -21.534  0.00  0.00    +0.112 C 
ATOM      8  C   UNL     1      34.435 -21.023 -19.897  0.00  0.00    +0.161 C 
ATOM      9  H   UNL     1      38.105 -19.738 -20.159  0.00  0.00    +0.145 HD
ATOM     10  H   UNL     1      37.747 -18.612 -21.388  0.00  0.00    +0.145 HD
BRANCH   8  14
ATOM     11  F   UNL     1      34.838 -22.244 -17.879  0.00  0.00    -0.157 F 
ATOM     12  F   UNL     1      32.768 -21.869 -18.406  0.00  0.00    -0.157 F 
ATOM     13  F   UNL     1      33.928 -23.318 -19.537  0.00  0.00    -0.157 F 
ATOM     14  C   UNL     1      34.002 -22.089 -18.949  0.00  0.00    +0.489 C 
ENDBRANCH   8  14
ENDBRANCH   1   5
BRANCH   1  16
ATOM     15  S   UNL     1      34.036 -14.870 -20.921  0.00  0.00    -0.095 S 
ATOM     16  N   UNL     1      34.933 -16.781 -22.235  0.00  0.00    -0.297 N 
ATOM     17  C   UNL     1      34.324 -16.004 -23.178  0.00  0.00    +0.028 C 
ATOM     18  C   UNL     1      33.761 -14.882 -22.619  0.00  0.00    +0.016 C 
ATOM     19  C   UNL     1      34.887 -16.352 -21.004  0.00  0.00    +0.154 C 
ATOM     20  C   UNL     1      34.342 -16.438 -24.582  0.00  0.00    +0.047 C 
BRANCH  18  21
ATOM     21  C   UNL     1      33.012 -13.780 -23.255  0.00  0.00    +0.066 C 
BRANCH  21  22
ATOM     22  C   UNL     1      32.190 -12.948 -22.254  0.00  0.00    +0.159 C 
BRANCH  22  23
ATOM     23  O   UNL     1      32.460 -11.562 -22.423  0.00  0.00    -0.270 OA
BRANCH  23  24
ATOM     24  P   UNL     1      31.437 -10.467 -21.729  0.00  0.00    +0.533 P 
ATOM     25  O   UNL     1      30.355 -11.340 -21.101  0.00  0.00    -0.115 OA
ATOM     26  O   UNL     1      30.943  -9.607 -22.890  0.00  0.00    -0.115 OA
ATOM     27  O   UNL     1      32.298  -9.720 -20.715  0.00  0.00    -0.222 OA
ENDBRANCH  23  24
ENDBRANCH  22  23
ENDBRANCH  21  22
ENDBRANCH  18  21
ENDBRANCH   1  16
TORSDOF 7
ENDMDL
MODEL 6
REMARK VINA RESULT:      -9.1      1.985      2.849
REMARK  Name = 4631605
REMARK  7 active torsions:
REMARK  status: ('A' for Active; 'I' for Inactive)
REMARK    1  A    between atoms: C_1  and  C_5
REMARK    2  A    between atoms: C_1  and  N_16
REMARK    3  A    between atoms: C_8  and  C_14
REMARK    4  A    between atoms: C_18  and  C_21
REMARK    5  A    between atoms: C_21  and  C_22
REMARK    6  A    between atoms: C_22  and  O_23
REMARK    7  A    between atoms: O_23  and  P_24
REMARK                            x       y       z     vdW  Elec       q    Type
REMARK                         _______ _______ _______ _____ _____    ______ ____
ROOT
ATOM      1  C   UNL     1      35.674 -21.646 -20.292  0.00  0.00    +0.124 C 
ENDROOT
BRANCH   1   5
ATOM      2  N   UNL     1      35.662 -17.925 -20.957  0.00  0.00    -0.333 NA
ATOM      3  N   UNL     1      33.390 -18.729 -20.908  0.00  0.00    -0.180 NA
ATOM      4  N   UNL     1      37.467 -19.424 -20.614  0.00  0.00    -0.332 N 
ATOM      5  C   UNL     1      35.217 -20.257 -20.559  0.00  0.00    +0.062 C 
ATOM      6  C   UNL     1      36.074 -19.187 -20.714  0.00  0.00    +0.187 C 
ATOM      7  C   UNL     1      33.872 -19.966 -20.667  0.00  0.00    +0.112 C 
ATOM      8  C   UNL     1      34.326 -17.769 -21.040  0.00  0.00    +0.161 C 
ATOM      9  H   UNL     1      38.102 -18.680 -20.721  0.00  0.00    +0.145 HD
ATOM     10  H   UNL     1      37.800 -20.334 -20.437  0.00  0.00    +0.145 HD
BRANCH   8  14
ATOM     11  F   UNL     1      34.633 -15.410 -20.791  0.00  0.00    -0.157 F 
ATOM     12  F   UNL     1      33.723 -16.095 -22.637  0.00  0.00    -0.157 F 
ATOM     13  F   UNL     1      32.593 -16.162 -20.781  0.00  0.00    -0.157 F 
ATOM     14  C   UNL     1      33.832 -16.389 -21.307  0.00  0.00    +0.489 C 
ENDBRANCH   8  14
ENDBRANCH   1   5
BRANCH   1  16
ATOM     15  S   UNL     1      33.310 -23.209 -17.613  0.00  0.00    -0.095 S 
ATOM     16  N   UNL     1      35.021 -22.175 -19.092  0.00  0.00    -0.297 N 
ATOM     17  C   UNL     1      35.623 -22.184 -17.866  0.00  0.00    +0.028 C 
ATOM     18  C   UNL     1      34.804 -22.731 -16.908  0.00  0.00    +0.016 C 
ATOM     19  C   UNL     1      33.815 -22.668 -19.156  0.00  0.00    +0.154 C 
ATOM     20  C   UNL     1      36.981 -21.640 -17.734  0.00  0.00    +0.047 C 
BRANCH  18  21
ATOM     21  C   UNL     1      35.041 -22.939 -15.465  0.00  0.00    +0.066 C 
BRANCH  21  22
ATOM     22  C   UNL     1      35.321 -24.408 -15.101  0.00  0.00    +0.159 C 
BRANCH  22  23
ATOM     23  O   UNL     1      36.721 -24.655 -15.080  0.00  0.00    -0.270 OA
BRANCH  23  24
ATOM     24  P   UNL     1      37.248 -26.202 -14.841  0.00  0.00    +0.533 P 
ATOM     25  O   UNL     1      36.932 -26.460 -13.371  0.00  0.00    -0.115 OA
ATOM     26  O   UNL     1      38.741 -26.157 -15.155  0.00  0.00    -0.115 OA
ATOM     27  O   UNL     1      36.426 -27.046 -15.810  0.00  0.00    -0.222 OA
ENDBRANCH  23  24
ENDBRANCH  22  23
ENDBRANCH  21  22
ENDBRANCH  18  21
ENDBRANCH   1  16
TORSDOF 7
ENDMDL
MODEL 7
REMARK VINA RESULT:      -9.0      3.461      5.061
REMARK  Name = 4631605
REMARK  7 active torsions:
REMARK  status: ('A' for Active; 'I' for Inactive)
REMARK    1  A    between atoms: C_1  and  C_5
REMARK    2  A    between atoms: C_1  and  N_16
REMARK    3  A    between atoms: C_8  and  C_14
REMARK    4  A    between atoms: C_18  and  C_21
REMARK    5  A    between atoms: C_21  and  C_22
REMARK    6  A    between atoms: C_22  and  O_23
REMARK    7  A    between atoms: O_23  and  P_24
REMARK                            x       y       z     vdW  Elec       q    Type
REMARK                         _______ _______ _______ _____ _____    ______ ____
ROOT
ATOM      1  C   UNL     1      35.604 -17.464 -21.434  0.00  0.00    +0.124 C 
ENDROOT
BRANCH   1   5
ATOM      2  N   UNL     1      33.656 -15.065 -23.610  0.00  0.00    -0.333 NA
ATOM      3  N   UNL     1      34.379 -16.936 -24.945  0.00  0.00    -0.180 NA
ATOM      4  N   UNL     1      34.202 -14.960 -21.304  0.00  0.00    -0.332 N 
ATOM      5  C   UNL     1      34.937 -16.838 -22.606  0.00  0.00    +0.062 C 
ATOM      6  C   UNL     1      34.263 -15.636 -22.548  0.00  0.00    +0.187 C 
ATOM      7  C   UNL     1      34.964 -17.450 -23.843  0.00  0.00    +0.112 C 
ATOM      8  C   UNL     1      33.752 -15.759 -24.760  0.00  0.00    +0.161 C 
ATOM      9  H   UNL     1      33.727 -14.102 -21.233  0.00  0.00    +0.145 HD
ATOM     10  H   UNL     1      34.634 -15.351 -20.511  0.00  0.00    +0.145 HD
BRANCH   8  14
ATOM     11  F   UNL     1      32.329 -16.045 -26.662  0.00  0.00    -0.157 F 
ATOM     12  F   UNL     1      32.255 -14.124 -25.658  0.00  0.00    -0.157 F 
ATOM     13  F   UNL     1      33.992 -14.656 -26.853  0.00  0.00    -0.157 F 
ATOM     14  C   UNL     1      33.094 -15.160 -25.957  0.00  0.00    +0.489 C 
ENDBRANCH   8  14
ENDBRANCH   1   5
BRANCH   1  16
ATOM     15  S   UNL     1      33.024 -20.247 -20.537  0.00  0.00    -0.095 S 
ATOM     16  N   UNL     1      34.888 -18.675 -21.028  0.00  0.00    -0.297 N 
ATOM     17  C   UNL     1      35.527 -19.804 -20.600  0.00  0.00    +0.028 C 
ATOM     18  C   UNL     1      34.633 -20.797 -20.278  0.00  0.00    +0.016 C 
ATOM     19  C   UNL     1      33.584 -18.718 -21.062  0.00  0.00    +0.154 C 
ATOM     20  C   UNL     1      36.995 -19.814 -20.540  0.00  0.00    +0.047 C 
BRANCH  18  21
ATOM     21  C   UNL     1      34.877 -22.166 -19.780  0.00  0.00    +0.066 C 
BRANCH  21  22
ATOM     22  C   UNL     1      34.204 -22.446 -18.424  0.00  0.00    +0.159 C 
BRANCH  22  23
ATOM     23  O   UNL     1      35.184 -22.716 -17.430  0.00  0.00    -0.270 OA
BRANCH  23  24
ATOM     24  P   UNL     1      34.692 -23.338 -15.982  0.00  0.00    +0.533 P 
ATOM     25  O   UNL     1      35.227 -24.767 -16.009  0.00  0.00    -0.115 OA
ATOM     26  O   UNL     1      33.169 -23.246 -16.018  0.00  0.00    -0.115 OA
ATOM     27  O   UNL     1      35.352 -22.448 -14.933  0.00  0.00    -0.222 OA
ENDBRANCH  23  24
ENDBRANCH  22  23
ENDBRANCH  21  22
ENDBRANCH  18  21
ENDBRANCH   1  16
TORSDOF 7
ENDMDL
MODEL 8
REMARK VINA RESULT:      -8.9      5.934      7.109
REMARK  Name = 4631605
REMARK  7 active torsions:
REMARK  status: ('A' for Active; 'I' for Inactive)
REMARK    1  A    between atoms: C_1  and  C_5
REMARK    2  A    between atoms: C_1  and  N_16
REMARK    3  A    between atoms: C_8  and  C_14
REMARK    4  A    between atoms: C_18  and  C_21
REMARK    5  A    between atoms: C_21  and  C_22
REMARK    6  A    between atoms: C_22  and  O_23
REMARK    7  A    between atoms: O_23  and  P_24
REMARK                            x       y       z     vdW  Elec       q    Type
REMARK                         _______ _______ _______ _____ _____    ______ ____
ROOT
ATOM      1  C   UNL     1      34.441 -23.005 -15.235  0.00  0.00    +0.124 C 
ENDROOT
BRANCH   1   5
ATOM      2  N   UNL     1      30.962 -23.578 -16.594  0.00  0.00    -0.333 NA
ATOM      3  N   UNL     1      30.965 -24.003 -14.222  0.00  0.00    -0.180 NA
ATOM      4  N   UNL     1      32.956 -22.912 -17.691  0.00  0.00    -0.332 N 
ATOM      5  C   UNL     1      32.994 -23.328 -15.328  0.00  0.00    +0.062 C 
ATOM      6  C   UNL     1      32.276 -23.285 -16.505  0.00  0.00    +0.187 C 
ATOM      7  C   UNL     1      32.279 -23.698 -14.206  0.00  0.00    +0.112 C 
ATOM      8  C   UNL     1      30.377 -23.924 -15.430  0.00  0.00    +0.161 C 
ATOM      9  H   UNL     1      32.469 -22.873 -18.546  0.00  0.00    +0.145 HD
ATOM     10  H   UNL     1      33.915 -22.692 -17.660  0.00  0.00    +0.145 HD
BRANCH   8  14
ATOM     11  F   UNL     1      28.530 -25.156 -14.539  0.00  0.00    -0.157 F 
ATOM     12  F   UNL     1      28.110 -23.173 -15.310  0.00  0.00    -0.157 F 
ATOM     13  F   UNL     1      28.556 -24.798 -16.684  0.00  0.00    -0.157 F 
ATOM     14  C   UNL     1      28.925 -24.255 -15.487  0.00  0.00    +0.489 C 
ENDBRANCH   8  14
ENDBRANCH   1   5
BRANCH   1  16
ATOM     15  S   UNL     1      36.255 -26.456 -15.143  0.00  0.00    -0.095 S 
ATOM     16  N   UNL     1      35.212 -24.209 -14.918  0.00  0.00    -0.297 N 
ATOM     17  C   UNL     1      35.873 -24.375 -13.734  0.00  0.00    +0.028 C 
ATOM     18  C   UNL     1      36.519 -25.586 -13.683  0.00  0.00    +0.016 C 
ATOM     19  C   UNL     1      35.296 -25.188 -15.777  0.00  0.00    +0.154 C 
ATOM     20  C   UNL     1      35.812 -23.305 -12.728  0.00  0.00    +0.047 C 
BRANCH  18  21
ATOM     21  C   UNL     1      37.343 -26.176 -12.609  0.00  0.00    +0.066 C 
BRANCH  21  22
ATOM     22  C   UNL     1      38.795 -25.667 -12.610  0.00  0.00    +0.159 C 
BRANCH  22  23
ATOM     23  O   UNL     1      39.517 -26.229 -13.699  0.00  0.00    -0.270 OA
BRANCH  23  24
ATOM     24  P   UNL     1      40.180 -25.212 -14.817  0.00  0.00    +0.533 P 
ATOM     25  O   UNL     1      39.011 -24.320 -15.224  0.00  0.00    -0.115 OA
ATOM     26  O   UNL     1      40.676 -26.129 -15.931  0.00  0.00    -0.115 OA
ATOM     27  O   UNL     1      41.288 -24.478 -14.066  0.00  0.00    -0.222 OA
ENDBRANCH  23  24
ENDBRANCH  22  23
ENDBRANCH  21  22
ENDBRANCH  18  21
ENDBRANCH   1  16
TORSDOF 7
ENDMDL
MODEL 9
REMARK VINA RESULT:      -8.9      5.131      6.244
REMARK  Name = 4631605
REMARK  7 active torsions:
REMARK  status: ('A' for Active; 'I' for Inactive)
REMARK    1  A    between atoms: C_1  and  C_5
REMARK    2  A    between atoms: C_1  and  N_16
REMARK    3  A    between atoms: C_8  and  C_14
REMARK    4  A    between atoms: C_18  and  C_21
REMARK    5  A    between atoms: C_21  and  C_22
REMARK    6  A    between atoms: C_22  and  O_23
REMARK    7  A    between atoms: O_23  and  P_24
REMARK                            x       y       z     vdW  Elec       q    Type
REMARK                         _______ _______ _______ _____ _____    ______ ____
ROOT
ATOM      1  C   UNL     1      35.034 -22.982 -16.426  0.00  0.00    +0.124 C 
ENDROOT
BRANCH   1   5
ATOM      2  N   UNL     1      31.297 -23.132 -16.970  0.00  0.00    -0.333 NA
ATOM      3  N   UNL     1      31.773 -23.501 -14.637  0.00  0.00    -0.180 NA
ATOM      4  N   UNL     1      33.065 -22.754 -18.505  0.00  0.00    -0.332 N 
ATOM      5  C   UNL     1      33.573 -23.118 -16.188  0.00  0.00    +0.062 C 
ATOM      6  C   UNL     1      32.624 -23.009 -17.183  0.00  0.00    +0.187 C 
ATOM      7  C   UNL     1      33.085 -23.367 -14.921  0.00  0.00    +0.112 C 
ATOM      8  C   UNL     1      30.946 -23.373 -15.692  0.00  0.00    +0.161 C 
ATOM      9  H   UNL     1      32.410 -22.671 -19.235  0.00  0.00    +0.145 HD
ATOM     10  H   UNL     1      34.026 -22.659 -18.693  0.00  0.00    +0.145 HD
BRANCH   8  14
ATOM     11  F   UNL     1      28.758 -23.888 -16.509  0.00  0.00    -0.157 F 
ATOM     12  F   UNL     1      29.200 -24.450 -14.462  0.00  0.00    -0.157 F 
ATOM     13  F   UNL     1      28.920 -22.355 -14.975  0.00  0.00    -0.157 F 
ATOM     14  C   UNL     1      29.488 -23.516 -15.417  0.00  0.00    +0.489 C 
ENDBRANCH   8  14
ENDBRANCH   1   5
BRANCH   1  16
ATOM     15  S   UNL     1      36.344 -26.295 -14.840  0.00  0.00    -0.095 S 
ATOM     16  N   UNL     1      35.763 -24.049 -15.738  0.00  0.00    -0.297 N 
ATOM     17  C   UNL     1      36.955 -23.842 -15.105  0.00  0.00    +0.028 C 
ATOM     18  C   UNL     1      37.433 -24.998 -14.538  0.00  0.00    +0.016 C 
ATOM     19  C   UNL     1      35.287 -25.264 -15.706  0.00  0.00    +0.154 C 
ATOM     20  C   UNL     1      37.538 -22.493 -15.106  0.00  0.00    +0.047 C 
BRANCH  18  21
ATOM     21  C   UNL     1      38.670 -25.235 -13.767  0.00  0.00    +0.066 C 
BRANCH  21  22
ATOM     22  C   UNL     1      38.632 -24.621 -12.356  0.00  0.00    +0.159 C 
BRANCH  22  23
ATOM     23  O   UNL     1      37.424 -24.973 -11.694  0.00  0.00    -0.270 OA
BRANCH  23  24
ATOM     24  P   UNL     1      36.431 -23.765 -11.164  0.00  0.00    +0.533 P 
ATOM     25  O   UNL     1      37.297 -22.515 -11.285  0.00  0.00    -0.115 OA
ATOM     26  O   UNL     1      36.090 -24.146  -9.726  0.00  0.00    -0.115 OA
ATOM     27  O   UNL     1      35.242 -23.792 -12.120  0.00  0.00    -0.222 OA
ENDBRANCH  23  24
ENDBRANCH  22  23
ENDBRANCH  21  22
ENDBRANCH  18  21
ENDBRANCH   1  16
TORSDOF 7
ENDMDL
