MODEL 1
REMARK VINA RESULT:      -9.8      0.000      0.000
REMARK  Name = 5496627
REMARK  9 active torsions:
REMARK  status: ('A' for Active; 'I' for Inactive)
REMARK    1  A    between atoms: C_1  and  C_3
REMARK    2  A    between atoms: C_1  and  C_6
REMARK    3  A    between atoms: C_1  and  C_18
REMARK    4  A    between atoms: C_3  and  O_4
REMARK    5  A    between atoms: C_6  and  C_8
REMARK    6  A    between atoms: C_6  and  C_11
REMARK    7  A    between atoms: C_8  and  O_9
REMARK    8  A    between atoms: C_11  and  C_12
REMARK    9  A    between atoms: C_18  and  C_21
REMARK                            x       y       z     vdW  Elec       q    Type
REMARK                         _______ _______ _______ _____ _____    ______ ____
ROOT
ATOM      1  C   UNL     1      34.522 -16.716 -21.874  0.00  0.00    +0.114 C 
ENDROOT
BRANCH   1   3
ATOM      2  O   UNL     1      35.066 -14.905 -20.357  0.00  0.00    -0.250 OA
ATOM      3  C   UNL     1      34.218 -15.661 -20.817  0.00  0.00    +0.314 C 
BRANCH   3   4
ATOM      4  O   UNL     1      32.918 -15.629 -20.435  0.00  0.00    -0.480 OA
ATOM      5  H   UNL     1      32.583 -14.885 -19.972  0.00  0.00    +0.295 HD
ENDBRANCH   3   4
ENDBRANCH   1   3
BRANCH   1   6
ATOM      6  C   UNL     1      34.596 -16.109 -23.304  0.00  0.00    +0.114 C 
BRANCH   6   8
ATOM      7  O   UNL     1      34.396 -17.314 -25.413  0.00  0.00    -0.250 OA
ATOM      8  C   UNL     1      34.929 -17.202 -24.316  0.00  0.00    +0.314 C 
BRANCH   8   9
ATOM      9  O   UNL     1      35.907 -18.039 -23.885  0.00  0.00    -0.480 OA
ATOM     10  H   UNL     1      36.255 -18.690 -24.463  0.00  0.00    +0.295 HD
ENDBRANCH   8   9
ENDBRANCH   6   8
BRANCH   6  11
ATOM     11  C   UNL     1      33.262 -15.459 -23.745  0.00  0.00    +0.038 C 
BRANCH  11  12
ATOM     12  C   UNL     1      33.449 -14.157 -24.491  0.00  0.00    -0.022 C 
ATOM     13  C   UNL     1      33.848 -13.028 -23.796  0.00  0.00    -0.004 C 
ATOM     14  C   UNL     1      33.218 -14.120 -25.857  0.00  0.00    -0.004 C 
ATOM     15  C   UNL     1      34.020 -11.828 -24.484  0.00  0.00    -0.000 C 
ATOM     16  C   UNL     1      33.390 -12.919 -26.545  0.00  0.00    -0.000 C 
ATOM     17  C   UNL     1      33.791 -11.773 -25.859  0.00  0.00    -0.000 C 
ENDBRANCH  11  12
ENDBRANCH   6  11
ENDBRANCH   1   6
BRANCH   1  18
ATOM     18  C   UNL     1      33.477 -17.849 -21.729  0.00  0.00    +0.038 C 
BRANCH  18  21
ATOM     19  O   UNL     1      32.774 -22.018 -19.178  0.00  0.00    -0.435 OA
ATOM     20  O   UNL     1      35.138 -22.456 -19.019  0.00  0.00    -0.435 OA
ATOM     21  C   UNL     1      33.960 -19.083 -21.005  0.00  0.00    -0.018 C 
ATOM     22  C   UNL     1      33.029 -19.946 -20.443  0.00  0.00    +0.036 C 
ATOM     23  C   UNL     1      35.335 -19.324 -20.920  0.00  0.00    -0.001 C 
ATOM     24  C   UNL     1      33.520 -21.059 -19.792  0.00  0.00    +0.176 C 
ATOM     25  C   UNL     1      34.870 -21.310 -19.701  0.00  0.00    +0.176 C 
ATOM     26  C   UNL     1      35.804 -20.460 -20.256  0.00  0.00    +0.040 C 
ATOM     27  C   UNL     1      33.805 -22.901 -18.691  0.00  0.00    +0.429 C 
ENDBRANCH  18  21
ENDBRANCH   1  18
TORSDOF 9
ENDMDL
MODEL 2
REMARK VINA RESULT:      -9.7      7.366     10.237
REMARK  Name = 5496627
REMARK  9 active torsions:
REMARK  status: ('A' for Active; 'I' for Inactive)
REMARK    1  A    between atoms: C_1  and  C_3
REMARK    2  A    between atoms: C_1  and  C_6
REMARK    3  A    between atoms: C_1  and  C_18
REMARK    4  A    between atoms: C_3  and  O_4
REMARK    5  A    between atoms: C_6  and  C_8
REMARK    6  A    between atoms: C_6  and  C_11
REMARK    7  A    between atoms: C_8  and  O_9
REMARK    8  A    between atoms: C_11  and  C_12
REMARK    9  A    between atoms: C_18  and  C_21
REMARK                            x       y       z     vdW  Elec       q    Type
REMARK                         _______ _______ _______ _____ _____    ______ ____
ROOT
ATOM      1  C   UNL     1      34.125 -24.168 -13.848  0.00  0.00    +0.114 C 
ENDROOT
BRANCH   1   3
ATOM      2  O   UNL     1      34.769 -24.853 -11.613  0.00  0.00    -0.250 OA
ATOM      3  C   UNL     1      34.942 -24.099 -12.564  0.00  0.00    +0.314 C 
BRANCH   3   4
ATOM      4  O   UNL     1      35.889 -23.129 -12.569  0.00  0.00    -0.480 OA
ATOM      5  H   UNL     1      35.717 -22.303 -12.160  0.00  0.00    +0.295 HD
ENDBRANCH   3   4
ENDBRANCH   1   3
BRANCH   1   6
ATOM      6  C   UNL     1      34.992 -23.896 -15.110  0.00  0.00    +0.114 C 
BRANCH   6   8
ATOM      7  O   UNL     1      35.680 -26.176 -15.628  0.00  0.00    -0.250 OA
ATOM      8  C   UNL     1      35.989 -25.034 -15.310  0.00  0.00    +0.314 C 
BRANCH   8   9
ATOM      9  O   UNL     1      37.276 -24.646 -15.123  0.00  0.00    -0.480 OA
ATOM     10  H   UNL     1      37.892 -25.237 -14.734  0.00  0.00    +0.295 HD
ENDBRANCH   8   9
ENDBRANCH   6   8
BRANCH   6  11
ATOM     11  C   UNL     1      34.146 -23.787 -16.402  0.00  0.00    +0.038 C 
BRANCH  11  12
ATOM     12  C   UNL     1      34.749 -22.862 -17.435  0.00  0.00    -0.022 C 
ATOM     13  C   UNL     1      36.028 -22.370 -17.241  0.00  0.00    -0.004 C 
ATOM     14  C   UNL     1      34.008 -22.526 -18.557  0.00  0.00    -0.004 C 
ATOM     15  C   UNL     1      36.584 -21.518 -18.194  0.00  0.00    -0.000 C 
ATOM     16  C   UNL     1      34.564 -21.673 -19.511  0.00  0.00    -0.000 C 
ATOM     17  C   UNL     1      35.852 -21.169 -19.329  0.00  0.00    -0.000 C 
ENDBRANCH  11  12
ENDBRANCH   6  11
ENDBRANCH   1   6
BRANCH   1  18
ATOM     18  C   UNL     1      32.921 -23.206 -13.698  0.00  0.00    +0.038 C 
BRANCH  18  21
ATOM     19  O   UNL     1      29.226 -22.392 -16.870  0.00  0.00    -0.435 OA
ATOM     20  O   UNL     1      28.296 -24.589 -16.529  0.00  0.00    -0.435 OA
ATOM     21  C   UNL     1      31.674 -23.612 -14.445  0.00  0.00    -0.018 C 
ATOM     22  C   UNL     1      31.085 -22.709 -15.319  0.00  0.00    +0.036 C 
ATOM     23  C   UNL     1      31.145 -24.889 -14.237  0.00  0.00    -0.001 C 
ATOM     24  C   UNL     1      29.947 -23.127 -15.979  0.00  0.00    +0.176 C 
ATOM     25  C   UNL     1      29.416 -24.381 -15.785  0.00  0.00    +0.176 C 
ATOM     26  C   UNL     1      29.993 -25.287 -14.919  0.00  0.00    +0.040 C 
ATOM     27  C   UNL     1      28.182 -23.325 -17.215  0.00  0.00    +0.429 C 
ENDBRANCH  18  21
ENDBRANCH   1  18
TORSDOF 9
ENDMDL
MODEL 3
REMARK VINA RESULT:      -9.5      6.610      9.487
REMARK  Name = 5496627
REMARK  9 active torsions:
REMARK  status: ('A' for Active; 'I' for Inactive)
REMARK    1  A    between atoms: C_1  and  C_3
REMARK    2  A    between atoms: C_1  and  C_6
REMARK    3  A    between atoms: C_1  and  C_18
REMARK    4  A    between atoms: C_3  and  O_4
REMARK    5  A    between atoms: C_6  and  C_8
REMARK    6  A    between atoms: C_6  and  C_11
REMARK    7  A    between atoms: C_8  and  O_9
REMARK    8  A    between atoms: C_11  and  C_12
REMARK    9  A    between atoms: C_18  and  C_21
REMARK                            x       y       z     vdW  Elec       q    Type
REMARK                         _______ _______ _______ _____ _____    ______ ____
ROOT
ATOM      1  C   UNL     1      34.874 -23.704 -15.657  0.00  0.00    +0.114 C 
ENDROOT
BRANCH   1   3
ATOM      2  O   UNL     1      36.032 -25.829 -15.807  0.00  0.00    -0.250 OA
ATOM      3  C   UNL     1      35.474 -24.992 -15.106  0.00  0.00    +0.314 C 
BRANCH   3   4
ATOM      4  O   UNL     1      35.342 -25.127 -13.764  0.00  0.00    -0.480 OA
ATOM      5  H   UNL     1      36.103 -25.221 -13.225  0.00  0.00    +0.295 HD
ENDBRANCH   3   4
ENDBRANCH   1   3
BRANCH   1   6
ATOM      6  C   UNL     1      35.962 -22.644 -15.987  0.00  0.00    +0.114 C 
BRANCH   6   8
ATOM      7  O   UNL     1      37.197 -22.749 -13.889  0.00  0.00    -0.250 OA
ATOM      8  C   UNL     1      37.189 -22.867 -15.108  0.00  0.00    +0.314 C 
BRANCH   8   9
ATOM      9  O   UNL     1      38.285 -23.241 -15.817  0.00  0.00    -0.480 OA
ATOM     10  H   UNL     1      38.205 -23.878 -16.501  0.00  0.00    +0.295 HD
ENDBRANCH   8   9
ENDBRANCH   6   8
BRANCH   6  11
ATOM     11  C   UNL     1      36.429 -22.709 -17.461  0.00  0.00    +0.038 C 
BRANCH  11  12
ATOM     12  C   UNL     1      35.482 -22.022 -18.420  0.00  0.00    -0.022 C 
ATOM     13  C   UNL     1      35.982 -21.098 -19.322  0.00  0.00    -0.004 C 
ATOM     14  C   UNL     1      34.133 -22.332 -18.377  0.00  0.00    -0.004 C 
ATOM     15  C   UNL     1      35.109 -20.466 -20.206  0.00  0.00    -0.000 C 
ATOM     16  C   UNL     1      33.259 -21.700 -19.262  0.00  0.00    -0.000 C 
ATOM     17  C   UNL     1      33.748 -20.766 -20.176  0.00  0.00    -0.000 C 
ENDBRANCH  11  12
ENDBRANCH   6  11
ENDBRANCH   1   6
BRANCH   1  18
ATOM     18  C   UNL     1      33.805 -23.210 -14.651  0.00  0.00    +0.038 C 
BRANCH  18  21
ATOM     19  O   UNL     1      29.558 -22.543 -17.079  0.00  0.00    -0.435 OA
ATOM     20  O   UNL     1      28.519 -24.440 -16.016  0.00  0.00    -0.435 OA
ATOM     21  C   UNL     1      32.380 -23.570 -14.995  0.00  0.00    -0.018 C 
ATOM     22  C   UNL     1      31.693 -22.799 -15.923  0.00  0.00    +0.036 C 
ATOM     23  C   UNL     1      31.790 -24.673 -14.371  0.00  0.00    -0.001 C 
ATOM     24  C   UNL     1      30.393 -23.168 -16.205  0.00  0.00    +0.176 C 
ATOM     25  C   UNL     1      29.800 -24.251 -15.598  0.00  0.00    +0.176 C 
ATOM     26  C   UNL     1      30.473 -25.025 -14.675  0.00  0.00    +0.040 C 
ATOM     27  C   UNL     1      28.372 -23.354 -16.955  0.00  0.00    +0.429 C 
ENDBRANCH  18  21
ENDBRANCH   1  18
TORSDOF 9
ENDMDL
MODEL 4
REMARK VINA RESULT:      -9.5      2.241      8.152
REMARK  Name = 5496627
REMARK  9 active torsions:
REMARK  status: ('A' for Active; 'I' for Inactive)
REMARK    1  A    between atoms: C_1  and  C_3
REMARK    2  A    between atoms: C_1  and  C_6
REMARK    3  A    between atoms: C_1  and  C_18
REMARK    4  A    between atoms: C_3  and  O_4
REMARK    5  A    between atoms: C_6  and  C_8
REMARK    6  A    between atoms: C_6  and  C_11
REMARK    7  A    between atoms: C_8  and  O_9
REMARK    8  A    between atoms: C_11  and  C_12
REMARK    9  A    between atoms: C_18  and  C_21
REMARK                            x       y       z     vdW  Elec       q    Type
REMARK                         _______ _______ _______ _____ _____    ______ ____
ROOT
ATOM      1  C   UNL     1      34.477 -15.535 -23.274  0.00  0.00    +0.114 C 
ENDROOT
BRANCH   1   3
ATOM      2  O   UNL     1      33.968 -16.383 -25.487  0.00  0.00    -0.250 OA
ATOM      3  C   UNL     1      34.661 -16.449 -24.479  0.00  0.00    +0.314 C 
BRANCH   3   4
ATOM      4  O   UNL     1      35.672 -17.341 -24.339  0.00  0.00    -0.480 OA
ATOM      5  H   UNL     1      36.431 -17.116 -23.836  0.00  0.00    +0.295 HD
ENDBRANCH   3   4
ENDBRANCH   1   3
BRANCH   1   6
ATOM      6  C   UNL     1      34.728 -16.277 -21.931  0.00  0.00    +0.114 C 
BRANCH   6   8
ATOM      7  O   UNL     1      35.142 -14.508 -20.306  0.00  0.00    -0.250 OA
ATOM      8  C   UNL     1      34.387 -15.360 -20.759  0.00  0.00    +0.314 C 
BRANCH   8   9
ATOM      9  O   UNL     1      33.137 -15.567 -20.275  0.00  0.00    -0.480 OA
ATOM     10  H   UNL     1      32.800 -15.014 -19.597  0.00  0.00    +0.295 HD
ENDBRANCH   8   9
ENDBRANCH   6   8
BRANCH   6  11
ATOM     11  C   UNL     1      33.869 -17.555 -21.786  0.00  0.00    +0.038 C 
BRANCH  11  12
ATOM     12  C   UNL     1      34.618 -18.713 -21.165  0.00  0.00    -0.022 C 
ATOM     13  C   UNL     1      36.000 -18.668 -21.099  0.00  0.00    -0.004 C 
ATOM     14  C   UNL     1      33.906 -19.796 -20.675  0.00  0.00    -0.004 C 
ATOM     15  C   UNL     1      36.690 -19.736 -20.526  0.00  0.00    -0.000 C 
ATOM     16  C   UNL     1      34.597 -20.864 -20.102  0.00  0.00    -0.000 C 
ATOM     17  C   UNL     1      35.989 -20.834 -20.028  0.00  0.00    -0.000 C 
ENDBRANCH  11  12
ENDBRANCH   6  11
ENDBRANCH   1   6
BRANCH   1  18
ATOM     18  C   UNL     1      33.072 -14.889 -23.378  0.00  0.00    +0.038 C 
BRANCH  18  21
ATOM     19  O   UNL     1      31.600 -10.450 -21.795  0.00  0.00    -0.435 OA
ATOM     20  O   UNL     1      32.933  -9.295 -23.437  0.00  0.00    -0.435 OA
ATOM     21  C   UNL     1      33.058 -13.380 -23.422  0.00  0.00    -0.018 C 
ATOM     22  C   UNL     1      32.276 -12.684 -22.512  0.00  0.00    +0.036 C 
ATOM     23  C   UNL     1      33.836 -12.723 -24.380  0.00  0.00    -0.001 C 
ATOM     24  C   UNL     1      32.296 -11.306 -22.592  0.00  0.00    +0.176 C 
ATOM     25  C   UNL     1      33.057 -10.646 -23.529  0.00  0.00    +0.176 C 
ATOM     26  C   UNL     1      33.839 -11.328 -24.438  0.00  0.00    +0.040 C 
ATOM     27  C   UNL     1      32.009  -9.177 -22.335  0.00  0.00    +0.429 C 
ENDBRANCH  18  21
ENDBRANCH   1  18
TORSDOF 9
ENDMDL
MODEL 5
REMARK VINA RESULT:      -9.4      5.040     10.883
REMARK  Name = 5496627
REMARK  9 active torsions:
REMARK  status: ('A' for Active; 'I' for Inactive)
REMARK    1  A    between atoms: C_1  and  C_3
REMARK    2  A    between atoms: C_1  and  C_6
REMARK    3  A    between atoms: C_1  and  C_18
REMARK    4  A    between atoms: C_3  and  O_4
REMARK    5  A    between atoms: C_6  and  C_8
REMARK    6  A    between atoms: C_6  and  C_11
REMARK    7  A    between atoms: C_8  and  O_9
REMARK    8  A    between atoms: C_11  and  C_12
REMARK    9  A    between atoms: C_18  and  C_21
REMARK                            x       y       z     vdW  Elec       q    Type
REMARK                         _______ _______ _______ _____ _____    ______ ____
ROOT
ATOM      1  C   UNL     1      34.771 -23.931 -15.381  0.00  0.00    +0.114 C 
ENDROOT
BRANCH   1   3
ATOM      2  O   UNL     1      35.747 -26.124 -15.721  0.00  0.00    -0.250 OA
ATOM      3  C   UNL     1      35.915 -24.919 -15.570  0.00  0.00    +0.314 C 
BRANCH   3   4
ATOM      4  O   UNL     1      37.142 -24.343 -15.565  0.00  0.00    -0.480 OA
ATOM      5  H   UNL     1      37.858 -24.768 -15.133  0.00  0.00    +0.295 HD
ENDBRANCH   3   4
ENDBRANCH   1   3
BRANCH   1   6
ATOM      6  C   UNL     1      33.985 -24.188 -14.065  0.00  0.00    +0.114 C 
BRANCH   6   8
ATOM      7  O   UNL     1      35.842 -23.268 -12.784  0.00  0.00    -0.250 OA
ATOM      8  C   UNL     1      34.924 -24.074 -12.868  0.00  0.00    +0.314 C 
BRANCH   8   9
ATOM      9  O   UNL     1      34.625 -24.952 -11.877  0.00  0.00    -0.480 OA
ATOM     10  H   UNL     1      34.085 -25.697 -12.059  0.00  0.00    +0.295 HD
ENDBRANCH   8   9
ENDBRANCH   6   8
BRANCH   6  11
ATOM     11  C   UNL     1      32.834 -23.176 -13.850  0.00  0.00    +0.038 C 
BRANCH  11  12
ATOM     12  C   UNL     1      31.511 -23.645 -14.411  0.00  0.00    -0.022 C 
ATOM     13  C   UNL     1      30.710 -22.749 -15.099  0.00  0.00    -0.004 C 
ATOM     14  C   UNL     1      31.127 -24.963 -14.227  0.00  0.00    -0.004 C 
ATOM     15  C   UNL     1      29.490 -23.183 -15.616  0.00  0.00    -0.000 C 
ATOM     16  C   UNL     1      29.906 -25.397 -14.745  0.00  0.00    -0.000 C 
ATOM     17  C   UNL     1      29.088 -24.506 -15.440  0.00  0.00    -0.000 C 
ENDBRANCH  11  12
ENDBRANCH   6  11
ENDBRANCH   1   6
BRANCH   1  18
ATOM     18  C   UNL     1      33.890 -23.975 -16.654  0.00  0.00    +0.038 C 
BRANCH  18  21
ATOM     19  O   UNL     1      32.651 -20.845 -20.267  0.00  0.00    -0.435 OA
ATOM     20  O   UNL     1      34.920 -20.077 -20.536  0.00  0.00    -0.435 OA
ATOM     21  C   UNL     1      34.203 -22.925 -17.692  0.00  0.00    -0.018 C 
ATOM     22  C   UNL     1      33.174 -22.418 -18.474  0.00  0.00    +0.036 C 
ATOM     23  C   UNL     1      35.523 -22.488 -17.838  0.00  0.00    -0.001 C 
ATOM     24  C   UNL     1      33.511 -21.460 -19.408  0.00  0.00    +0.176 C 
ATOM     25  C   UNL     1      34.806 -21.021 -19.562  0.00  0.00    +0.176 C 
ATOM     26  C   UNL     1      35.836 -21.517 -18.791  0.00  0.00    +0.040 C 
ATOM     27  C   UNL     1      33.550 -19.970 -20.978  0.00  0.00    +0.429 C 
ENDBRANCH  18  21
ENDBRANCH   1  18
TORSDOF 9
ENDMDL
MODEL 6
REMARK VINA RESULT:      -9.4      7.186     10.261
REMARK  Name = 5496627
REMARK  9 active torsions:
REMARK  status: ('A' for Active; 'I' for Inactive)
REMARK    1  A    between atoms: C_1  and  C_3
REMARK    2  A    between atoms: C_1  and  C_6
REMARK    3  A    between atoms: C_1  and  C_18
REMARK    4  A    between atoms: C_3  and  O_4
REMARK    5  A    between atoms: C_6  and  C_8
REMARK    6  A    between atoms: C_6  and  C_11
REMARK    7  A    between atoms: C_8  and  O_9
REMARK    8  A    between atoms: C_11  and  C_12
REMARK    9  A    between atoms: C_18  and  C_21
REMARK                            x       y       z     vdW  Elec       q    Type
REMARK                         _______ _______ _______ _____ _____    ______ ____
ROOT
ATOM      1  C   UNL     1      34.890 -24.240 -15.003  0.00  0.00    +0.114 C 
ENDROOT
BRANCH   1   3
ATOM      2  O   UNL     1      35.963 -26.234 -15.868  0.00  0.00    -0.250 OA
ATOM      3  C   UNL     1      35.687 -25.535 -14.900  0.00  0.00    +0.314 C 
BRANCH   3   4
ATOM      4  O   UNL     1      36.071 -25.842 -13.637  0.00  0.00    -0.480 OA
ATOM      5  H   UNL     1      35.505 -26.346 -13.084  0.00  0.00    +0.295 HD
ENDBRANCH   3   4
ENDBRANCH   1   3
BRANCH   1   6
ATOM      6  C   UNL     1      35.803 -22.983 -14.938  0.00  0.00    +0.114 C 
BRANCH   6   8
ATOM      7  O   UNL     1      37.934 -23.313 -13.803  0.00  0.00    -0.250 OA
ATOM      8  C   UNL     1      36.734 -23.078 -13.733  0.00  0.00    +0.314 C 
BRANCH   8   9
ATOM      9  O   UNL     1      36.098 -22.848 -12.557  0.00  0.00    -0.480 OA
ATOM     10  H   UNL     1      35.995 -21.970 -12.243  0.00  0.00    +0.295 HD
ENDBRANCH   8   9
ENDBRANCH   6   8
BRANCH   6  11
ATOM     11  C   UNL     1      36.689 -22.824 -16.198  0.00  0.00    +0.038 C 
BRANCH  11  12
ATOM     12  C   UNL     1      35.924 -22.346 -17.411  0.00  0.00    -0.022 C 
ATOM     13  C   UNL     1      34.593 -22.699 -17.556  0.00  0.00    -0.004 C 
ATOM     14  C   UNL     1      36.570 -21.563 -18.354  0.00  0.00    -0.004 C 
ATOM     15  C   UNL     1      33.888 -22.258 -18.675  0.00  0.00    -0.000 C 
ATOM     16  C   UNL     1      35.864 -21.121 -19.473  0.00  0.00    -0.000 C 
ATOM     17  C   UNL     1      34.523 -21.469 -19.633  0.00  0.00    -0.000 C 
ENDBRANCH  11  12
ENDBRANCH   6  11
ENDBRANCH   1   6
BRANCH   1  18
ATOM     18  C   UNL     1      33.791 -24.271 -13.912  0.00  0.00    +0.038 C 
BRANCH  18  21
ATOM     19  O   UNL     1      30.183 -22.563 -16.819  0.00  0.00    -0.435 OA
ATOM     20  O   UNL     1      28.565 -24.099 -15.907  0.00  0.00    -0.435 OA
ATOM     21  C   UNL     1      32.372 -24.251 -14.427  0.00  0.00    -0.018 C 
ATOM     22  C   UNL     1      32.025 -23.347 -15.421  0.00  0.00    +0.036 C 
ATOM     23  C   UNL     1      31.443 -25.147 -13.889  0.00  0.00    -0.001 C 
ATOM     24  C   UNL     1      30.716 -23.368 -15.859  0.00  0.00    +0.176 C 
ATOM     25  C   UNL     1      29.792 -24.244 -15.338  0.00  0.00    +0.176 C 
ATOM     26  C   UNL     1      30.125 -25.148 -14.351  0.00  0.00    +0.040 C 
ATOM     27  C   UNL     1      28.819 -23.032 -16.845  0.00  0.00    +0.429 C 
ENDBRANCH  18  21
ENDBRANCH   1  18
TORSDOF 9
ENDMDL
MODEL 7
REMARK VINA RESULT:      -9.1      3.977     10.080
REMARK  Name = 5496627
REMARK  9 active torsions:
REMARK  status: ('A' for Active; 'I' for Inactive)
REMARK    1  A    between atoms: C_1  and  C_3
REMARK    2  A    between atoms: C_1  and  C_6
REMARK    3  A    between atoms: C_1  and  C_18
REMARK    4  A    between atoms: C_3  and  O_4
REMARK    5  A    between atoms: C_6  and  C_8
REMARK    6  A    between atoms: C_6  and  C_11
REMARK    7  A    between atoms: C_8  and  O_9
REMARK    8  A    between atoms: C_11  and  C_12
REMARK    9  A    between atoms: C_18  and  C_21
REMARK                            x       y       z     vdW  Elec       q    Type
REMARK                         _______ _______ _______ _____ _____    ______ ____
ROOT
ATOM      1  C   UNL     1      34.753 -22.641 -16.814  0.00  0.00    +0.114 C 
ENDROOT
BRANCH   1   3
ATOM      2  O   UNL     1      36.416 -21.924 -15.202  0.00  0.00    -0.250 OA
ATOM      3  C   UNL     1      36.168 -22.432 -16.289  0.00  0.00    +0.314 C 
BRANCH   3   4
ATOM      4  O   UNL     1      37.135 -22.869 -17.134  0.00  0.00    -0.480 OA
ATOM      5  H   UNL     1      37.220 -23.785 -17.315  0.00  0.00    +0.295 HD
ENDBRANCH   3   4
ENDBRANCH   1   3
BRANCH   1   6
ATOM      6  C   UNL     1      33.987 -23.735 -16.017  0.00  0.00    +0.114 C 
BRANCH   6   8
ATOM      7  O   UNL     1      35.741 -25.400 -15.727  0.00  0.00    -0.250 OA
ATOM      8  C   UNL     1      34.974 -24.588 -15.226  0.00  0.00    +0.314 C 
BRANCH   8   9
ATOM      9  O   UNL     1      34.935 -24.339 -13.893  0.00  0.00    -0.480 OA
ATOM     10  H   UNL     1      35.698 -24.013 -13.455  0.00  0.00    +0.295 HD
ENDBRANCH   8   9
ENDBRANCH   6   8
BRANCH   6  11
ATOM     11  C   UNL     1      32.975 -23.139 -15.009  0.00  0.00    +0.038 C 
BRANCH  11  12
ATOM     12  C   UNL     1      31.556 -23.612 -15.235  0.00  0.00    -0.022 C 
ATOM     13  C   UNL     1      31.091 -24.717 -14.543  0.00  0.00    -0.004 C 
ATOM     14  C   UNL     1      30.750 -22.928 -16.130  0.00  0.00    -0.004 C 
ATOM     15  C   UNL     1      29.783 -25.152 -14.751  0.00  0.00    -0.000 C 
ATOM     16  C   UNL     1      29.441 -23.363 -16.338  0.00  0.00    -0.000 C 
ATOM     17  C   UNL     1      28.958 -24.475 -15.649  0.00  0.00    -0.000 C 
ENDBRANCH  11  12
ENDBRANCH   6  11
ENDBRANCH   1   6
BRANCH   1  18
ATOM     18  C   UNL     1      34.847 -22.924 -18.334  0.00  0.00    +0.038 C 
BRANCH  18  21
ATOM     19  O   UNL     1      36.367 -19.160 -21.145  0.00  0.00    -0.435 OA
ATOM     20  O   UNL     1      34.112 -18.484 -21.659  0.00  0.00    -0.435 OA
ATOM     21  C   UNL     1      34.612 -21.731 -19.227  0.00  0.00    -0.018 C 
ATOM     22  C   UNL     1      35.704 -21.043 -19.739  0.00  0.00    +0.036 C 
ATOM     23  C   UNL     1      33.299 -21.349 -19.518  0.00  0.00    -0.001 C 
ATOM     24  C   UNL     1      35.438 -19.960 -20.551  0.00  0.00    +0.176 C 
ATOM     25  C   UNL     1      34.151 -19.573 -20.845  0.00  0.00    +0.176 C 
ATOM     26  C   UNL     1      33.058 -20.248 -20.343  0.00  0.00    +0.040 C 
ATOM     27  C   UNL     1      35.520 -18.227 -21.846  0.00  0.00    +0.429 C 
ENDBRANCH  18  21
ENDBRANCH   1  18
TORSDOF 9
ENDMDL
MODEL 8
REMARK VINA RESULT:      -9.1      7.165      9.930
REMARK  Name = 5496627
REMARK  9 active torsions:
REMARK  status: ('A' for Active; 'I' for Inactive)
REMARK    1  A    between atoms: C_1  and  C_3
REMARK    2  A    between atoms: C_1  and  C_6
REMARK    3  A    between atoms: C_1  and  C_18
REMARK    4  A    between atoms: C_3  and  O_4
REMARK    5  A    between atoms: C_6  and  C_8
REMARK    6  A    between atoms: C_6  and  C_11
REMARK    7  A    between atoms: C_8  and  O_9
REMARK    8  A    between atoms: C_11  and  C_12
REMARK    9  A    between atoms: C_18  and  C_21
REMARK                            x       y       z     vdW  Elec       q    Type
REMARK                         _______ _______ _______ _____ _____    ______ ____
ROOT
ATOM      1  C   UNL     1      35.649 -22.547 -17.430  0.00  0.00    +0.114 C 
ENDROOT
BRANCH   1   3
ATOM      2  O   UNL     1      36.113 -20.931 -19.177  0.00  0.00    -0.250 OA
ATOM      3  C   UNL     1      36.323 -21.321 -18.035  0.00  0.00    +0.314 C 
BRANCH   3   4
ATOM      4  O   UNL     1      37.175 -20.693 -17.188  0.00  0.00    -0.480 OA
ATOM      5  H   UNL     1      37.232 -20.964 -16.292  0.00  0.00    +0.295 HD
ENDBRANCH   3   4
ENDBRANCH   1   3
BRANCH   1   6
ATOM      6  C   UNL     1      34.122 -22.580 -17.721  0.00  0.00    +0.114 C 
BRANCH   6   8
ATOM      7  O   UNL     1      34.224 -23.606 -19.929  0.00  0.00    -0.250 OA
ATOM      8  C   UNL     1      33.882 -22.664 -19.226  0.00  0.00    +0.314 C 
BRANCH   8   9
ATOM      9  O   UNL     1      33.218 -21.585 -19.714  0.00  0.00    -0.480 OA
ATOM     10  H   UNL     1      33.379 -21.294 -20.591  0.00  0.00    +0.295 HD
ENDBRANCH   8   9
ENDBRANCH   6   8
BRANCH   6  11
ATOM     11  C   UNL     1      33.418 -23.795 -17.070  0.00  0.00    +0.038 C 
BRANCH  11  12
ATOM     12  C   UNL     1      32.307 -23.405 -16.121  0.00  0.00    -0.022 C 
ATOM     13  C   UNL     1      31.064 -23.072 -16.632  0.00  0.00    -0.004 C 
ATOM     14  C   UNL     1      32.556 -23.389 -14.758  0.00  0.00    -0.004 C 
ATOM     15  C   UNL     1      30.040 -22.713 -15.756  0.00  0.00    -0.000 C 
ATOM     16  C   UNL     1      31.531 -23.029 -13.882  0.00  0.00    -0.000 C 
ATOM     17  C   UNL     1      30.274 -22.691 -14.382  0.00  0.00    -0.000 C 
ENDBRANCH  11  12
ENDBRANCH   6  11
ENDBRANCH   1   6
BRANCH   1  18
ATOM     18  C   UNL     1      35.999 -22.586 -15.922  0.00  0.00    +0.038 C 
BRANCH  18  21
ATOM     19  O   UNL     1      40.321 -24.728 -14.866  0.00  0.00    -0.435 OA
ATOM     20  O   UNL     1      39.278 -26.833 -14.329  0.00  0.00    -0.435 OA
ATOM     21  C   UNL     1      36.853 -23.753 -15.489  0.00  0.00    -0.018 C 
ATOM     22  C   UNL     1      38.230 -23.590 -15.406  0.00  0.00    +0.036 C 
ATOM     23  C   UNL     1      36.235 -24.968 -15.180  0.00  0.00    -0.001 C 
ATOM     24  C   UNL     1      38.968 -24.685 -15.006  0.00  0.00    +0.176 C 
ATOM     25  C   UNL     1      38.373 -25.887 -14.699  0.00  0.00    +0.176 C 
ATOM     26  C   UNL     1      37.006 -26.061 -14.777  0.00  0.00    +0.040 C 
ATOM     27  C   UNL     1      40.511 -26.091 -14.436  0.00  0.00    +0.429 C 
ENDBRANCH  18  21
ENDBRANCH   1  18
TORSDOF 9
ENDMDL
MODEL 9
REMARK VINA RESULT:      -9.0      1.039      2.783
REMARK  Name = 5496627
REMARK  9 active torsions:
REMARK  status: ('A' for Active; 'I' for Inactive)
REMARK    1  A    between atoms: C_1  and  C_3
REMARK    2  A    between atoms: C_1  and  C_6
REMARK    3  A    between atoms: C_1  and  C_18
REMARK    4  A    between atoms: C_3  and  O_4
REMARK    5  A    between atoms: C_6  and  C_8
REMARK    6  A    between atoms: C_6  and  C_11
REMARK    7  A    between atoms: C_8  and  O_9
REMARK    8  A    between atoms: C_11  and  C_12
REMARK    9  A    between atoms: C_18  and  C_21
REMARK                            x       y       z     vdW  Elec       q    Type
REMARK                         _______ _______ _______ _____ _____    ______ ____
ROOT
ATOM      1  C   UNL     1      34.420 -18.220 -22.421  0.00  0.00    +0.114 C 
ENDROOT
BRANCH   1   3
ATOM      2  O   UNL     1      34.051 -18.945 -24.705  0.00  0.00    -0.250 OA
ATOM      3  C   UNL     1      34.845 -18.698 -23.804  0.00  0.00    +0.314 C 
BRANCH   3   4
ATOM      4  O   UNL     1      36.187 -18.819 -23.953  0.00  0.00    -0.480 OA
ATOM      5  H   UNL     1      36.713 -19.121 -23.238  0.00  0.00    +0.295 HD
ENDBRANCH   3   4
ENDBRANCH   1   3
BRANCH   1   6
ATOM      6  C   UNL     1      33.950 -16.737 -22.431  0.00  0.00    +0.114 C 
BRANCH   6   8
ATOM      7  O   UNL     1      34.849 -15.766 -20.385  0.00  0.00    -0.250 OA
ATOM      8  C   UNL     1      33.886 -16.203 -21.003  0.00  0.00    +0.314 C 
BRANCH   8   9
ATOM      9  O   UNL     1      32.632 -16.237 -20.484  0.00  0.00    -0.480 OA
ATOM     10  H   UNL     1      32.078 -15.483 -20.549  0.00  0.00    +0.295 HD
ENDBRANCH   8   9
ENDBRANCH   6   8
BRANCH   6  11
ATOM     11  C   UNL     1      34.903 -15.815 -23.230  0.00  0.00    +0.038 C 
BRANCH  11  12
ATOM     12  C   UNL     1      34.199 -15.004 -24.294  0.00  0.00    -0.022 C 
ATOM     13  C   UNL     1      34.008 -13.647 -24.096  0.00  0.00    -0.004 C 
ATOM     14  C   UNL     1      33.759 -15.635 -25.446  0.00  0.00    -0.004 C 
ATOM     15  C   UNL     1      33.358 -12.899 -25.078  0.00  0.00    -0.000 C 
ATOM     16  C   UNL     1      33.110 -14.886 -26.428  0.00  0.00    -0.000 C 
ATOM     17  C   UNL     1      32.910 -13.519 -26.244  0.00  0.00    -0.000 C 
ENDBRANCH  11  12
ENDBRANCH   6  11
ENDBRANCH   1   6
BRANCH   1  18
ATOM     18  C   UNL     1      35.588 -18.499 -21.443  0.00  0.00    +0.038 C 
BRANCH  18  21
ATOM     19  O   UNL     1      32.883 -21.968 -19.201  0.00  0.00    -0.435 OA
ATOM     20  O   UNL     1      34.822 -23.008 -18.218  0.00  0.00    -0.435 OA
ATOM     21  C   UNL     1      35.418 -19.717 -20.567  0.00  0.00    -0.018 C 
ATOM     22  C   UNL     1      34.142 -20.218 -20.345  0.00  0.00    +0.036 C 
ATOM     23  C   UNL     1      36.551 -20.310 -20.004  0.00  0.00    -0.001 C 
ATOM     24  C   UNL     1      34.038 -21.332 -19.538  0.00  0.00    +0.176 C 
ATOM     25  C   UNL     1      35.145 -21.927 -18.977  0.00  0.00    +0.176 C 
ATOM     26  C   UNL     1      36.418 -21.438 -19.191  0.00  0.00    +0.040 C 
ATOM     27  C   UNL     1      33.387 -23.030 -18.364  0.00  0.00    +0.429 C 
ENDBRANCH  18  21
ENDBRANCH   1  18
TORSDOF 9
ENDMDL
