MODEL 1
REMARK VINA RESULT:      -4.7      0.000      0.000
REMARK  Name = 4468930
REMARK  6 active torsions:
REMARK  status: ('A' for Active; 'I' for Inactive)
REMARK    1  A    between atoms: N_1  and  C_3
REMARK    2  A    between atoms: N_1  and  C_6
REMARK    3  A    between atoms: N_1  and  C_9
REMARK    4  A    between atoms: C_3  and  O_4
REMARK    5  A    between atoms: C_6  and  O_7
REMARK    6  A    between atoms: C_9  and  O_10
REMARK                            x       y       z     vdW  Elec       q    Type
REMARK                         _______ _______ _______ _____ _____    ______ ____
ROOT
ATOM      1  N   UNL     1      38.543 -25.371 -14.245  0.00  0.00    +0.441 N 
ATOM      2  C   UNL     1      38.464 -25.109 -12.748  0.00  0.00    -0.085 C 
ENDROOT
BRANCH   1   3
ATOM      3  C   UNL     1      37.921 -24.191 -15.010  0.00  0.00    +0.077 C 
BRANCH   3   4
ATOM      4  O   UNL     1      38.759 -23.485 -15.915  0.00  0.00    -0.404 OA
ATOM      5  H   UNL     1      39.597 -23.963 -16.021  0.00  0.00    +0.208 HD
ENDBRANCH   3   4
ENDBRANCH   1   3
BRANCH   1   6
ATOM      6  C   UNL     1      37.750 -26.648 -14.580  0.00  0.00    +0.077 C 
BRANCH   6   7
ATOM      7  O   UNL     1      37.320 -26.791 -15.928  0.00  0.00    -0.404 OA
ATOM      8  H   UNL     1      38.059 -26.599 -16.525  0.00  0.00    +0.208 HD
ENDBRANCH   6   7
ENDBRANCH   1   6
BRANCH   1   9
ATOM      9  C   UNL     1      40.006 -25.560 -14.667  0.00  0.00    +0.077 C 
BRANCH   9  10
ATOM     10  O   UNL     1      40.236 -25.913 -16.026  0.00  0.00    -0.404 OA
ATOM     11  H   UNL     1      39.684 -25.360 -16.601  0.00  0.00    +0.208 HD
ENDBRANCH   9  10
ENDBRANCH   1   9
TORSDOF 6
ENDMDL
MODEL 2
REMARK VINA RESULT:      -4.6      0.245      2.445
REMARK  Name = 4468930
REMARK  6 active torsions:
REMARK  status: ('A' for Active; 'I' for Inactive)
REMARK    1  A    between atoms: N_1  and  C_3
REMARK    2  A    between atoms: N_1  and  C_6
REMARK    3  A    between atoms: N_1  and  C_9
REMARK    4  A    between atoms: C_3  and  O_4
REMARK    5  A    between atoms: C_6  and  O_7
REMARK    6  A    between atoms: C_9  and  O_10
REMARK                            x       y       z     vdW  Elec       q    Type
REMARK                         _______ _______ _______ _____ _____    ______ ____
ROOT
ATOM      1  N   UNL     1      38.440 -25.376 -14.051  0.00  0.00    +0.441 N 
ATOM      2  C   UNL     1      38.275 -25.234 -12.545  0.00  0.00    -0.085 C 
ENDROOT
BRANCH   1   3
ATOM      3  C   UNL     1      39.932 -25.496 -14.399  0.00  0.00    +0.077 C 
BRANCH   3   4
ATOM      4  O   UNL     1      40.265 -25.923 -15.714  0.00  0.00    -0.404 OA
ATOM      5  H   UNL     1      39.822 -26.765 -15.902  0.00  0.00    +0.208 HD
ENDBRANCH   3   4
ENDBRANCH   1   3
BRANCH   1   6
ATOM      6  C   UNL     1      37.871 -24.125 -14.745  0.00  0.00    +0.077 C 
BRANCH   6   7
ATOM      7  O   UNL     1      38.590 -23.644 -15.873  0.00  0.00    -0.404 OA
ATOM      8  H   UNL     1      38.852 -22.723 -15.721  0.00  0.00    +0.208 HD
ENDBRANCH   6   7
ENDBRANCH   1   6
BRANCH   1   9
ATOM      9  C   UNL     1      37.682 -26.616 -14.545  0.00  0.00    +0.077 C 
BRANCH   9  10
ATOM     10  O   UNL     1      37.360 -26.654 -15.930  0.00  0.00    -0.404 OA
ATOM     11  H   UNL     1      36.590 -27.230 -16.067  0.00  0.00    +0.208 HD
ENDBRANCH   9  10
ENDBRANCH   1   9
TORSDOF 6
ENDMDL
MODEL 3
REMARK VINA RESULT:      -4.4      0.836      2.596
REMARK  Name = 4468930
REMARK  6 active torsions:
REMARK  status: ('A' for Active; 'I' for Inactive)
REMARK    1  A    between atoms: N_1  and  C_3
REMARK    2  A    between atoms: N_1  and  C_6
REMARK    3  A    between atoms: N_1  and  C_9
REMARK    4  A    between atoms: C_3  and  O_4
REMARK    5  A    between atoms: C_6  and  O_7
REMARK    6  A    between atoms: C_9  and  O_10
REMARK                            x       y       z     vdW  Elec       q    Type
REMARK                         _______ _______ _______ _____ _____    ______ ____
ROOT
ATOM      1  N   UNL     1      38.066 -25.624 -13.986  0.00  0.00    +0.441 N 
ATOM      2  C   UNL     1      38.000 -25.696 -12.467  0.00  0.00    -0.085 C 
ENDROOT
BRANCH   1   3
ATOM      3  C   UNL     1      37.173 -26.718 -14.594  0.00  0.00    +0.077 C 
BRANCH   3   4
ATOM      4  O   UNL     1      37.269 -26.936 -15.996  0.00  0.00    -0.404 OA
ATOM      5  H   UNL     1      37.595 -26.130 -16.427  0.00  0.00    +0.208 HD
ENDBRANCH   3   4
ENDBRANCH   1   3
BRANCH   1   6
ATOM      6  C   UNL     1      39.516 -25.861 -14.444  0.00  0.00    +0.077 C 
BRANCH   6   7
ATOM      7  O   UNL     1      39.799 -25.601 -15.813  0.00  0.00    -0.404 OA
ATOM      8  H   UNL     1      40.542 -26.155 -16.100  0.00  0.00    +0.208 HD
ENDBRANCH   6   7
ENDBRANCH   1   6
BRANCH   1   9
ATOM      9  C   UNL     1      37.605 -24.241 -14.465  0.00  0.00    +0.077 C 
BRANCH   9  10
ATOM     10  O   UNL     1      37.132 -24.157 -15.804  0.00  0.00    -0.404 OA
ATOM     11  H   UNL     1      37.888 -24.103 -16.411  0.00  0.00    +0.208 HD
ENDBRANCH   9  10
ENDBRANCH   1   9
TORSDOF 6
ENDMDL
MODEL 4
REMARK VINA RESULT:      -4.4      1.442      2.442
REMARK  Name = 4468930
REMARK  6 active torsions:
REMARK  status: ('A' for Active; 'I' for Inactive)
REMARK    1  A    between atoms: N_1  and  C_3
REMARK    2  A    between atoms: N_1  and  C_6
REMARK    3  A    between atoms: N_1  and  C_9
REMARK    4  A    between atoms: C_3  and  O_4
REMARK    5  A    between atoms: C_6  and  O_7
REMARK    6  A    between atoms: C_9  and  O_10
REMARK                            x       y       z     vdW  Elec       q    Type
REMARK                         _______ _______ _______ _____ _____    ______ ____
ROOT
ATOM      1  N   UNL     1      38.210 -25.648 -14.093  0.00  0.00    +0.441 N 
ATOM      2  C   UNL     1      37.702 -24.376 -14.759  0.00  0.00    -0.085 C 
ENDROOT
BRANCH   1   3
ATOM      3  C   UNL     1      37.455 -26.863 -14.658  0.00  0.00    +0.077 C 
BRANCH   3   4
ATOM      4  O   UNL     1      37.264 -26.916 -16.066  0.00  0.00    -0.404 OA
ATOM      5  H   UNL     1      36.701 -27.675 -16.288  0.00  0.00    +0.208 HD
ENDBRANCH   3   4
ENDBRANCH   1   3
BRANCH   1   6
ATOM      6  C   UNL     1      37.950 -25.567 -12.578  0.00  0.00    +0.077 C 
BRANCH   6   7
ATOM      7  O   UNL     1      36.913 -26.397 -12.068  0.00  0.00    -0.404 OA
ATOM      8  H   UNL     1      36.470 -25.944 -11.334  0.00  0.00    +0.208 HD
ENDBRANCH   6   7
ENDBRANCH   1   6
BRANCH   1   9
ATOM      9  C   UNL     1      39.717 -25.802 -14.340  0.00  0.00    +0.077 C 
BRANCH   9  10
ATOM     10  O   UNL     1      40.134 -25.883 -15.697  0.00  0.00    -0.404 OA
ATOM     11  H   UNL     1      40.309 -24.990 -16.036  0.00  0.00    +0.208 HD
ENDBRANCH   9  10
ENDBRANCH   1   9
TORSDOF 6
ENDMDL
MODEL 5
REMARK VINA RESULT:      -4.3      1.403      2.632
REMARK  Name = 4468930
REMARK  6 active torsions:
REMARK  status: ('A' for Active; 'I' for Inactive)
REMARK    1  A    between atoms: N_1  and  C_3
REMARK    2  A    between atoms: N_1  and  C_6
REMARK    3  A    between atoms: N_1  and  C_9
REMARK    4  A    between atoms: C_3  and  O_4
REMARK    5  A    between atoms: C_6  and  O_7
REMARK    6  A    between atoms: C_9  and  O_10
REMARK                            x       y       z     vdW  Elec       q    Type
REMARK                         _______ _______ _______ _____ _____    ______ ____
ROOT
ATOM      1  N   UNL     1      38.360 -25.547 -14.127  0.00  0.00    +0.441 N 
ATOM      2  C   UNL     1      37.621 -26.745 -14.704  0.00  0.00    -0.085 C 
ENDROOT
BRANCH   1   3
ATOM      3  C   UNL     1      37.873 -24.260 -14.812  0.00  0.00    +0.077 C 
BRANCH   3   4
ATOM      4  O   UNL     1      38.759 -23.633 -15.731  0.00  0.00    -0.404 OA
ATOM      5  H   UNL     1      39.652 -23.605 -15.351  0.00  0.00    +0.208 HD
ENDBRANCH   3   4
ENDBRANCH   1   3
BRANCH   1   6
ATOM      6  C   UNL     1      39.869 -25.705 -14.390  0.00  0.00    +0.077 C 
BRANCH   6   7
ATOM      7  O   UNL     1      40.255 -25.944 -15.738  0.00  0.00    -0.404 OA
ATOM      8  H   UNL     1      39.542 -25.663 -16.333  0.00  0.00    +0.208 HD
ENDBRANCH   6   7
ENDBRANCH   1   6
BRANCH   1   9
ATOM      9  C   UNL     1      38.118 -25.462 -12.613  0.00  0.00    +0.077 C 
BRANCH   9  10
ATOM     10  O   UNL     1      37.116 -26.319 -12.081  0.00  0.00    -0.404 OA
ATOM     11  H   UNL     1      36.239 -25.977 -12.318  0.00  0.00    +0.208 HD
ENDBRANCH   9  10
ENDBRANCH   1   9
TORSDOF 6
ENDMDL
MODEL 6
REMARK VINA RESULT:      -4.3      3.662      4.474
REMARK  Name = 4468930
REMARK  6 active torsions:
REMARK  status: ('A' for Active; 'I' for Inactive)
REMARK    1  A    between atoms: N_1  and  C_3
REMARK    2  A    between atoms: N_1  and  C_6
REMARK    3  A    between atoms: N_1  and  C_9
REMARK    4  A    between atoms: C_3  and  O_4
REMARK    5  A    between atoms: C_6  and  O_7
REMARK    6  A    between atoms: C_9  and  O_10
REMARK                            x       y       z     vdW  Elec       q    Type
REMARK                         _______ _______ _______ _____ _____    ______ ____
ROOT
ATOM      1  N   UNL     1      36.640 -24.130 -12.943  0.00  0.00    +0.441 N 
ATOM      2  C   UNL     1      37.092 -23.358 -14.175  0.00  0.00    -0.085 C 
ENDROOT
BRANCH   1   3
ATOM      3  C   UNL     1      35.107 -24.244 -12.939  0.00  0.00    +0.077 C 
BRANCH   3   4
ATOM      4  O   UNL     1      34.507 -24.955 -11.863  0.00  0.00    -0.404 OA
ATOM      5  H   UNL     1      35.189 -25.202 -11.218  0.00  0.00    +0.208 HD
ENDBRANCH   3   4
ENDBRANCH   1   3
BRANCH   1   6
ATOM      6  C   UNL     1      37.081 -23.373 -11.678  0.00  0.00    +0.077 C 
BRANCH   6   7
ATOM      7  O   UNL     1      36.698 -23.943 -10.432  0.00  0.00    -0.404 OA
ATOM      8  H   UNL     1      35.941 -24.534 -10.567  0.00  0.00    +0.208 HD
ENDBRANCH   6   7
ENDBRANCH   1   6
BRANCH   1   9
ATOM      9  C   UNL     1      37.272 -25.529 -12.941  0.00  0.00    +0.077 C 
BRANCH   9  10
ATOM     10  O   UNL     1      36.818 -26.431 -11.940  0.00  0.00    -0.404 OA
ATOM     11  H   UNL     1      36.315 -25.942 -11.269  0.00  0.00    +0.208 HD
ENDBRANCH   9  10
ENDBRANCH   1   9
TORSDOF 6
ENDMDL
MODEL 7
REMARK VINA RESULT:      -4.2      1.741      2.710
REMARK  Name = 4468930
REMARK  6 active torsions:
REMARK  status: ('A' for Active; 'I' for Inactive)
REMARK    1  A    between atoms: N_1  and  C_3
REMARK    2  A    between atoms: N_1  and  C_6
REMARK    3  A    between atoms: N_1  and  C_9
REMARK    4  A    between atoms: C_3  and  O_4
REMARK    5  A    between atoms: C_6  and  O_7
REMARK    6  A    between atoms: C_9  and  O_10
REMARK                            x       y       z     vdW  Elec       q    Type
REMARK                         _______ _______ _______ _____ _____    ______ ____
ROOT
ATOM      1  N   UNL     1      37.993 -25.598 -14.149  0.00  0.00    +0.441 N 
ATOM      2  C   UNL     1      39.440 -25.528 -14.616  0.00  0.00    -0.085 C 
ENDROOT
BRANCH   1   3
ATOM      3  C   UNL     1      37.276 -24.281 -14.487  0.00  0.00    +0.077 C 
BRANCH   3   4
ATOM      4  O   UNL     1      36.907 -24.068 -15.844  0.00  0.00    -0.404 OA
ATOM      5  H   UNL     1      36.114 -23.509 -15.879  0.00  0.00    +0.208 HD
ENDBRANCH   3   4
ENDBRANCH   1   3
BRANCH   1   6
ATOM      6  C   UNL     1      37.960 -25.800 -12.623  0.00  0.00    +0.077 C 
BRANCH   6   7
ATOM      7  O   UNL     1      36.823 -26.473 -12.097  0.00  0.00    -0.404 OA
ATOM      8  H   UNL     1      37.111 -27.139 -11.454  0.00  0.00    +0.208 HD
ENDBRANCH   6   7
ENDBRANCH   1   6
BRANCH   1   9
ATOM      9  C   UNL     1      37.281 -26.776 -14.829  0.00  0.00    +0.077 C 
BRANCH   9  10
ATOM     10  O   UNL     1      35.870 -26.667 -14.975  0.00  0.00    -0.404 OA
ATOM     11  H   UNL     1      35.547 -25.921 -14.445  0.00  0.00    +0.208 HD
ENDBRANCH   9  10
ENDBRANCH   1   9
TORSDOF 6
ENDMDL
MODEL 8
REMARK VINA RESULT:      -4.2      3.703      4.421
REMARK  Name = 4468930
REMARK  6 active torsions:
REMARK  status: ('A' for Active; 'I' for Inactive)
REMARK    1  A    between atoms: N_1  and  C_3
REMARK    2  A    between atoms: N_1  and  C_6
REMARK    3  A    between atoms: N_1  and  C_9
REMARK    4  A    between atoms: C_3  and  O_4
REMARK    5  A    between atoms: C_6  and  O_7
REMARK    6  A    between atoms: C_9  and  O_10
REMARK                            x       y       z     vdW  Elec       q    Type
REMARK                         _______ _______ _______ _____ _____    ______ ____
ROOT
ATOM      1  N   UNL     1      36.506 -24.154 -12.327  0.00  0.00    +0.441 N 
ATOM      2  C   UNL     1      35.588 -23.899 -13.515  0.00  0.00    -0.085 C 
ENDROOT
BRANCH   1   3
ATOM      3  C   UNL     1      37.377 -22.913 -12.073  0.00  0.00    +0.077 C 
BRANCH   3   4
ATOM      4  O   UNL     1      38.691 -23.128 -11.572  0.00  0.00    -0.404 OA
ATOM      5  H   UNL     1      38.668 -23.819 -10.892  0.00  0.00    +0.208 HD
ENDBRANCH   3   4
ENDBRANCH   1   3
BRANCH   1   6
ATOM      6  C   UNL     1      37.427 -25.346 -12.643  0.00  0.00    +0.077 C 
BRANCH   6   7
ATOM      7  O   UNL     1      36.825 -26.634 -12.623  0.00  0.00    -0.404 OA
ATOM      8  H   UNL     1      36.040 -26.633 -13.193  0.00  0.00    +0.208 HD
ENDBRANCH   6   7
ENDBRANCH   1   6
BRANCH   1   9
ATOM      9  C   UNL     1      35.671 -24.477 -11.080  0.00  0.00    +0.077 C 
BRANCH   9  10
ATOM     10  O   UNL     1      36.241 -24.125  -9.826  0.00  0.00    -0.404 OA
ATOM     11  H   UNL     1      37.129 -23.759  -9.965  0.00  0.00    +0.208 HD
ENDBRANCH   9  10
ENDBRANCH   1   9
TORSDOF 6
ENDMDL
MODEL 9
REMARK VINA RESULT:      -4.1      2.067      3.251
REMARK  Name = 4468930
REMARK  6 active torsions:
REMARK  status: ('A' for Active; 'I' for Inactive)
REMARK    1  A    between atoms: N_1  and  C_3
REMARK    2  A    between atoms: N_1  and  C_6
REMARK    3  A    between atoms: N_1  and  C_9
REMARK    4  A    between atoms: C_3  and  O_4
REMARK    5  A    between atoms: C_6  and  O_7
REMARK    6  A    between atoms: C_9  and  O_10
REMARK                            x       y       z     vdW  Elec       q    Type
REMARK                         _______ _______ _______ _____ _____    ______ ____
ROOT
ATOM      1  N   UNL     1      37.249 -25.054 -13.985  0.00  0.00    +0.441 N 
ATOM      2  C   UNL     1      37.297 -23.560 -14.271  0.00  0.00    -0.085 C 
ENDROOT
BRANCH   1   3
ATOM      3  C   UNL     1      36.569 -25.298 -12.628  0.00  0.00    +0.077 C 
BRANCH   3   4
ATOM      4  O   UNL     1      36.853 -26.525 -11.965  0.00  0.00    -0.404 OA
ATOM      5  H   UNL     1      36.858 -27.248 -12.612  0.00  0.00    +0.208 HD
ENDBRANCH   3   4
ENDBRANCH   1   3
BRANCH   1   6
ATOM      6  C   UNL     1      38.685 -25.607 -13.923  0.00  0.00    +0.077 C 
BRANCH   6   7
ATOM      7  O   UNL     1      38.948 -26.773 -14.693  0.00  0.00    -0.404 OA
ATOM      8  H   UNL     1      38.665 -26.627 -15.609  0.00  0.00    +0.208 HD
ENDBRANCH   6   7
ENDBRANCH   1   6
BRANCH   1   9
ATOM      9  C   UNL     1      36.478 -25.776 -15.098  0.00  0.00    +0.077 C 
BRANCH   9  10
ATOM     10  O   UNL     1      36.075 -27.113 -14.830  0.00  0.00    -0.404 OA
ATOM     11  H   UNL     1      36.408 -27.382 -13.958  0.00  0.00    +0.208 HD
ENDBRANCH   9  10
ENDBRANCH   1   9
TORSDOF 6
ENDMDL
