MODEL 1
REMARK VINA RESULT:      -5.0      0.000      0.000
REMARK  Name = 6137
REMARK  6 active torsions:
REMARK  status: ('A' for Active; 'I' for Inactive)
REMARK    1  A    between atoms: CA_1  and  N_2
REMARK    2  A    between atoms: CA_1  and  C_7
REMARK    3  A    between atoms: CA_1  and  CB_10
REMARK    4  A    between atoms: C_7  and  O_8
REMARK    5  A    between atoms: CB_10  and  CG_11
REMARK    6  A    between atoms: CG_11  and  SD_12
REMARK                            x       y       z     vdW  Elec       q    Type
REMARK                         _______ _______ _______ _____ _____    ______ ____
ROOT
ATOM      1  CA  MET A   1      38.936 -25.175 -14.434  0.00  0.00    +0.037 C 
ENDROOT
BRANCH   1   2
ATOM      2  N   MET A   1      37.876 -25.819 -15.217  0.00  0.00    +0.389 N 
ATOM      3  H1  MET A   1      37.715 -25.287 -16.073  0.00  0.00    -0.088 HD
ATOM      4  H2  MET A   1      37.016 -25.848 -14.667  0.00  0.00    -0.088 HD
ATOM      5  H3  MET A   1      38.158 -26.769 -15.456  0.00  0.00    -0.088 HD
ENDBRANCH   1   2
BRANCH   1   7
ATOM      6  OXT MET A   1      40.962 -26.438 -13.940  0.00  0.00    -0.253 OA
ATOM      7  C   MET A   1      40.222 -25.913 -14.763  0.00  0.00    +0.293 C 
BRANCH   7   8
ATOM      8  O   MET A   1      40.464 -25.956 -16.098  0.00  0.00    -0.482 OA
ATOM      9  H   MET A   1      40.078 -25.317 -16.666  0.00  0.00    +0.295 HD
ENDBRANCH   7   8
ENDBRANCH   1   7
BRANCH   1  10
ATOM     10  CB  MET A   1      38.599 -25.287 -12.940  0.00  0.00    +0.001 C 
BRANCH  10  11
ATOM     11  CG  MET A   1      37.237 -25.906 -12.614  0.00  0.00    +0.056 C 
BRANCH  11  12
ATOM     12  SD  MET A   1      35.980 -24.673 -12.166  0.00  0.00    -0.139 S 
ATOM     13  CE  MET A   1      37.090 -23.322 -11.712  0.00  0.00    +0.069 C 
ENDBRANCH  11  12
ENDBRANCH  10  11
ENDBRANCH   1  10
TORSDOF 6
ENDMDL
MODEL 2
REMARK VINA RESULT:      -4.9      1.164      1.265
REMARK  Name = 6137
REMARK  6 active torsions:
REMARK  status: ('A' for Active; 'I' for Inactive)
REMARK    1  A    between atoms: CA_1  and  N_2
REMARK    2  A    between atoms: CA_1  and  C_7
REMARK    3  A    between atoms: CA_1  and  CB_10
REMARK    4  A    between atoms: C_7  and  O_8
REMARK    5  A    between atoms: CB_10  and  CG_11
REMARK    6  A    between atoms: CG_11  and  SD_12
REMARK                            x       y       z     vdW  Elec       q    Type
REMARK                         _______ _______ _______ _____ _____    ______ ____
ROOT
ATOM      1  CA  MET A   1      38.629 -25.059 -14.508  0.00  0.00    +0.037 C 
ENDROOT
BRANCH   1   2
ATOM      2  N   MET A   1      37.865 -25.994 -15.340  0.00  0.00    +0.389 N 
ATOM      3  H1  MET A   1      38.358 -26.148 -16.220  0.00  0.00    -0.088 HD
ATOM      4  H2  MET A   1      36.942 -25.604 -15.531  0.00  0.00    -0.088 HD
ATOM      5  H3  MET A   1      37.764 -26.882 -14.849  0.00  0.00    -0.088 HD
ENDBRANCH   1   2
BRANCH   1   7
ATOM      6  OXT MET A   1      41.041 -24.800 -14.270  0.00  0.00    -0.253 OA
ATOM      7  C   MET A   1      40.084 -25.211 -14.914  0.00  0.00    +0.293 C 
BRANCH   7   8
ATOM      8  O   MET A   1      40.224 -25.888 -16.083  0.00  0.00    -0.482 OA
ATOM      9  H   MET A   1      39.768 -26.696 -16.214  0.00  0.00    +0.295 HD
ENDBRANCH   7   8
ENDBRANCH   1   7
BRANCH   1  10
ATOM     10  CB  MET A   1      38.426 -25.417 -13.028  0.00  0.00    +0.001 C 
BRANCH  10  11
ATOM     11  CG  MET A   1      38.279 -24.227 -12.075  0.00  0.00    +0.056 C 
BRANCH  11  12
ATOM     12  SD  MET A   1      36.730 -23.308 -12.314  0.00  0.00    -0.139 S 
ATOM     13  CE  MET A   1      35.573 -24.656 -11.986  0.00  0.00    +0.069 C 
ENDBRANCH  11  12
ENDBRANCH  10  11
ENDBRANCH   1  10
TORSDOF 6
ENDMDL
MODEL 3
REMARK VINA RESULT:      -4.7      2.568      2.900
REMARK  Name = 6137
REMARK  6 active torsions:
REMARK  status: ('A' for Active; 'I' for Inactive)
REMARK    1  A    between atoms: CA_1  and  N_2
REMARK    2  A    between atoms: CA_1  and  C_7
REMARK    3  A    between atoms: CA_1  and  CB_10
REMARK    4  A    between atoms: C_7  and  O_8
REMARK    5  A    between atoms: CB_10  and  CG_11
REMARK    6  A    between atoms: CG_11  and  SD_12
REMARK                            x       y       z     vdW  Elec       q    Type
REMARK                         _______ _______ _______ _____ _____    ______ ____
ROOT
ATOM      1  CA  MET A   1      37.977 -26.218 -14.507  0.00  0.00    +0.037 C 
ENDROOT
BRANCH   1   2
ATOM      2  N   MET A   1      38.510 -25.012 -15.148  0.00  0.00    +0.389 N 
ATOM      3  H1  MET A   1      39.072 -25.277 -15.957  0.00  0.00    -0.088 HD
ATOM      4  H2  MET A   1      39.091 -24.501 -14.482  0.00  0.00    -0.088 HD
ATOM      5  H3  MET A   1      37.739 -24.418 -15.450  0.00  0.00    -0.088 HD
ENDBRANCH   1   2
BRANCH   1   7
ATOM      6  OXT MET A   1      36.722 -27.378 -16.245  0.00  0.00    -0.253 OA
ATOM      7  C   MET A   1      36.737 -26.610 -15.291  0.00  0.00    +0.293 C 
BRANCH   7   8
ATOM      8  O   MET A   1      35.612 -26.030 -14.799  0.00  0.00    -0.482 OA
ATOM      9  H   MET A   1      35.581 -25.103 -14.668  0.00  0.00    +0.295 HD
ENDBRANCH   7   8
ENDBRANCH   1   7
BRANCH   1  10
ATOM     10  CB  MET A   1      37.631 -25.902 -13.044  0.00  0.00    +0.001 C 
BRANCH  10  11
ATOM     11  CG  MET A   1      38.264 -24.629 -12.476  0.00  0.00    +0.056 C 
BRANCH  11  12
ATOM     12  SD  MET A   1      37.037 -23.405 -11.927  0.00  0.00    -0.139 S 
ATOM     13  CE  MET A   1      35.678 -24.540 -11.571  0.00  0.00    +0.069 C 
ENDBRANCH  11  12
ENDBRANCH  10  11
ENDBRANCH   1  10
TORSDOF 6
ENDMDL
MODEL 4
REMARK VINA RESULT:      -4.6      3.861      4.865
REMARK  Name = 6137
REMARK  6 active torsions:
REMARK  status: ('A' for Active; 'I' for Inactive)
REMARK    1  A    between atoms: CA_1  and  N_2
REMARK    2  A    between atoms: CA_1  and  C_7
REMARK    3  A    between atoms: CA_1  and  CB_10
REMARK    4  A    between atoms: C_7  and  O_8
REMARK    5  A    between atoms: CB_10  and  CG_11
REMARK    6  A    between atoms: CG_11  and  SD_12
REMARK                            x       y       z     vdW  Elec       q    Type
REMARK                         _______ _______ _______ _____ _____    ______ ____
ROOT
ATOM      1  CA  MET A   1      36.606 -23.255 -11.855  0.00  0.00    +0.037 C 
ENDROOT
BRANCH   1   2
ATOM      2  N   MET A   1      38.032 -23.526 -11.641  0.00  0.00    +0.389 N 
ATOM      3  H1  MET A   1      38.579 -23.056 -12.363  0.00  0.00    -0.088 HD
ATOM      4  H2  MET A   1      38.198 -24.531 -11.689  0.00  0.00    -0.088 HD
ATOM      5  H3  MET A   1      38.311 -23.178 -10.725  0.00  0.00    -0.088 HD
ENDBRANCH   1   2
BRANCH   1   7
ATOM      6  OXT MET A   1      35.977 -24.293  -9.741  0.00  0.00    -0.253 OA
ATOM      7  C   MET A   1      35.847 -24.215 -10.956  0.00  0.00    +0.293 C 
BRANCH   7   8
ATOM      8  O   MET A   1      34.966 -24.983 -11.649  0.00  0.00    -0.482 OA
ATOM      9  H   MET A   1      35.276 -25.701 -12.165  0.00  0.00    +0.295 HD
ENDBRANCH   7   8
ENDBRANCH   1   7
BRANCH   1  10
ATOM     10  CB  MET A   1      36.263 -23.491 -13.333  0.00  0.00    +0.001 C 
BRANCH  10  11
ATOM     11  CG  MET A   1      37.451 -23.815 -14.243  0.00  0.00    +0.056 C 
BRANCH  11  12
ATOM     12  SD  MET A   1      37.513 -25.561 -14.742  0.00  0.00    -0.139 S 
ATOM     13  CE  MET A   1      39.282 -25.839 -14.497  0.00  0.00    +0.069 C 
ENDBRANCH  11  12
ENDBRANCH  10  11
ENDBRANCH   1  10
TORSDOF 6
ENDMDL
MODEL 5
REMARK VINA RESULT:      -4.6      2.160      2.269
REMARK  Name = 6137
REMARK  6 active torsions:
REMARK  status: ('A' for Active; 'I' for Inactive)
REMARK    1  A    between atoms: CA_1  and  N_2
REMARK    2  A    between atoms: CA_1  and  C_7
REMARK    3  A    between atoms: CA_1  and  CB_10
REMARK    4  A    between atoms: C_7  and  O_8
REMARK    5  A    between atoms: CB_10  and  CG_11
REMARK    6  A    between atoms: CG_11  and  SD_12
REMARK                            x       y       z     vdW  Elec       q    Type
REMARK                         _______ _______ _______ _____ _____    ______ ____
ROOT
ATOM      1  CA  MET A   1      38.767 -25.884 -14.444  0.00  0.00    +0.037 C 
ENDROOT
BRANCH   1   2
ATOM      2  N   MET A   1      38.719 -25.978 -12.981  0.00  0.00    +0.389 N 
ATOM      3  H1  MET A   1      38.141 -26.773 -12.710  0.00  0.00    -0.088 HD
ATOM      4  H2  MET A   1      38.318 -25.120 -12.599  0.00  0.00    -0.088 HD
ATOM      5  H3  MET A   1      39.662 -26.104 -12.616  0.00  0.00    -0.088 HD
ENDBRANCH   1   2
BRANCH   1   7
ATOM      6  OXT MET A   1      41.117 -26.419 -14.074  0.00  0.00    -0.253 OA
ATOM      7  C   MET A   1      40.218 -26.094 -14.840  0.00  0.00    +0.293 C 
BRANCH   7   8
ATOM      8  O   MET A   1      40.421 -25.906 -16.170  0.00  0.00    -0.482 OA
ATOM      9  H   MET A   1      39.692 -25.760 -16.740  0.00  0.00    +0.295 HD
ENDBRANCH   7   8
ENDBRANCH   1   7
BRANCH   1  10
ATOM     10  CB  MET A   1      38.269 -24.499 -14.879  0.00  0.00    +0.001 C 
BRANCH  10  11
ATOM     11  CG  MET A   1      37.008 -23.998 -14.169  0.00  0.00    +0.056 C 
BRANCH  11  12
ATOM     12  SD  MET A   1      35.471 -24.595 -14.935  0.00  0.00    -0.139 S 
ATOM     13  CE  MET A   1      35.044 -23.103 -15.859  0.00  0.00    +0.069 C 
ENDBRANCH  11  12
ENDBRANCH  10  11
ENDBRANCH   1  10
TORSDOF 6
ENDMDL
MODEL 6
REMARK VINA RESULT:      -4.5     12.046     12.686
REMARK  Name = 6137
REMARK  6 active torsions:
REMARK  status: ('A' for Active; 'I' for Inactive)
REMARK    1  A    between atoms: CA_1  and  N_2
REMARK    2  A    between atoms: CA_1  and  C_7
REMARK    3  A    between atoms: CA_1  and  CB_10
REMARK    4  A    between atoms: C_7  and  O_8
REMARK    5  A    between atoms: CB_10  and  CG_11
REMARK    6  A    between atoms: CG_11  and  SD_12
REMARK                            x       y       z     vdW  Elec       q    Type
REMARK                         _______ _______ _______ _____ _____    ______ ____
ROOT
ATOM      1  CA  MET A   1      34.697 -18.143 -23.757  0.00  0.00    +0.037 C 
ENDROOT
BRANCH   1   2
ATOM      2  N   MET A   1      34.667 -19.276 -24.688  0.00  0.00    +0.389 N 
ATOM      3  H1  MET A   1      33.725 -19.666 -24.718  0.00  0.00    -0.088 HD
ATOM      4  H2  MET A   1      35.322 -19.992 -24.373  0.00  0.00    -0.088 HD
ATOM      5  H3  MET A   1      34.933 -18.958 -25.619  0.00  0.00    -0.088 HD
ENDBRANCH   1   2
BRANCH   1   7
ATOM      6  OXT MET A   1      34.753 -16.796 -25.788  0.00  0.00    -0.253 OA
ATOM      7  C   MET A   1      34.989 -16.908 -24.592  0.00  0.00    +0.293 C 
BRANCH   7   8
ATOM      8  O   MET A   1      35.528 -15.903 -23.854  0.00  0.00    -0.482 OA
ATOM      9  H   MET A   1      36.428 -15.942 -23.596  0.00  0.00    +0.295 HD
ENDBRANCH   7   8
ENDBRANCH   1   7
BRANCH   1  10
ATOM     10  CB  MET A   1      35.796 -18.377 -22.711  0.00  0.00    +0.001 C 
BRANCH  10  11
ATOM     11  CG  MET A   1      35.322 -18.433 -21.256  0.00  0.00    +0.056 C 
BRANCH  11  12
ATOM     12  SD  MET A   1      34.890 -20.111 -20.708  0.00  0.00    -0.139 S 
ATOM     13  CE  MET A   1      33.092 -19.932 -20.713  0.00  0.00    +0.069 C 
ENDBRANCH  11  12
ENDBRANCH  10  11
ENDBRANCH   1  10
TORSDOF 6
ENDMDL
MODEL 7
REMARK VINA RESULT:      -4.4      9.278     10.012
REMARK  Name = 6137
REMARK  6 active torsions:
REMARK  status: ('A' for Active; 'I' for Inactive)
REMARK    1  A    between atoms: CA_1  and  N_2
REMARK    2  A    between atoms: CA_1  and  C_7
REMARK    3  A    between atoms: CA_1  and  CB_10
REMARK    4  A    between atoms: C_7  and  O_8
REMARK    5  A    between atoms: CB_10  and  CG_11
REMARK    6  A    between atoms: CG_11  and  SD_12
REMARK                            x       y       z     vdW  Elec       q    Type
REMARK                         _______ _______ _______ _____ _____    ______ ____
ROOT
ATOM      1  CA  MET A   1      28.757 -23.451 -15.419  0.00  0.00    +0.037 C 
ENDROOT
BRANCH   1   2
ATOM      2  N   MET A   1      28.950 -24.904 -15.382  0.00  0.00    +0.389 N 
ATOM      3  H1  MET A   1      29.739 -25.158 -15.977  0.00  0.00    -0.088 HD
ATOM      4  H2  MET A   1      28.106 -25.369 -15.720  0.00  0.00    -0.088 HD
ATOM      5  H3  MET A   1      29.139 -25.199 -14.424  0.00  0.00    -0.088 HD
ENDBRANCH   1   2
BRANCH   1   7
ATOM      6  OXT MET A   1      27.761 -23.964 -17.584  0.00  0.00    -0.253 OA
ATOM      7  C   MET A   1      28.152 -23.132 -16.774  0.00  0.00    +0.293 C 
BRANCH   7   8
ATOM      8  O   MET A   1      28.060 -21.795 -16.996  0.00  0.00    -0.482 OA
ATOM      9  H   MET A   1      27.266 -21.340 -16.796  0.00  0.00    +0.295 HD
ENDBRANCH   7   8
ENDBRANCH   1   7
BRANCH   1  10
ATOM     10  CB  MET A   1      30.114 -22.756 -15.240  0.00  0.00    +0.001 C 
BRANCH  10  11
ATOM     11  CG  MET A   1      31.229 -23.232 -16.176  0.00  0.00    +0.056 C 
BRANCH  11  12
ATOM     12  SD  MET A   1      32.822 -23.459 -15.333  0.00  0.00    -0.139 S 
ATOM     13  CE  MET A   1      32.248 -24.486 -13.962  0.00  0.00    +0.069 C 
ENDBRANCH  11  12
ENDBRANCH  10  11
ENDBRANCH   1  10
TORSDOF 6
ENDMDL
MODEL 8
REMARK VINA RESULT:      -4.4      4.134      4.832
REMARK  Name = 6137
REMARK  6 active torsions:
REMARK  status: ('A' for Active; 'I' for Inactive)
REMARK    1  A    between atoms: CA_1  and  N_2
REMARK    2  A    between atoms: CA_1  and  C_7
REMARK    3  A    between atoms: CA_1  and  CB_10
REMARK    4  A    between atoms: C_7  and  O_8
REMARK    5  A    between atoms: CB_10  and  CG_11
REMARK    6  A    between atoms: CG_11  and  SD_12
REMARK                            x       y       z     vdW  Elec       q    Type
REMARK                         _______ _______ _______ _____ _____    ______ ____
ROOT
ATOM      1  CA  MET A   1      36.491 -23.752 -12.323  0.00  0.00    +0.037 C 
ENDROOT
BRANCH   1   2
ATOM      2  N   MET A   1      37.205 -23.104 -11.218  0.00  0.00    +0.389 N 
ATOM      3  H1  MET A   1      38.206 -23.277 -11.312  0.00  0.00    -0.088 HD
ATOM      4  H2  MET A   1      36.876 -23.485 -10.330  0.00  0.00    -0.088 HD
ATOM      5  H3  MET A   1      37.031 -22.100 -11.242  0.00  0.00    -0.088 HD
ENDBRANCH   1   2
BRANCH   1   7
ATOM      6  OXT MET A   1      35.390 -25.023 -10.559  0.00  0.00    -0.253 OA
ATOM      7  C   MET A   1      35.375 -24.566 -11.695  0.00  0.00    +0.293 C 
BRANCH   7   8
ATOM      8  O   MET A   1      34.316 -24.721 -12.532  0.00  0.00    -0.482 OA
ATOM      9  H   MET A   1      33.911 -23.970 -12.919  0.00  0.00    +0.295 HD
ENDBRANCH   7   8
ENDBRANCH   1   7
BRANCH   1  10
ATOM     10  CB  MET A   1      37.466 -24.651 -13.097  0.00  0.00    +0.001 C 
BRANCH  10  11
ATOM     11  CG  MET A   1      37.762 -24.220 -14.536  0.00  0.00    +0.056 C 
BRANCH  11  12
ATOM     12  SD  MET A   1      36.368 -23.363 -15.326  0.00  0.00    -0.139 S 
ATOM     13  CE  MET A   1      37.312 -22.149 -16.275  0.00  0.00    +0.069 C 
ENDBRANCH  11  12
ENDBRANCH  10  11
ENDBRANCH   1  10
TORSDOF 6
ENDMDL
MODEL 9
REMARK VINA RESULT:      -4.4      3.660      4.683
REMARK  Name = 6137
REMARK  6 active torsions:
REMARK  status: ('A' for Active; 'I' for Inactive)
REMARK    1  A    between atoms: CA_1  and  N_2
REMARK    2  A    between atoms: CA_1  and  C_7
REMARK    3  A    between atoms: CA_1  and  CB_10
REMARK    4  A    between atoms: C_7  and  O_8
REMARK    5  A    between atoms: CB_10  and  CG_11
REMARK    6  A    between atoms: CG_11  and  SD_12
REMARK                            x       y       z     vdW  Elec       q    Type
REMARK                         _______ _______ _______ _____ _____    ______ ____
ROOT
ATOM      1  CA  MET A   1      35.755 -24.405 -12.805  0.00  0.00    +0.037 C 
ENDROOT
BRANCH   1   2
ATOM      2  N   MET A   1      34.531 -23.603 -12.894  0.00  0.00    +0.389 N 
ATOM      3  H1  MET A   1      33.723 -24.190 -12.688  0.00  0.00    -0.088 HD
ATOM      4  H2  MET A   1      34.442 -23.222 -13.837  0.00  0.00    -0.088 HD
ATOM      5  H3  MET A   1      34.575 -22.838 -12.222  0.00  0.00    -0.088 HD
ENDBRANCH   1   2
BRANCH   1   7
ATOM      6  OXT MET A   1      35.268 -25.087 -10.515  0.00  0.00    -0.253 OA
ATOM      7  C   MET A   1      36.041 -24.589 -11.325  0.00  0.00    +0.293 C 
BRANCH   7   8
ATOM      8  O   MET A   1      37.284 -24.160 -10.983  0.00  0.00    -0.482 OA
ATOM      9  H   MET A   1      37.682 -24.461 -10.190  0.00  0.00    +0.295 HD
ENDBRANCH   7   8
ENDBRANCH   1   7
BRANCH   1  10
ATOM     10  CB  MET A   1      36.902 -23.658 -13.502  0.00  0.00    +0.001 C 
BRANCH  10  11
ATOM     11  CG  MET A   1      37.443 -24.319 -14.774  0.00  0.00    +0.056 C 
BRANCH  11  12
ATOM     12  SD  MET A   1      38.209 -25.938 -14.467  0.00  0.00    -0.139 S 
ATOM     13  CE  MET A   1      39.939 -25.439 -14.618  0.00  0.00    +0.069 C 
ENDBRANCH  11  12
ENDBRANCH  10  11
ENDBRANCH   1  10
TORSDOF 6
ENDMDL
