MODEL 1
REMARK VINA RESULT:     -10.5      0.000      0.000
REMARK  Name = 5326886
REMARK  8 active torsions:
REMARK  status: ('A' for Active; 'I' for Inactive)
REMARK    1  A    between atoms: N_3  and  C_20
REMARK    2  A    between atoms: C_6  and  C_11
REMARK    3  A    between atoms: C_19  and  O_25
REMARK    4  A    between atoms: O_25  and  C_26
REMARK    5  A    between atoms: C_26  and  C_27
REMARK    6  A    between atoms: C_27  and  C_28
REMARK    7  A    between atoms: C_28  and  C_30
REMARK    8  A    between atoms: C_30  and  O_31
REMARK                            x       y       z     vdW  Elec       q    Type
REMARK                         _______ _______ _______ _____ _____    ______ ____
ROOT
ATOM      1  O   UNL     1      33.958 -15.284 -24.447  0.00  0.00    -0.252 OA
ATOM      2  O   UNL     1      33.470 -12.730 -25.434  0.00  0.00    -0.270 OA
ATOM      3  N   UNL     1      34.446 -15.294 -22.146  0.00  0.00    -0.268 N 
ATOM      4  N   UNL     1      33.995 -13.299 -23.237  0.00  0.00    -0.236 N 
ATOM      5  C   UNL     1      34.118 -14.698 -23.380  0.00  0.00    +0.310 C 
ATOM      6  C   UNL     1      33.681 -12.413 -24.267  0.00  0.00    +0.253 C 
ATOM      7  H   UNL     1      34.541 -14.677 -21.384  0.00  0.00    +0.156 HD
ATOM      8  H   UNL     1      34.142 -12.920 -22.341  0.00  0.00    +0.159 HD
ENDROOT
BRANCH   6  11
ATOM      9 CL   UNL     1      35.659 -10.405 -25.530  0.00  0.00    -0.082 Cl
ATOM     10 CL   UNL     1      33.117  -6.685 -22.589  0.00  0.00    -0.082 Cl
ATOM     11  C   UNL     1      33.571 -10.985 -23.873  0.00  0.00    +0.064 C 
ATOM     12  C   UNL     1      34.421 -10.008 -24.393  0.00  0.00    +0.063 C 
ATOM     13  C   UNL     1      32.580 -10.632 -22.957  0.00  0.00    +0.006 C 
ATOM     14  C   UNL     1      34.280  -8.678 -23.996  0.00  0.00    +0.023 C 
ATOM     15  C   UNL     1      32.440  -9.301 -22.560  0.00  0.00    +0.012 C 
ATOM     16  C   UNL     1      33.290  -8.325 -23.079  0.00  0.00    +0.059 C 
ENDBRANCH   6  11
BRANCH   3  20
ATOM     17  C   UNL     1      33.878 -18.772 -21.018  0.00  0.00    +0.009 C 
ATOM     18  C   UNL     1      33.648 -17.423 -21.291  0.00  0.00    -0.009 C 
ATOM     19  C   UNL     1      35.114 -19.343 -21.319  0.00  0.00    +0.134 C 
ATOM     20  C   UNL     1      34.654 -16.646 -21.865  0.00  0.00    +0.047 C 
ATOM     21  C   UNL     1      36.121 -18.566 -21.892  0.00  0.00    +0.038 C 
ATOM     22  C   UNL     1      35.891 -17.218 -22.164  0.00  0.00    +0.017 C 
ATOM     23  C   UNL     1      32.804 -19.612 -20.403  0.00  0.00    +0.034 C 
ATOM     24  C   UNL     1      32.320 -16.812 -20.967  0.00  0.00    +0.032 C 
BRANCH  19  25
ATOM     25  O   UNL     1      35.358 -20.667 -21.059  0.00  0.00    -0.476 OA
BRANCH  25  26
ATOM     26  C   UNL     1      36.336 -20.955 -20.069  0.00  0.00    +0.206 C 
BRANCH  26  27
ATOM     27  C   UNL     1      35.706 -21.747 -18.930  0.00  0.00    +0.059 C 
BRANCH  27  28
ATOM     28  C   UNL     1      34.444 -22.490 -19.369  0.00  0.00    +0.113 C 
BRANCH  28  30
ATOM     29  O   UNL     1      32.389 -22.523 -18.063  0.00  0.00    -0.250 OA
ATOM     30  C   UNL     1      33.562 -22.847 -18.195  0.00  0.00    +0.314 C 
BRANCH  30  31
ATOM     31  O   UNL     1      34.235 -23.585 -17.274  0.00  0.00    -0.480 OA
ATOM     32  H   UNL     1      33.763 -24.094 -16.645  0.00  0.00    +0.295 HD
ENDBRANCH  30  31
ENDBRANCH  28  30
ENDBRANCH  27  28
ENDBRANCH  26  27
ENDBRANCH  25  26
ENDBRANCH  19  25
ENDBRANCH   3  20
TORSDOF 8
ENDMDL
MODEL 2
REMARK VINA RESULT:     -10.4      2.457      3.441
REMARK  Name = 5326886
REMARK  8 active torsions:
REMARK  status: ('A' for Active; 'I' for Inactive)
REMARK    1  A    between atoms: N_3  and  C_20
REMARK    2  A    between atoms: C_6  and  C_11
REMARK    3  A    between atoms: C_19  and  O_25
REMARK    4  A    between atoms: O_25  and  C_26
REMARK    5  A    between atoms: C_26  and  C_27
REMARK    6  A    between atoms: C_27  and  C_28
REMARK    7  A    between atoms: C_28  and  C_30
REMARK    8  A    between atoms: C_30  and  O_31
REMARK                            x       y       z     vdW  Elec       q    Type
REMARK                         _______ _______ _______ _____ _____    ______ ____
ROOT
ATOM      1  O   UNL     1      31.867 -13.085 -21.287  0.00  0.00    -0.252 OA
ATOM      2  O   UNL     1      30.729 -10.560 -21.040  0.00  0.00    -0.270 OA
ATOM      3  N   UNL     1      33.527 -13.178 -22.951  0.00  0.00    -0.268 N 
ATOM      4  N   UNL     1      32.408 -11.193 -22.524  0.00  0.00    -0.236 N 
ATOM      5  C   UNL     1      32.539 -12.552 -22.166  0.00  0.00    +0.310 C 
ATOM      6  C   UNL     1      31.518 -10.293 -21.942  0.00  0.00    +0.253 C 
ATOM      7  H   UNL     1      33.972 -12.605 -23.617  0.00  0.00    +0.156 HD
ATOM      8  H   UNL     1      32.991 -10.856 -23.242  0.00  0.00    +0.159 HD
ENDROOT
BRANCH   6  11
ATOM      9 CL   UNL     1      32.701  -8.113 -20.100  0.00  0.00    -0.082 Cl
ATOM     10 CL   UNL     1      31.718  -4.728 -24.165  0.00  0.00    -0.082 Cl
ATOM     11  C   UNL     1      31.582  -8.902 -22.459  0.00  0.00    +0.064 C 
ATOM     12  C   UNL     1      32.101  -7.854 -21.698  0.00  0.00    +0.063 C 
ATOM     13  C   UNL     1      31.106  -8.659 -23.748  0.00  0.00    +0.006 C 
ATOM     14  C   UNL     1      32.144  -6.563 -22.226  0.00  0.00    +0.023 C 
ATOM     15  C   UNL     1      31.149  -7.368 -24.275  0.00  0.00    +0.012 C 
ATOM     16  C   UNL     1      31.667  -6.321 -23.514  0.00  0.00    +0.059 C 
ENDBRANCH   6  11
BRANCH   3  20
ATOM     17  C   UNL     1      34.327 -16.643 -23.975  0.00  0.00    +0.009 C 
ATOM     18  C   UNL     1      33.894 -15.319 -24.041  0.00  0.00    -0.009 C 
ATOM     19  C   UNL     1      34.821 -17.156 -22.776  0.00  0.00    +0.134 C 
ATOM     20  C   UNL     1      33.955 -14.507 -22.908  0.00  0.00    +0.047 C 
ATOM     21  C   UNL     1      34.882 -16.345 -21.642  0.00  0.00    +0.038 C 
ATOM     22  C   UNL     1      34.449 -15.021 -21.709  0.00  0.00    +0.017 C 
ATOM     23  C   UNL     1      34.264 -17.520 -25.185  0.00  0.00    +0.034 C 
ATOM     24  C   UNL     1      33.363 -14.770 -25.330  0.00  0.00    +0.032 C 
BRANCH  19  25
ATOM     25  O   UNL     1      35.252 -18.454 -22.692  0.00  0.00    -0.476 OA
BRANCH  25  26
ATOM     26  C   UNL     1      35.563 -18.943 -21.395  0.00  0.00    +0.206 C 
BRANCH  26  27
ATOM     27  C   UNL     1      34.422 -19.810 -20.878  0.00  0.00    +0.059 C 
BRANCH  27  28
ATOM     28  C   UNL     1      34.914 -20.927 -19.956  0.00  0.00    +0.113 C 
BRANCH  28  30
ATOM     29  O   UNL     1      32.689 -21.398 -19.086  0.00  0.00    -0.250 OA
ATOM     30  C   UNL     1      33.778 -21.799 -19.472  0.00  0.00    +0.314 C 
BRANCH  30  31
ATOM     31  O   UNL     1      34.113 -23.116 -19.510  0.00  0.00    -0.480 OA
ATOM     32  H   UNL     1      34.693 -23.433 -20.174  0.00  0.00    +0.295 HD
ENDBRANCH  30  31
ENDBRANCH  28  30
ENDBRANCH  27  28
ENDBRANCH  26  27
ENDBRANCH  25  26
ENDBRANCH  19  25
ENDBRANCH   3  20
TORSDOF 8
ENDMDL
MODEL 3
REMARK VINA RESULT:     -10.3      1.063      1.389
REMARK  Name = 5326886
REMARK  8 active torsions:
REMARK  status: ('A' for Active; 'I' for Inactive)
REMARK    1  A    between atoms: N_3  and  C_20
REMARK    2  A    between atoms: C_6  and  C_11
REMARK    3  A    between atoms: C_19  and  O_25
REMARK    4  A    between atoms: O_25  and  C_26
REMARK    5  A    between atoms: C_26  and  C_27
REMARK    6  A    between atoms: C_27  and  C_28
REMARK    7  A    between atoms: C_28  and  C_30
REMARK    8  A    between atoms: C_30  and  O_31
REMARK                            x       y       z     vdW  Elec       q    Type
REMARK                         _______ _______ _______ _____ _____    ______ ____
ROOT
ATOM      1  O   UNL     1      33.897 -15.659 -24.467  0.00  0.00    -0.252 OA
ATOM      2  O   UNL     1      33.413 -13.138 -25.537  0.00  0.00    -0.270 OA
ATOM      3  N   UNL     1      34.622 -15.577 -22.231  0.00  0.00    -0.268 N 
ATOM      4  N   UNL     1      34.141 -13.620 -23.378  0.00  0.00    -0.236 N 
ATOM      5  C   UNL     1      34.192 -15.028 -23.456  0.00  0.00    +0.310 C 
ATOM      6  C   UNL     1      33.758 -12.773 -24.416  0.00  0.00    +0.253 C 
ATOM      7  H   UNL     1      34.822 -14.927 -21.517  0.00  0.00    +0.156 HD
ATOM      8  H   UNL     1      34.396 -13.204 -22.523  0.00  0.00    +0.159 HD
ENDROOT
BRANCH   6  11
ATOM      9 CL   UNL     1      31.630 -11.748 -22.424  0.00  0.00    -0.082 Cl
ATOM     10 CL   UNL     1      33.841  -6.904 -23.196  0.00  0.00    -0.082 Cl
ATOM     11  C   UNL     1      33.748 -11.324 -24.092  0.00  0.00    +0.064 C 
ATOM     12  C   UNL     1      32.824 -10.772 -23.202  0.00  0.00    +0.063 C 
ATOM     13  C   UNL     1      34.701 -10.508 -24.702  0.00  0.00    +0.006 C 
ATOM     14  C   UNL     1      32.854  -9.405 -22.925  0.00  0.00    +0.023 C 
ATOM     15  C   UNL     1      34.729  -9.141 -24.425  0.00  0.00    +0.012 C 
ATOM     16  C   UNL     1      33.806  -8.590 -23.537  0.00  0.00    +0.059 C 
ENDBRANCH   6  11
BRANCH   3  20
ATOM     17  C   UNL     1      33.978 -19.003 -20.992  0.00  0.00    +0.009 C 
ATOM     18  C   UNL     1      33.776 -17.662 -21.316  0.00  0.00    -0.009 C 
ATOM     19  C   UNL     1      35.210 -19.605 -21.252  0.00  0.00    +0.134 C 
ATOM     20  C   UNL     1      34.803 -16.921 -21.899  0.00  0.00    +0.047 C 
ATOM     21  C   UNL     1      36.239 -18.864 -21.835  0.00  0.00    +0.038 C 
ATOM     22  C   UNL     1      36.035 -17.523 -22.158  0.00  0.00    +0.017 C 
ATOM     23  C   UNL     1      32.882 -19.804 -20.366  0.00  0.00    +0.034 C 
ATOM     24  C   UNL     1      32.452 -17.018 -21.035  0.00  0.00    +0.032 C 
BRANCH  19  25
ATOM     25  O   UNL     1      35.428 -20.922 -20.942  0.00  0.00    -0.476 OA
BRANCH  25  26
ATOM     26  C   UNL     1      36.353 -21.189 -19.897  0.00  0.00    +0.206 C 
BRANCH  26  27
ATOM     27  C   UNL     1      35.634 -21.827 -18.715  0.00  0.00    +0.059 C 
BRANCH  27  28
ATOM     28  C   UNL     1      34.389 -22.604 -19.145  0.00  0.00    +0.113 C 
BRANCH  28  30
ATOM     29  O   UNL     1      32.293 -22.669 -17.909  0.00  0.00    -0.250 OA
ATOM     30  C   UNL     1      33.489 -22.919 -17.973  0.00  0.00    +0.314 C 
BRANCH  30  31
ATOM     31  O   UNL     1      34.175 -23.523 -16.968  0.00  0.00    -0.480 OA
ATOM     32  H   UNL     1      33.818 -24.279 -16.545  0.00  0.00    +0.295 HD
ENDBRANCH  30  31
ENDBRANCH  28  30
ENDBRANCH  27  28
ENDBRANCH  26  27
ENDBRANCH  25  26
ENDBRANCH  19  25
ENDBRANCH   3  20
TORSDOF 8
ENDMDL
MODEL 4
REMARK VINA RESULT:     -10.3      3.084      4.624
REMARK  Name = 5326886
REMARK  8 active torsions:
REMARK  status: ('A' for Active; 'I' for Inactive)
REMARK    1  A    between atoms: N_3  and  C_20
REMARK    2  A    between atoms: C_6  and  C_11
REMARK    3  A    between atoms: C_19  and  O_25
REMARK    4  A    between atoms: O_25  and  C_26
REMARK    5  A    between atoms: C_26  and  C_27
REMARK    6  A    between atoms: C_27  and  C_28
REMARK    7  A    between atoms: C_28  and  C_30
REMARK    8  A    between atoms: C_30  and  O_31
REMARK                            x       y       z     vdW  Elec       q    Type
REMARK                         _______ _______ _______ _____ _____    ______ ____
ROOT
ATOM      1  O   UNL     1      35.314 -16.764 -20.258  0.00  0.00    -0.252 OA
ATOM      2  O   UNL     1      34.810 -14.434 -21.691  0.00  0.00    -0.270 OA
ATOM      3  N   UNL     1      34.795 -18.711 -21.473  0.00  0.00    -0.268 N 
ATOM      4  N   UNL     1      34.477 -16.620 -22.422  0.00  0.00    -0.236 N 
ATOM      5  C   UNL     1      34.907 -17.320 -21.275  0.00  0.00    +0.310 C 
ATOM      6  C   UNL     1      34.457 -15.233 -22.554  0.00  0.00    +0.253 C 
ATOM      7  H   UNL     1      34.446 -18.992 -22.350  0.00  0.00    +0.156 HD
ATOM      8  H   UNL     1      34.167 -17.154 -23.189  0.00  0.00    +0.159 HD
ENDROOT
BRANCH   6  11
ATOM      9 CL   UNL     1      34.174 -17.248 -24.878  0.00  0.00    -0.082 Cl
ATOM     10 CL   UNL     1      32.579 -13.022 -27.801  0.00  0.00    -0.082 Cl
ATOM     11  C   UNL     1      33.995 -14.720 -23.869  0.00  0.00    +0.064 C 
ATOM     12  C   UNL     1      33.838 -15.557 -24.974  0.00  0.00    +0.063 C 
ATOM     13  C   UNL     1      33.714 -13.358 -23.980  0.00  0.00    +0.006 C 
ATOM     14  C   UNL     1      33.399 -15.032 -26.190  0.00  0.00    +0.023 C 
ATOM     15  C   UNL     1      33.275 -12.833 -25.196  0.00  0.00    +0.012 C 
ATOM     16  C   UNL     1      33.119 -13.670 -26.301  0.00  0.00    +0.059 C 
ENDBRANCH   6  11
BRANCH   3  20
ATOM     17  C   UNL     1      34.466 -21.581 -19.161  0.00  0.00    +0.009 C 
ATOM     18  C   UNL     1      34.123 -20.558 -20.045  0.00  0.00    -0.009 C 
ATOM     19  C   UNL     1      35.802 -21.788 -18.818  0.00  0.00    +0.134 C 
ATOM     20  C   UNL     1      35.116 -19.741 -20.586  0.00  0.00    +0.047 C 
ATOM     21  C   UNL     1      36.795 -20.970 -19.358  0.00  0.00    +0.038 C 
ATOM     22  C   UNL     1      36.452 -19.947 -20.242  0.00  0.00    +0.017 C 
ATOM     23  C   UNL     1      33.407 -22.461 -18.576  0.00  0.00    +0.034 C 
ATOM     24  C   UNL     1      32.688 -20.338 -20.412  0.00  0.00    +0.032 C 
BRANCH  19  25
ATOM     25  O   UNL     1      36.158 -22.788 -17.951  0.00  0.00    -0.476 OA
BRANCH  25  26
ATOM     26  C   UNL     1      36.432 -22.406 -16.611  0.00  0.00    +0.206 C 
BRANCH  26  27
ATOM     27  C   UNL     1      35.840 -23.428 -15.647  0.00  0.00    +0.059 C 
BRANCH  27  28
ATOM     28  C   UNL     1      36.913 -24.309 -15.006  0.00  0.00    +0.113 C 
BRANCH  28  30
ATOM     29  O   UNL     1      36.091 -26.459 -15.800  0.00  0.00    -0.250 OA
ATOM     30  C   UNL     1      36.459 -25.745 -14.877  0.00  0.00    +0.314 C 
BRANCH  30  31
ATOM     31  O   UNL     1      36.504 -26.166 -13.586  0.00  0.00    -0.480 OA
ATOM     32  H   UNL     1      36.395 -25.550 -12.888  0.00  0.00    +0.295 HD
ENDBRANCH  30  31
ENDBRANCH  28  30
ENDBRANCH  27  28
ENDBRANCH  26  27
ENDBRANCH  25  26
ENDBRANCH  19  25
ENDBRANCH   3  20
TORSDOF 8
ENDMDL
MODEL 5
REMARK VINA RESULT:     -10.3      4.249     10.663
REMARK  Name = 5326886
REMARK  8 active torsions:
REMARK  status: ('A' for Active; 'I' for Inactive)
REMARK    1  A    between atoms: N_3  and  C_20
REMARK    2  A    between atoms: C_6  and  C_11
REMARK    3  A    between atoms: C_19  and  O_25
REMARK    4  A    between atoms: O_25  and  C_26
REMARK    5  A    between atoms: C_26  and  C_27
REMARK    6  A    between atoms: C_27  and  C_28
REMARK    7  A    between atoms: C_28  and  C_30
REMARK    8  A    between atoms: C_30  and  O_31
REMARK                            x       y       z     vdW  Elec       q    Type
REMARK                         _______ _______ _______ _____ _____    ______ ____
ROOT
ATOM      1  O   UNL     1      35.221 -15.602 -23.420  0.00  0.00    -0.252 OA
ATOM      2  O   UNL     1      35.876 -18.246 -22.859  0.00  0.00    -0.270 OA
ATOM      3  N   UNL     1      33.430 -14.811 -22.115  0.00  0.00    -0.268 N 
ATOM      4  N   UNL     1      34.193 -16.984 -21.858  0.00  0.00    -0.236 N 
ATOM      5  C   UNL     1      34.365 -15.769 -22.554  0.00  0.00    +0.310 C 
ATOM      6  C   UNL     1      34.955 -18.135 -22.055  0.00  0.00    +0.253 C 
ATOM      7  H   UNL     1      32.808 -15.109 -21.412  0.00  0.00    +0.156 HD
ATOM      8  H   UNL     1      33.480 -17.022 -21.182  0.00  0.00    +0.159 HD
ENDROOT
BRANCH   6  11
ATOM      9 CL   UNL     1      37.269 -19.622 -20.649  0.00  0.00    -0.082 Cl
ATOM     10 CL   UNL     1      33.430 -22.758 -18.554  0.00  0.00    -0.082 Cl
ATOM     11  C   UNL     1      34.614 -19.287 -21.181  0.00  0.00    +0.064 C 
ATOM     12  C   UNL     1      35.593 -20.016 -20.505  0.00  0.00    +0.063 C 
ATOM     13  C   UNL     1      33.269 -19.630 -21.042  0.00  0.00    +0.006 C 
ATOM     14  C   UNL     1      35.227 -21.090 -19.692  0.00  0.00    +0.023 C 
ATOM     15  C   UNL     1      32.904 -20.704 -20.230  0.00  0.00    +0.012 C 
ATOM     16  C   UNL     1      33.882 -21.433 -19.556  0.00  0.00    +0.059 C 
ENDBRANCH   6  11
BRANCH   3  20
ATOM     17  C   UNL     1      32.371 -11.269 -22.265  0.00  0.00    +0.009 C 
ATOM     18  C   UNL     1      32.518 -12.580 -21.812  0.00  0.00    -0.009 C 
ATOM     19  C   UNL     1      32.976 -10.871 -23.457  0.00  0.00    +0.134 C 
ATOM     20  C   UNL     1      33.270 -13.493 -22.550  0.00  0.00    +0.047 C 
ATOM     21  C   UNL     1      33.728 -11.784 -24.196  0.00  0.00    +0.038 C 
ATOM     22  C   UNL     1      33.875 -13.095 -23.743  0.00  0.00    +0.017 C 
ATOM     23  C   UNL     1      31.565 -10.283 -21.479  0.00  0.00    +0.034 C 
ATOM     24  C   UNL     1      31.866 -13.004 -20.532  0.00  0.00    +0.032 C 
BRANCH  19  25
ATOM     25  O   UNL     1      32.844  -9.587 -23.918  0.00  0.00    -0.476 OA
BRANCH  25  26
ATOM     26  C   UNL     1      34.026  -8.801 -23.971  0.00  0.00    +0.206 C 
BRANCH  26  27
ATOM     27  C   UNL     1      33.963  -7.694 -22.926  0.00  0.00    +0.059 C 
BRANCH  27  28
ATOM     28  C   UNL     1      32.617  -6.968 -22.930  0.00  0.00    +0.113 C 
BRANCH  28  30
ATOM     29  O   UNL     1      32.405  -7.034 -20.506  0.00  0.00    -0.250 OA
ATOM     30  C   UNL     1      32.260  -6.434 -21.562  0.00  0.00    +0.314 C 
BRANCH  30  31
ATOM     31  O   UNL     1      31.742  -5.180 -21.638  0.00  0.00    -0.480 OA
ATOM     32  H   UNL     1      32.040  -4.513 -21.051  0.00  0.00    +0.295 HD
ENDBRANCH  30  31
ENDBRANCH  28  30
ENDBRANCH  27  28
ENDBRANCH  26  27
ENDBRANCH  25  26
ENDBRANCH  19  25
ENDBRANCH   3  20
TORSDOF 8
ENDMDL
MODEL 6
REMARK VINA RESULT:     -10.1      2.968      4.775
REMARK  Name = 5326886
REMARK  8 active torsions:
REMARK  status: ('A' for Active; 'I' for Inactive)
REMARK    1  A    between atoms: N_3  and  C_20
REMARK    2  A    between atoms: C_6  and  C_11
REMARK    3  A    between atoms: C_19  and  O_25
REMARK    4  A    between atoms: O_25  and  C_26
REMARK    5  A    between atoms: C_26  and  C_27
REMARK    6  A    between atoms: C_27  and  C_28
REMARK    7  A    between atoms: C_28  and  C_30
REMARK    8  A    between atoms: C_30  and  O_31
REMARK                            x       y       z     vdW  Elec       q    Type
REMARK                         _______ _______ _______ _____ _____    ______ ____
ROOT
ATOM      1  O   UNL     1      35.119 -17.078 -20.337  0.00  0.00    -0.252 OA
ATOM      2  O   UNL     1      35.038 -14.695 -21.767  0.00  0.00    -0.270 OA
ATOM      3  N   UNL     1      34.085 -18.859 -21.475  0.00  0.00    -0.268 N 
ATOM      4  N   UNL     1      34.169 -16.750 -22.433  0.00  0.00    -0.236 N 
ATOM      5  C   UNL     1      34.520 -17.529 -21.310  0.00  0.00    +0.310 C 
ATOM      6  C   UNL     1      34.449 -15.393 -22.587  0.00  0.00    +0.253 C 
ATOM      7  H   UNL     1      33.614 -19.055 -22.318  0.00  0.00    +0.156 HD
ATOM      8  H   UNL     1      33.688 -17.200 -23.164  0.00  0.00    +0.159 HD
ENDROOT
BRANCH   6  11
ATOM      9 CL   UNL     1      34.130 -17.257 -25.030  0.00  0.00    -0.082 Cl
ATOM     10 CL   UNL     1      32.675 -12.820 -27.703  0.00  0.00    -0.082 Cl
ATOM     11  C   UNL     1      34.012 -14.790 -23.872  0.00  0.00    +0.064 C 
ATOM     12  C   UNL     1      33.841 -15.554 -25.026  0.00  0.00    +0.063 C 
ATOM     13  C   UNL     1      33.768 -13.416 -23.902  0.00  0.00    +0.006 C 
ATOM     14  C   UNL     1      33.426 -14.945 -26.211  0.00  0.00    +0.023 C 
ATOM     15  C   UNL     1      33.355 -12.808 -25.087  0.00  0.00    +0.012 C 
ATOM     16  C   UNL     1      33.184 -13.572 -26.241  0.00  0.00    +0.059 C 
ENDBRANCH   6  11
BRANCH   3  20
ATOM     17  C   UNL     1      35.628 -21.431 -19.308  0.00  0.00    +0.009 C 
ATOM     18  C   UNL     1      35.501 -20.354 -20.184  0.00  0.00    -0.009 C 
ATOM     19  C   UNL     1      34.490 -22.091 -18.844  0.00  0.00    +0.134 C 
ATOM     20  C   UNL     1      34.236 -19.935 -20.597  0.00  0.00    +0.047 C 
ATOM     21  C   UNL     1      33.224 -21.674 -19.258  0.00  0.00    +0.038 C 
ATOM     22  C   UNL     1      33.098 -20.596 -20.134  0.00  0.00    +0.017 C 
ATOM     23  C   UNL     1      36.981 -21.886 -18.860  0.00  0.00    +0.034 C 
ATOM     24  C   UNL     1      36.725 -19.647 -20.680  0.00  0.00    +0.032 C 
BRANCH  19  25
ATOM     25  O   UNL     1      34.594 -23.151 -17.982  0.00  0.00    -0.476 OA
BRANCH  25  26
ATOM     26  C   UNL     1      33.737 -23.143 -16.850  0.00  0.00    +0.206 C 
BRANCH  26  27
ATOM     27  C   UNL     1      34.475 -23.688 -15.633  0.00  0.00    +0.059 C 
BRANCH  27  28
ATOM     28  C   UNL     1      35.703 -22.850 -15.277  0.00  0.00    +0.113 C 
BRANCH  28  30
ATOM     29  O   UNL     1      38.113 -23.161 -15.425  0.00  0.00    -0.250 OA
ATOM     30  C   UNL     1      36.985 -23.634 -15.434  0.00  0.00    +0.314 C 
BRANCH  30  31
ATOM     31  O   UNL     1      36.739 -24.961 -15.596  0.00  0.00    -0.480 OA
ATOM     32  H   UNL     1      36.464 -25.480 -14.866  0.00  0.00    +0.295 HD
ENDBRANCH  30  31
ENDBRANCH  28  30
ENDBRANCH  27  28
ENDBRANCH  26  27
ENDBRANCH  25  26
ENDBRANCH  19  25
ENDBRANCH   3  20
TORSDOF 8
ENDMDL
MODEL 7
REMARK VINA RESULT:     -10.0      2.723      4.522
REMARK  Name = 5326886
REMARK  8 active torsions:
REMARK  status: ('A' for Active; 'I' for Inactive)
REMARK    1  A    between atoms: N_3  and  C_20
REMARK    2  A    between atoms: C_6  and  C_11
REMARK    3  A    between atoms: C_19  and  O_25
REMARK    4  A    between atoms: O_25  and  C_26
REMARK    5  A    between atoms: C_26  and  C_27
REMARK    6  A    between atoms: C_27  and  C_28
REMARK    7  A    between atoms: C_28  and  C_30
REMARK    8  A    between atoms: C_30  and  O_31
REMARK                            x       y       z     vdW  Elec       q    Type
REMARK                         _______ _______ _______ _____ _____    ______ ____
ROOT
ATOM      1  O   UNL     1      34.560 -19.501 -23.592  0.00  0.00    -0.252 OA
ATOM      2  O   UNL     1      34.450 -17.513 -25.533  0.00  0.00    -0.270 OA
ATOM      3  N   UNL     1      34.198 -18.674 -21.419  0.00  0.00    -0.268 N 
ATOM      4  N   UNL     1      34.161 -17.239 -23.239  0.00  0.00    -0.236 N 
ATOM      5  C   UNL     1      34.329 -18.575 -22.819  0.00  0.00    +0.310 C 
ATOM      6  C   UNL     1      34.231 -16.799 -24.560  0.00  0.00    +0.253 C 
ATOM      7  H   UNL     1      34.015 -17.830 -20.945  0.00  0.00    +0.156 HD
ATOM      8  H   UNL     1      33.979 -16.565 -22.545  0.00  0.00    +0.159 HD
ENDROOT
BRANCH   6  11
ATOM      9 CL   UNL     1      34.663 -14.899 -22.162  0.00  0.00    -0.082 Cl
ATOM     10 CL   UNL     1      33.211 -10.973 -25.543  0.00  0.00    -0.082 Cl
ATOM     11  C   UNL     1      33.986 -15.348 -24.767  0.00  0.00    +0.064 C 
ATOM     12  C   UNL     1      34.157 -14.417 -23.741  0.00  0.00    +0.063 C 
ATOM     13  C   UNL     1      33.578 -14.926 -26.032  0.00  0.00    +0.006 C 
ATOM     14  C   UNL     1      33.917 -13.063 -23.982  0.00  0.00    +0.023 C 
ATOM     15  C   UNL     1      33.338 -13.572 -26.271  0.00  0.00    +0.012 C 
ATOM     16  C   UNL     1      33.507 -12.642 -25.247  0.00  0.00    +0.059 C 
ENDBRANCH   6  11
BRANCH   3  20
ATOM     17  C   UNL     1      35.606 -21.406 -19.358  0.00  0.00    +0.009 C 
ATOM     18  C   UNL     1      35.532 -20.265 -20.157  0.00  0.00    -0.009 C 
ATOM     19  C   UNL     1      34.442 -22.097 -19.021  0.00  0.00    +0.134 C 
ATOM     20  C   UNL     1      34.295 -19.814 -20.618  0.00  0.00    +0.047 C 
ATOM     21  C   UNL     1      33.204 -21.647 -19.483  0.00  0.00    +0.038 C 
ATOM     22  C   UNL     1      33.132 -20.506 -20.281  0.00  0.00    +0.017 C 
ATOM     23  C   UNL     1      36.928 -21.896 -18.860  0.00  0.00    +0.034 C 
ATOM     24  C   UNL     1      36.783 -19.525 -20.518  0.00  0.00    +0.032 C 
BRANCH  19  25
ATOM     25  O   UNL     1      34.494 -23.220 -18.237  0.00  0.00    -0.476 OA
BRANCH  25  26
ATOM     26  C   UNL     1      33.624 -23.258 -17.114  0.00  0.00    +0.206 C 
BRANCH  26  27
ATOM     27  C   UNL     1      34.396 -23.688 -15.872  0.00  0.00    +0.059 C 
BRANCH  27  28
ATOM     28  C   UNL     1      35.582 -22.768 -15.580  0.00  0.00    +0.113 C 
BRANCH  28  30
ATOM     29  O   UNL     1      37.991 -23.038 -15.350  0.00  0.00    -0.250 OA
ATOM     30  C   UNL     1      36.884 -23.533 -15.509  0.00  0.00    +0.314 C 
BRANCH  30  31
ATOM     31  O   UNL     1      36.683 -24.870 -15.650  0.00  0.00    -0.480 OA
ATOM     32  H   UNL     1      36.475 -25.226 -16.491  0.00  0.00    +0.295 HD
ENDBRANCH  30  31
ENDBRANCH  28  30
ENDBRANCH  27  28
ENDBRANCH  26  27
ENDBRANCH  25  26
ENDBRANCH  19  25
ENDBRANCH   3  20
TORSDOF 8
ENDMDL
MODEL 8
REMARK VINA RESULT:      -9.9      1.878      2.631
REMARK  Name = 5326886
REMARK  8 active torsions:
REMARK  status: ('A' for Active; 'I' for Inactive)
REMARK    1  A    between atoms: N_3  and  C_20
REMARK    2  A    between atoms: C_6  and  C_11
REMARK    3  A    between atoms: C_19  and  O_25
REMARK    4  A    between atoms: O_25  and  C_26
REMARK    5  A    between atoms: C_26  and  C_27
REMARK    6  A    between atoms: C_27  and  C_28
REMARK    7  A    between atoms: C_28  and  C_30
REMARK    8  A    between atoms: C_30  and  O_31
REMARK                            x       y       z     vdW  Elec       q    Type
REMARK                         _______ _______ _______ _____ _____    ______ ____
ROOT
ATOM      1  O   UNL     1      32.378 -13.997 -22.011  0.00  0.00    -0.252 OA
ATOM      2  O   UNL     1      31.659 -11.335 -22.375  0.00  0.00    -0.270 OA
ATOM      3  N   UNL     1      34.459 -14.519 -22.977  0.00  0.00    -0.268 N 
ATOM      4  N   UNL     1      33.607 -12.368 -23.124  0.00  0.00    -0.236 N 
ATOM      5  C   UNL     1      33.384 -13.673 -22.638  0.00  0.00    +0.310 C 
ATOM      6  C   UNL     1      32.736 -11.292 -22.961  0.00  0.00    +0.253 C 
ATOM      7  H   UNL     1      35.190 -14.099 -23.487  0.00  0.00    +0.156 HD
ATOM      8  H   UNL     1      34.444 -12.204 -23.616  0.00  0.00    +0.159 HD
ENDROOT
BRANCH   6  11
ATOM      9 CL   UNL     1      30.859  -8.849 -22.728  0.00  0.00    -0.082 Cl
ATOM     10 CL   UNL     1      34.739  -6.144 -25.294  0.00  0.00    -0.082 Cl
ATOM     11  C   UNL     1      33.199 -10.000 -23.530  0.00  0.00    +0.064 C 
ATOM     12  C   UNL     1      32.419  -8.844 -23.469  0.00  0.00    +0.063 C 
ATOM     13  C   UNL     1      34.456  -9.962 -24.134  0.00  0.00    +0.006 C 
ATOM     14  C   UNL     1      32.896  -7.652 -24.015  0.00  0.00    +0.023 C 
ATOM     15  C   UNL     1      34.932  -8.769 -24.680  0.00  0.00    +0.012 C 
ATOM     16  C   UNL     1      34.152  -7.615 -24.620  0.00  0.00    +0.059 C 
ENDBRANCH   6  11
BRANCH   3  20
ATOM     17  C   UNL     1      34.760 -18.185 -23.379  0.00  0.00    +0.009 C 
ATOM     18  C   UNL     1      34.596 -16.836 -23.694  0.00  0.00    -0.009 C 
ATOM     19  C   UNL     1      34.949 -18.572 -22.052  0.00  0.00    +0.134 C 
ATOM     20  C   UNL     1      34.621 -15.874 -22.684  0.00  0.00    +0.047 C 
ATOM     21  C   UNL     1      34.974 -17.611 -21.041  0.00  0.00    +0.038 C 
ATOM     22  C   UNL     1      34.810 -16.263 -21.357  0.00  0.00    +0.017 C 
ATOM     23  C   UNL     1      34.733 -19.222 -24.456  0.00  0.00    +0.034 C 
ATOM     24  C   UNL     1      34.392 -16.422 -25.119  0.00  0.00    +0.032 C 
BRANCH  19  25
ATOM     25  O   UNL     1      35.113 -19.893 -21.723  0.00  0.00    -0.476 OA
BRANCH  25  26
ATOM     26  C   UNL     1      34.810 -20.261 -20.384  0.00  0.00    +0.206 C 
BRANCH  26  27
ATOM     27  C   UNL     1      33.355 -20.702 -20.283  0.00  0.00    +0.059 C 
BRANCH  27  28
ATOM     28  C   UNL     1      33.115 -21.636 -19.096  0.00  0.00    +0.113 C 
BRANCH  28  30
ATOM     29  O   UNL     1      35.231 -22.530 -18.289  0.00  0.00    -0.250 OA
ATOM     30  C   UNL     1      34.214 -22.664 -18.956  0.00  0.00    +0.314 C 
BRANCH  30  31
ATOM     31  O   UNL     1      33.943 -23.783 -19.678  0.00  0.00    -0.480 OA
ATOM     32  H   UNL     1      34.302 -23.885 -20.537  0.00  0.00    +0.295 HD
ENDBRANCH  30  31
ENDBRANCH  28  30
ENDBRANCH  27  28
ENDBRANCH  26  27
ENDBRANCH  25  26
ENDBRANCH  19  25
ENDBRANCH   3  20
TORSDOF 8
ENDMDL
MODEL 9
REMARK VINA RESULT:      -9.9      4.885     11.112
REMARK  Name = 5326886
REMARK  8 active torsions:
REMARK  status: ('A' for Active; 'I' for Inactive)
REMARK    1  A    between atoms: N_3  and  C_20
REMARK    2  A    between atoms: C_6  and  C_11
REMARK    3  A    between atoms: C_19  and  O_25
REMARK    4  A    between atoms: O_25  and  C_26
REMARK    5  A    between atoms: C_26  and  C_27
REMARK    6  A    between atoms: C_27  and  C_28
REMARK    7  A    between atoms: C_28  and  C_30
REMARK    8  A    between atoms: C_30  and  O_31
REMARK                            x       y       z     vdW  Elec       q    Type
REMARK                         _______ _______ _______ _____ _____    ______ ____
ROOT
ATOM      1  O   UNL     1      33.119 -20.014 -21.333  0.00  0.00    -0.252 OA
ATOM      2  O   UNL     1      33.266 -22.206 -19.627  0.00  0.00    -0.270 OA
ATOM      3  N   UNL     1      34.741 -18.379 -20.856  0.00  0.00    -0.268 N 
ATOM      4  N   UNL     1      34.630 -20.319 -19.593  0.00  0.00    -0.236 N 
ATOM      5  C   UNL     1      34.067 -19.602 -20.670  0.00  0.00    +0.310 C 
ATOM      6  C   UNL     1      34.195 -21.566 -19.146  0.00  0.00    +0.253 C 
ATOM      7  H   UNL     1      35.483 -18.199 -20.233  0.00  0.00    +0.156 HD
ATOM      8  H   UNL     1      35.389 -19.907 -19.122  0.00  0.00    +0.159 HD
ENDROOT
BRANCH   6  11
ATOM      9 CL   UNL     1      32.673 -23.309 -17.099  0.00  0.00    -0.082 Cl
ATOM     10 CL   UNL     1      37.428 -23.843 -14.639  0.00  0.00    -0.082 Cl
ATOM     11  C   UNL     1      34.965 -22.145 -18.015  0.00  0.00    +0.064 C 
ATOM     12  C   UNL     1      34.360 -22.945 -17.044  0.00  0.00    +0.063 C 
ATOM     13  C   UNL     1      36.331 -21.872 -17.942  0.00  0.00    +0.006 C 
ATOM     14  C   UNL     1      35.123 -23.471 -16.000  0.00  0.00    +0.023 C 
ATOM     15  C   UNL     1      37.092 -22.397 -16.898  0.00  0.00    +0.012 C 
ATOM     16  C   UNL     1      36.488 -23.196 -15.927  0.00  0.00    +0.059 C 
ENDBRANCH   6  11
BRANCH   3  20
ATOM     17  C   UNL     1      34.525 -16.597 -24.092  0.00  0.00    +0.009 C 
ATOM     18  C   UNL     1      34.781 -17.600 -23.157  0.00  0.00    -0.009 C 
ATOM     19  C   UNL     1      33.981 -15.381 -23.679  0.00  0.00    +0.134 C 
ATOM     20  C   UNL     1      34.493 -17.388 -21.809  0.00  0.00    +0.047 C 
ATOM     21  C   UNL     1      33.693 -15.168 -22.330  0.00  0.00    +0.038 C 
ATOM     22  C   UNL     1      33.949 -16.172 -21.396  0.00  0.00    +0.017 C 
ATOM     23  C   UNL     1      34.831 -16.817 -25.539  0.00  0.00    +0.034 C 
ATOM     24  C   UNL     1      35.365 -18.905 -23.604  0.00  0.00    +0.032 C 
BRANCH  19  25
ATOM     25  O   UNL     1      33.722 -14.384 -24.582  0.00  0.00    -0.476 OA
BRANCH  25  26
ATOM     26  C   UNL     1      33.180 -13.176 -24.066  0.00  0.00    +0.206 C 
BRANCH  26  27
ATOM     27  C   UNL     1      33.784 -11.982 -24.794  0.00  0.00    +0.059 C 
BRANCH  27  28
ATOM     28  C   UNL     1      33.758 -10.711 -23.944  0.00  0.00    +0.113 C 
BRANCH  28  30
ATOM     29  O   UNL     1      34.919  -8.572 -23.995  0.00  0.00    -0.250 OA
ATOM     30  C   UNL     1      34.845  -9.741 -24.346  0.00  0.00    +0.314 C 
BRANCH  30  31
ATOM     31  O   UNL     1      35.754 -10.328 -25.168  0.00  0.00    -0.480 OA
ATOM     32  H   UNL     1      35.674 -10.236 -26.098  0.00  0.00    +0.295 HD
ENDBRANCH  30  31
ENDBRANCH  28  30
ENDBRANCH  27  28
ENDBRANCH  26  27
ENDBRANCH  25  26
ENDBRANCH  19  25
ENDBRANCH   3  20
TORSDOF 8
ENDMDL
