MODEL 1
REMARK VINA RESULT:      -9.3      0.000      0.000
REMARK  Name = 71415
REMARK  5 active torsions:
REMARK  status: ('A' for Active; 'I' for Inactive)
REMARK    1  A    between atoms: C_8  and  O_24
REMARK    2  A    between atoms: C_8  and  C_29
REMARK    3  A    between atoms: C_12  and  O_26
REMARK    4  A    between atoms: C_29  and  C_30
REMARK    5  A    between atoms: C_30  and  O_31
REMARK                            x       y       z     vdW  Elec       q    Type
REMARK                         _______ _______ _______ _____ _____    ______ ____
ROOT
ATOM      1  F   UNL     1      35.628 -25.424 -14.962  0.00  0.00    -0.237 F 
ATOM      2  F   UNL     1      37.817 -22.439 -17.228  0.00  0.00    -0.233 F 
ATOM      3  O   UNL     1      40.475 -25.952 -15.074  0.00  0.00    -0.287 OA
ATOM      4  C   UNL     1      32.536 -23.901 -14.275  0.00  0.00    +0.032 C 
ATOM      5  C   UNL     1      33.461 -23.679 -15.492  0.00  0.00    +0.005 C 
ATOM      6  C   UNL     1      34.869 -23.198 -15.108  0.00  0.00    +0.036 C 
ATOM      7  C   UNL     1      35.547 -24.274 -14.192  0.00  0.00    +0.165 C 
ATOM      8  C   UNL     1      31.216 -24.298 -15.005  0.00  0.00    +0.141 C 
ATOM      9  C   UNL     1      32.612 -22.809 -16.414  0.00  0.00    +0.003 C 
ATOM     10  C   UNL     1      33.183 -24.998 -13.402  0.00  0.00    +0.035 C 
ATOM     11  C   UNL     1      31.201 -23.443 -16.312  0.00  0.00    +0.032 C 
ATOM     12  C   UNL     1      34.638 -24.675 -12.990  0.00  0.00    +0.141 C 
ATOM     13  C   UNL     1      37.039 -23.896 -13.836  0.00  0.00    +0.066 C 
ATOM     14  C   UNL     1      35.709 -22.939 -16.370  0.00  0.00    +0.042 C 
ATOM     15  C   UNL     1      32.306 -22.613 -13.437  0.00  0.00    +0.003 C 
ATOM     16  C   UNL     1      37.149 -22.574 -16.044  0.00  0.00    +0.180 C 
ATOM     17  C   UNL     1      37.773 -23.624 -15.158  0.00  0.00    -0.003 C 
ATOM     18  C   UNL     1      30.119 -22.373 -16.421  0.00  0.00    +0.003 C 
ATOM     19  C   UNL     1      37.181 -22.633 -12.955  0.00  0.00    +0.011 C 
ATOM     20  C   UNL     1      37.697 -25.030 -13.064  0.00  0.00    -0.017 C 
ATOM     21  C   UNL     1      38.872 -24.289 -15.547  0.00  0.00    +0.036 C 
ATOM     22  C   UNL     1      38.791 -25.697 -13.449  0.00  0.00    +0.038 C 
ATOM     23  C   UNL     1      39.463 -25.360 -14.717  0.00  0.00    +0.195 C 
ENDROOT
BRANCH   8  24
ATOM     24  O   UNL     1      31.262 -25.680 -15.380  0.00  0.00    -0.380 OA
ATOM     25  H   UNL     1      31.695 -25.768 -16.244  0.00  0.00    +0.211 HD
ENDBRANCH   8  24
BRANCH  12  26
ATOM     26  O   UNL     1      34.615 -23.689 -11.971  0.00  0.00    -0.382 OA
ATOM     27  H   UNL     1      35.468 -23.682 -11.509  0.00  0.00    +0.210 HD
ENDBRANCH  12  26
BRANCH   8  29
ATOM     28  O   UNL     1      30.040 -23.877 -12.973  0.00  0.00    -0.291 OA
ATOM     29  C   UNL     1      29.987 -24.250 -14.145  0.00  0.00    +0.204 C 
BRANCH  29  30
ATOM     30  C   UNL     1      28.694 -24.685 -14.800  0.00  0.00    +0.204 C 
BRANCH  30  31
ATOM     31  O   UNL     1      28.282 -25.942 -14.305  0.00  0.00    -0.375 OA
ATOM     32  H   UNL     1      27.934 -25.836 -13.406  0.00  0.00    +0.211 HD
ENDBRANCH  30  31
ENDBRANCH  29  30
ENDBRANCH   8  29
TORSDOF 5
ENDMDL
MODEL 2
REMARK VINA RESULT:      -7.9     14.882     17.081
REMARK  Name = 71415
REMARK  5 active torsions:
REMARK  status: ('A' for Active; 'I' for Inactive)
REMARK    1  A    between atoms: C_8  and  O_24
REMARK    2  A    between atoms: C_8  and  C_29
REMARK    3  A    between atoms: C_12  and  O_26
REMARK    4  A    between atoms: C_29  and  C_30
REMARK    5  A    between atoms: C_30  and  O_31
REMARK                            x       y       z     vdW  Elec       q    Type
REMARK                         _______ _______ _______ _____ _____    ______ ____
ROOT
ATOM      1  F   UNL     1      31.541  -9.384 -23.802  0.00  0.00    -0.237 F 
ATOM      2  F   UNL     1      31.225  -7.723 -19.806  0.00  0.00    -0.233 F 
ATOM      3  O   UNL     1      30.613  -4.603 -23.539  0.00  0.00    -0.287 OA
ATOM      4  C   UNL     1      33.321 -12.382 -23.361  0.00  0.00    +0.032 C 
ATOM      5  C   UNL     1      32.371 -11.679 -22.366  0.00  0.00    +0.005 C 
ATOM      6  C   UNL     1      32.807 -10.249 -22.013  0.00  0.00    +0.036 C 
ATOM      7  C   UNL     1      32.841  -9.385 -23.321  0.00  0.00    +0.165 C 
ATOM      8  C   UNL     1      32.646 -13.786 -23.436  0.00  0.00    +0.141 C 
ATOM      9  C   UNL     1      32.231 -12.704 -21.244  0.00  0.00    +0.003 C 
ATOM     10  C   UNL     1      33.311 -11.555 -24.665  0.00  0.00    +0.035 C 
ATOM     11  C   UNL     1      32.096 -14.051 -21.998  0.00  0.00    +0.032 C 
ATOM     12  C   UNL     1      33.672 -10.067 -24.451  0.00  0.00    +0.141 C 
ATOM     13  C   UNL     1      33.185  -7.872 -23.025  0.00  0.00    +0.066 C 
ATOM     14  C   UNL     1      31.852  -9.638 -20.974  0.00  0.00    +0.042 C 
ATOM     15  C   UNL     1      34.773 -12.525 -22.826  0.00  0.00    +0.003 C 
ATOM     16  C   UNL     1      32.171  -8.180 -20.678  0.00  0.00    +0.180 C 
ATOM     17  C   UNL     1      32.202  -7.377 -21.954  0.00  0.00    -0.003 C 
ATOM     18  C   UNL     1      32.752 -15.180 -21.209  0.00  0.00    +0.003 C 
ATOM     19  C   UNL     1      34.616  -7.640 -22.487  0.00  0.00    +0.011 C 
ATOM     20  C   UNL     1      33.071  -7.050 -24.300  0.00  0.00    -0.017 C 
ATOM     21  C   UNL     1      31.380  -6.329 -22.129  0.00  0.00    +0.036 C 
ATOM     22  C   UNL     1      32.253  -6.007 -24.479  0.00  0.00    +0.038 C 
ATOM     23  C   UNL     1      31.357  -5.567 -23.394  0.00  0.00    +0.195 C 
ENDROOT
BRANCH   8  24
ATOM     24  O   UNL     1      31.531 -13.744 -24.336  0.00  0.00    -0.380 OA
ATOM     25  H   UNL     1      31.460 -14.590 -24.804  0.00  0.00    +0.211 HD
ENDBRANCH   8  24
BRANCH  12  26
ATOM     26  O   UNL     1      35.070  -9.963 -24.237  0.00  0.00    -0.382 OA
ATOM     27  H   UNL     1      35.255  -9.992 -23.285  0.00  0.00    +0.210 HD
ENDBRANCH  12  26
BRANCH   8  29
ATOM     28  O   UNL     1      34.354 -15.449 -23.390  0.00  0.00    -0.291 OA
ATOM     29  C   UNL     1      33.499 -14.858 -24.048  0.00  0.00    +0.204 C 
BRANCH  29  30
ATOM     30  C   UNL     1      33.247 -15.163 -25.509  0.00  0.00    +0.204 C 
BRANCH  30  31
ATOM     31  O   UNL     1      34.180 -16.108 -25.990  0.00  0.00    -0.375 OA
ATOM     32  H   UNL     1      34.935 -16.152 -25.383  0.00  0.00    +0.211 HD
ENDBRANCH  30  31
ENDBRANCH  29  30
ENDBRANCH   8  29
TORSDOF 5
ENDMDL
MODEL 3
REMARK VINA RESULT:      -6.7      2.167      7.032
REMARK  Name = 71415
REMARK  5 active torsions:
REMARK  status: ('A' for Active; 'I' for Inactive)
REMARK    1  A    between atoms: C_8  and  O_24
REMARK    2  A    between atoms: C_8  and  C_29
REMARK    3  A    between atoms: C_12  and  O_26
REMARK    4  A    between atoms: C_29  and  C_30
REMARK    5  A    between atoms: C_30  and  O_31
REMARK                            x       y       z     vdW  Elec       q    Type
REMARK                         _______ _______ _______ _____ _____    ______ ____
ROOT
ATOM      1  F   UNL     1      32.352 -22.516 -14.223  0.00  0.00    -0.237 F 
ATOM      2  F   UNL     1      31.492 -21.805 -18.417  0.00  0.00    -0.233 F 
ATOM      3  O   UNL     1      27.692 -21.591 -15.325  0.00  0.00    -0.287 OA
ATOM      4  C   UNL     1      35.421 -24.226 -14.241  0.00  0.00    +0.032 C 
ATOM      5  C   UNL     1      34.903 -23.184 -15.256  0.00  0.00    +0.005 C 
ATOM      6  C   UNL     1      33.580 -23.589 -15.923  0.00  0.00    +0.036 C 
ATOM      7  C   UNL     1      32.479 -23.760 -14.820  0.00  0.00    +0.165 C 
ATOM      8  C   UNL     1      36.767 -23.555 -13.826  0.00  0.00    +0.141 C 
ATOM      9  C   UNL     1      36.122 -22.925 -16.136  0.00  0.00    +0.003 C 
ATOM     10  C   UNL     1      34.357 -24.352 -13.130  0.00  0.00    +0.035 C 
ATOM     11  C   UNL     1      37.292 -22.860 -15.123  0.00  0.00    +0.032 C 
ATOM     12  C   UNL     1      32.949 -24.697 -13.666  0.00  0.00    +0.141 C 
ATOM     13  C   UNL     1      31.062 -24.080 -15.439  0.00  0.00    +0.066 C 
ATOM     14  C   UNL     1      33.159 -22.537 -16.963  0.00  0.00    +0.042 C 
ATOM     15  C   UNL     1      35.702 -25.615 -14.877  0.00  0.00    +0.003 C 
ATOM     16  C   UNL     1      31.795 -22.832 -17.569  0.00  0.00    +0.180 C 
ATOM     17  C   UNL     1      30.759 -22.996 -16.484  0.00  0.00    -0.003 C 
ATOM     18  C   UNL     1      38.570 -23.427 -15.736  0.00  0.00    +0.003 C 
ATOM     19  C   UNL     1      30.974 -25.451 -16.150  0.00  0.00    +0.011 C 
ATOM     20  C   UNL     1      30.004 -24.100 -14.345  0.00  0.00    -0.017 C 
ATOM     21  C   UNL     1      29.678 -22.202 -16.439  0.00  0.00    +0.036 C 
ATOM     22  C   UNL     1      28.927 -23.310 -14.295  0.00  0.00    +0.038 C 
ATOM     23  C   UNL     1      28.684 -22.311 -15.351  0.00  0.00    +0.195 C 
ENDROOT
BRANCH   8  24
ATOM     24  O   UNL     1      36.523 -22.537 -12.846  0.00  0.00    -0.380 OA
ATOM     25  H   UNL     1      35.592 -22.563 -12.577  0.00  0.00    +0.211 HD
ENDBRANCH   8  24
BRANCH  12  26
ATOM     26  O   UNL     1      32.924 -26.067 -14.033  0.00  0.00    -0.382 OA
ATOM     27  H   UNL     1      33.234 -26.164 -14.946  0.00  0.00    +0.210 HD
ENDBRANCH  12  26
BRANCH   8  29
ATOM     28  O   UNL     1      38.208 -25.447 -13.653  0.00  0.00    -0.291 OA
ATOM     29  C   UNL     1      37.720 -24.460 -13.103  0.00  0.00    +0.204 C 
BRANCH  29  30
ATOM     30  C   UNL     1      38.042 -24.088 -11.671  0.00  0.00    +0.204 C 
BRANCH  30  31
ATOM     31  O   UNL     1      39.064 -23.115 -11.626  0.00  0.00    -0.375 OA
ATOM     32  H   UNL     1      39.473 -23.036 -12.502  0.00  0.00    +0.211 HD
ENDBRANCH  30  31
ENDBRANCH  29  30
ENDBRANCH   8  29
TORSDOF 5
ENDMDL
