MODEL 1
REMARK VINA RESULT:      -6.6      0.000      0.000
REMARK  Name = 447213
REMARK  5 active torsions:
REMARK  status: ('A' for Active; 'I' for Inactive)
REMARK    1  A    between atoms: CA_1  and  N_2
REMARK    2  A    between atoms: CA_1  and  CB_6
REMARK    3  A    between atoms: CA_1  and  C_13
REMARK    4  A    between atoms: CB_6  and  CG_7
REMARK    5  A    between atoms: C_13  and  O_14
REMARK                            x       y       z     vdW  Elec       q    Type
REMARK                         _______ _______ _______ _____ _____    ______ ____
ROOT
ATOM      1  CA  PHE A   1      35.044 -17.844 -22.292  0.00  0.00    -0.032 C 
ENDROOT
BRANCH   1   2
ATOM      2  N   PHE A   1      35.640 -17.772 -23.631  0.00  0.00    +0.384 N 
ATOM      3  H1  PHE A   1      36.652 -17.669 -23.547  0.00  0.00    -0.089 HD
ATOM      4  H2  PHE A   1      35.257 -16.970 -24.131  0.00  0.00    -0.089 HD
ATOM      5  H3  PHE A   1      35.426 -18.626 -24.144  0.00  0.00    -0.089 HD
ENDBRANCH   1   2
BRANCH   1   6
ATOM      6  CB  PHE A   1      35.937 -18.746 -21.413  0.00  0.00    +0.007 C 
BRANCH   6   7
ATOM      7  CG  PHE A   1      35.199 -19.845 -20.689  0.00  0.00    -0.024 C 
ATOM      8  CD1 PHE A   1      35.920 -20.820 -20.018  0.00  0.00    -0.004 C 
ATOM      9  CD2 PHE A   1      33.813 -19.859 -20.708  0.00  0.00    -0.004 C 
ATOM     10  CE1 PHE A   1      35.237 -21.837 -19.350  0.00  0.00    -0.000 C 
ATOM     11  CE2 PHE A   1      33.131 -20.875 -20.039  0.00  0.00    -0.000 C 
ATOM     12  CZ  PHE A   1      33.843 -21.864 -19.360  0.00  0.00    -0.000 C 
ENDBRANCH   6   7
ENDBRANCH   1   6
BRANCH   1  13
ATOM     13  C   PHE A   1      34.906 -16.417 -21.749  0.00  0.00    +0.116 C 
BRANCH  13  14
ATOM     14  O   PHE A   1      35.104 -16.404 -20.341  0.00  0.00    -0.384 OA
ATOM     15  H   PHE A   1      35.660 -17.157 -20.086  0.00  0.00    +0.210 HD
ENDBRANCH  13  14
ENDBRANCH   1  13
TORSDOF 5
ENDMDL
MODEL 2
REMARK VINA RESULT:      -6.5      1.884      2.540
REMARK  Name = 447213
REMARK  5 active torsions:
REMARK  status: ('A' for Active; 'I' for Inactive)
REMARK    1  A    between atoms: CA_1  and  N_2
REMARK    2  A    between atoms: CA_1  and  CB_6
REMARK    3  A    between atoms: CA_1  and  C_13
REMARK    4  A    between atoms: CB_6  and  CG_7
REMARK    5  A    between atoms: C_13  and  O_14
REMARK                            x       y       z     vdW  Elec       q    Type
REMARK                         _______ _______ _______ _____ _____    ______ ____
ROOT
ATOM      1  CA  PHE A   1      35.320 -18.179 -23.200  0.00  0.00    -0.032 C 
ENDROOT
BRANCH   1   2
ATOM      2  N   PHE A   1      35.694 -16.808 -23.561  0.00  0.00    +0.384 N 
ATOM      3  H1  PHE A   1      35.459 -16.178 -22.794  0.00  0.00    -0.089 HD
ATOM      4  H2  PHE A   1      35.185 -16.527 -24.400  0.00  0.00    -0.089 HD
ATOM      5  H3  PHE A   1      36.696 -16.765 -23.742  0.00  0.00    -0.089 HD
ENDBRANCH   1   2
BRANCH   1   6
ATOM      6  CB  PHE A   1      34.479 -18.126 -21.906  0.00  0.00    +0.007 C 
BRANCH   6   7
ATOM      7  CG  PHE A   1      34.551 -19.373 -21.059  0.00  0.00    -0.024 C 
ATOM      8  CD1 PHE A   1      33.377 -19.992 -20.660  0.00  0.00    -0.004 C 
ATOM      9  CD2 PHE A   1      35.791 -19.874 -20.693  0.00  0.00    -0.004 C 
ATOM     10  CE1 PHE A   1      33.444 -21.144 -19.875  0.00  0.00    -0.000 C 
ATOM     11  CE2 PHE A   1      35.857 -21.026 -19.909  0.00  0.00    -0.000 C 
ATOM     12  CZ  PHE A   1      34.684 -21.660 -19.501  0.00  0.00    -0.000 C 
ENDBRANCH   6   7
ENDBRANCH   1   6
BRANCH   1  13
ATOM     13  C   PHE A   1      34.569 -18.802 -24.383  0.00  0.00    +0.116 C 
BRANCH  13  14
ATOM     14  O   PHE A   1      34.569 -17.910 -25.491  0.00  0.00    -0.384 OA
ATOM     15  H   PHE A   1      34.031 -17.131 -25.279  0.00  0.00    +0.210 HD
ENDBRANCH  13  14
ENDBRANCH   1  13
TORSDOF 5
ENDMDL
MODEL 3
REMARK VINA RESULT:      -6.5      0.450      1.525
REMARK  Name = 447213
REMARK  5 active torsions:
REMARK  status: ('A' for Active; 'I' for Inactive)
REMARK    1  A    between atoms: CA_1  and  N_2
REMARK    2  A    between atoms: CA_1  and  CB_6
REMARK    3  A    between atoms: CA_1  and  C_13
REMARK    4  A    between atoms: CB_6  and  CG_7
REMARK    5  A    between atoms: C_13  and  O_14
REMARK                            x       y       z     vdW  Elec       q    Type
REMARK                         _______ _______ _______ _____ _____    ______ ____
ROOT
ATOM      1  CA  PHE A   1      34.896 -17.513 -22.520  0.00  0.00    -0.032 C 
ENDROOT
BRANCH   1   2
ATOM      2  N   PHE A   1      35.407 -17.470 -23.895  0.00  0.00    +0.384 N 
ATOM      3  H1  PHE A   1      34.624 -17.433 -24.547  0.00  0.00    -0.089 HD
ATOM      4  H2  PHE A   1      35.962 -18.306 -24.077  0.00  0.00    -0.089 HD
ATOM      5  H3  PHE A   1      35.989 -16.642 -24.015  0.00  0.00    -0.089 HD
ENDBRANCH   1   2
BRANCH   1   6
ATOM      6  CB  PHE A   1      35.775 -18.489 -21.709  0.00  0.00    +0.007 C 
BRANCH   6   7
ATOM      7  CG  PHE A   1      35.005 -19.540 -20.946  0.00  0.00    -0.024 C 
ATOM      8  CD1 PHE A   1      33.620 -19.498 -20.942  0.00  0.00    -0.004 C 
ATOM      9  CD2 PHE A   1      35.699 -20.527 -20.262  0.00  0.00    -0.004 C 
ATOM     10  CE1 PHE A   1      32.909 -20.469 -20.236  0.00  0.00    -0.000 C 
ATOM     11  CE2 PHE A   1      34.987 -21.498 -19.557  0.00  0.00    -0.000 C 
ATOM     12  CZ  PHE A   1      33.593 -21.469 -19.544  0.00  0.00    -0.000 C 
ENDBRANCH   6   7
ENDBRANCH   1   6
BRANCH   1  13
ATOM     13  C   PHE A   1      34.901 -16.086 -21.960  0.00  0.00    +0.116 C 
BRANCH  13  14
ATOM     14  O   PHE A   1      34.923 -16.115 -20.538  0.00  0.00    -0.384 OA
ATOM     15  H   PHE A   1      34.968 -17.035 -20.234  0.00  0.00    +0.210 HD
ENDBRANCH  13  14
ENDBRANCH   1  13
TORSDOF 5
ENDMDL
MODEL 4
REMARK VINA RESULT:      -6.0      2.104      2.642
REMARK  Name = 447213
REMARK  5 active torsions:
REMARK  status: ('A' for Active; 'I' for Inactive)
REMARK    1  A    between atoms: CA_1  and  N_2
REMARK    2  A    between atoms: CA_1  and  CB_6
REMARK    3  A    between atoms: CA_1  and  C_13
REMARK    4  A    between atoms: CB_6  and  CG_7
REMARK    5  A    between atoms: C_13  and  O_14
REMARK                            x       y       z     vdW  Elec       q    Type
REMARK                         _______ _______ _______ _____ _____    ______ ____
ROOT
ATOM      1  CA  PHE A   1      35.048 -16.668 -23.302  0.00  0.00    -0.032 C 
ENDROOT
BRANCH   1   2
ATOM      2  N   PHE A   1      34.761 -15.265 -23.624  0.00  0.00    +0.384 N 
ATOM      3  H1  PHE A   1      35.047 -14.672 -22.845  0.00  0.00    -0.089 HD
ATOM      4  H2  PHE A   1      33.760 -15.153 -23.787  0.00  0.00    -0.089 HD
ATOM      5  H3  PHE A   1      35.274 -14.997 -24.463  0.00  0.00    -0.089 HD
ENDBRANCH   1   2
BRANCH   1   6
ATOM      6  CB  PHE A   1      34.316 -17.021 -21.990  0.00  0.00    +0.007 C 
BRANCH   6   7
ATOM      7  CG  PHE A   1      34.745 -18.327 -21.365  0.00  0.00    -0.024 C 
ATOM      8  CD1 PHE A   1      36.094 -18.574 -21.165  0.00  0.00    -0.004 C 
ATOM      9  CD2 PHE A   1      33.781 -19.256 -21.003  0.00  0.00    -0.004 C 
ATOM     10  CE1 PHE A   1      36.489 -19.782 -20.589  0.00  0.00    -0.000 C 
ATOM     11  CE2 PHE A   1      34.177 -20.462 -20.427  0.00  0.00    -0.000 C 
ATOM     12  CZ  PHE A   1      35.531 -20.725 -20.220  0.00  0.00    -0.000 C 
ENDBRANCH   6   7
ENDBRANCH   1   6
BRANCH   1  13
ATOM     13  C   PHE A   1      34.612 -17.534 -24.489  0.00  0.00    +0.116 C 
BRANCH  13  14
ATOM     14  O   PHE A   1      34.901 -16.873 -25.715  0.00  0.00    -0.384 OA
ATOM     15  H   PHE A   1      34.938 -15.915 -25.564  0.00  0.00    +0.210 HD
ENDBRANCH  13  14
ENDBRANCH   1  13
TORSDOF 5
ENDMDL
MODEL 5
REMARK VINA RESULT:      -5.9      4.066      5.871
REMARK  Name = 447213
REMARK  5 active torsions:
REMARK  status: ('A' for Active; 'I' for Inactive)
REMARK    1  A    between atoms: CA_1  and  N_2
REMARK    2  A    between atoms: CA_1  and  CB_6
REMARK    3  A    between atoms: CA_1  and  C_13
REMARK    4  A    between atoms: CB_6  and  CG_7
REMARK    5  A    between atoms: C_13  and  O_14
REMARK                            x       y       z     vdW  Elec       q    Type
REMARK                         _______ _______ _______ _____ _____    ______ ____
ROOT
ATOM      1  CA  PHE A   1      33.383 -22.933 -16.953  0.00  0.00    -0.032 C 
ENDROOT
BRANCH   1   2
ATOM      2  N   PHE A   1      34.375 -23.634 -16.130  0.00  0.00    +0.384 N 
ATOM      3  H1  PHE A   1      34.665 -24.490 -16.602  0.00  0.00    -0.089 HD
ATOM      4  H2  PHE A   1      33.963 -23.866 -15.226  0.00  0.00    -0.089 HD
ATOM      5  H3  PHE A   1      35.185 -23.031 -15.989  0.00  0.00    -0.089 HD
ENDBRANCH   1   2
BRANCH   1   6
ATOM      6  CB  PHE A   1      33.683 -23.239 -18.436  0.00  0.00    +0.007 C 
BRANCH   6   7
ATOM      7  CG  PHE A   1      34.106 -22.040 -19.250  0.00  0.00    -0.024 C 
ATOM      8  CD1 PHE A   1      33.137 -21.191 -19.763  0.00  0.00    -0.004 C 
ATOM      9  CD2 PHE A   1      35.455 -21.811 -19.472  0.00  0.00    -0.004 C 
ATOM     10  CE1 PHE A   1      33.529 -20.084 -20.517  0.00  0.00    -0.000 C 
ATOM     11  CE2 PHE A   1      35.846 -20.703 -20.225  0.00  0.00    -0.000 C 
ATOM     12  CZ  PHE A   1      34.882 -19.841 -20.747  0.00  0.00    -0.000 C 
ENDBRANCH   6   7
ENDBRANCH   1   6
BRANCH   1  13
ATOM     13  C   PHE A   1      31.986 -23.388 -16.514  0.00  0.00    +0.116 C 
BRANCH  13  14
ATOM     14  O   PHE A   1      30.993 -22.535 -17.069  0.00  0.00    -0.384 OA
ATOM     15  H   PHE A   1      30.859 -22.761 -18.003  0.00  0.00    +0.210 HD
ENDBRANCH  13  14
ENDBRANCH   1  13
TORSDOF 5
ENDMDL
MODEL 6
REMARK VINA RESULT:      -5.9      2.453      4.731
REMARK  Name = 447213
REMARK  5 active torsions:
REMARK  status: ('A' for Active; 'I' for Inactive)
REMARK    1  A    between atoms: CA_1  and  N_2
REMARK    2  A    between atoms: CA_1  and  CB_6
REMARK    3  A    between atoms: CA_1  and  C_13
REMARK    4  A    between atoms: CB_6  and  CG_7
REMARK    5  A    between atoms: C_13  and  O_14
REMARK                            x       y       z     vdW  Elec       q    Type
REMARK                         _______ _______ _______ _____ _____    ______ ____
ROOT
ATOM      1  CA  PHE A   1      34.545 -20.109 -20.890  0.00  0.00    -0.032 C 
ENDROOT
BRANCH   1   2
ATOM      2  N   PHE A   1      33.192 -20.175 -20.326  0.00  0.00    +0.384 N 
ATOM      3  H1  PHE A   1      33.248 -20.166 -19.307  0.00  0.00    -0.089 HD
ATOM      4  H2  PHE A   1      32.737 -21.034 -20.634  0.00  0.00    -0.089 HD
ATOM      5  H3  PHE A   1      32.652 -19.371 -20.644  0.00  0.00    -0.089 HD
ENDBRANCH   1   2
BRANCH   1   6
ATOM      6  CB  PHE A   1      34.922 -18.623 -21.069  0.00  0.00    +0.007 C 
BRANCH   6   7
ATOM      7  CG  PHE A   1      34.830 -18.119 -22.489  0.00  0.00    -0.024 C 
ATOM      8  CD1 PHE A   1      34.617 -19.023 -23.518  0.00  0.00    -0.004 C 
ATOM      9  CD2 PHE A   1      34.963 -16.762 -22.738  0.00  0.00    -0.004 C 
ATOM     10  CE1 PHE A   1      34.534 -18.557 -24.830  0.00  0.00    -0.000 C 
ATOM     11  CE2 PHE A   1      34.879 -16.297 -24.050  0.00  0.00    -0.000 C 
ATOM     12  CZ  PHE A   1      34.664 -17.194 -25.096  0.00  0.00    -0.000 C 
ENDBRANCH   6   7
ENDBRANCH   1   6
BRANCH   1  13
ATOM     13  C   PHE A   1      35.494 -20.865 -19.953  0.00  0.00    +0.116 C 
BRANCH  13  14
ATOM     14  O   PHE A   1      36.645 -20.076 -19.676  0.00  0.00    -0.384 OA
ATOM     15  H   PHE A   1      37.431 -20.513 -20.040  0.00  0.00    +0.210 HD
ENDBRANCH  13  14
ENDBRANCH   1  13
TORSDOF 5
ENDMDL
MODEL 7
REMARK VINA RESULT:      -5.8      4.256      5.516
REMARK  Name = 447213
REMARK  5 active torsions:
REMARK  status: ('A' for Active; 'I' for Inactive)
REMARK    1  A    between atoms: CA_1  and  N_2
REMARK    2  A    between atoms: CA_1  and  CB_6
REMARK    3  A    between atoms: CA_1  and  C_13
REMARK    4  A    between atoms: CB_6  and  CG_7
REMARK    5  A    between atoms: C_13  and  O_14
REMARK                            x       y       z     vdW  Elec       q    Type
REMARK                         _______ _______ _______ _____ _____    ______ ____
ROOT
ATOM      1  CA  PHE A   1      34.849 -17.493 -23.593  0.00  0.00    -0.032 C 
ENDROOT
BRANCH   1   2
ATOM      2  N   PHE A   1      36.058 -18.219 -23.187  0.00  0.00    +0.384 N 
ATOM      3  H1  PHE A   1      36.227 -18.066 -22.193  0.00  0.00    -0.089 HD
ATOM      4  H2  PHE A   1      36.855 -17.878 -23.724  0.00  0.00    -0.089 HD
ATOM      5  H3  PHE A   1      35.931 -19.215 -23.361  0.00  0.00    -0.089 HD
ENDBRANCH   1   2
BRANCH   1   6
ATOM      6  CB  PHE A   1      35.120 -15.981 -23.443  0.00  0.00    +0.007 C 
BRANCH   6   7
ATOM      7  CG  PHE A   1      34.136 -15.253 -22.559  0.00  0.00    -0.024 C 
ATOM      8  CD1 PHE A   1      34.064 -15.575 -21.213  0.00  0.00    -0.004 C 
ATOM      9  CD2 PHE A   1      33.321 -14.276 -23.111  0.00  0.00    -0.004 C 
ATOM     10  CE1 PHE A   1      33.154 -14.902 -20.397  0.00  0.00    -0.000 C 
ATOM     11  CE2 PHE A   1      32.412 -13.603 -22.295  0.00  0.00    -0.000 C 
ATOM     12  CZ  PHE A   1      32.329 -13.917 -20.938  0.00  0.00    -0.000 C 
ENDBRANCH   6   7
ENDBRANCH   1   6
BRANCH   1  13
ATOM     13  C   PHE A   1      34.501 -17.905 -25.028  0.00  0.00    +0.116 C 
BRANCH  13  14
ATOM     14  O   PHE A   1      34.692 -16.810 -25.916  0.00  0.00    -0.384 OA
ATOM     15  H   PHE A   1      33.984 -16.804 -26.578  0.00  0.00    +0.210 HD
ENDBRANCH  13  14
ENDBRANCH   1  13
TORSDOF 5
ENDMDL
MODEL 8
REMARK VINA RESULT:      -5.7      3.662      4.898
REMARK  Name = 447213
REMARK  5 active torsions:
REMARK  status: ('A' for Active; 'I' for Inactive)
REMARK    1  A    between atoms: CA_1  and  N_2
REMARK    2  A    between atoms: CA_1  and  CB_6
REMARK    3  A    between atoms: CA_1  and  C_13
REMARK    4  A    between atoms: CB_6  and  CG_7
REMARK    5  A    between atoms: C_13  and  O_14
REMARK                            x       y       z     vdW  Elec       q    Type
REMARK                         _______ _______ _______ _____ _____    ______ ____
ROOT
ATOM      1  CA  PHE A   1      33.508 -14.254 -23.008  0.00  0.00    -0.032 C 
ENDROOT
BRANCH   1   2
ATOM      2  N   PHE A   1      34.109 -13.063 -23.619  0.00  0.00    +0.384 N 
ATOM      3  H1  PHE A   1      35.101 -13.025 -23.386  0.00  0.00    -0.089 HD
ATOM      4  H2  PHE A   1      33.644 -12.228 -23.263  0.00  0.00    -0.089 HD
ATOM      5  H3  PHE A   1      33.998 -13.108 -24.631  0.00  0.00    -0.089 HD
ENDBRANCH   1   2
BRANCH   1   6
ATOM      6  CB  PHE A   1      34.648 -15.169 -22.511  0.00  0.00    +0.007 C 
BRANCH   6   7
ATOM      7  CG  PHE A   1      34.696 -16.526 -23.171  0.00  0.00    -0.024 C 
ATOM      8  CD1 PHE A   1      34.490 -16.624 -24.539  0.00  0.00    -0.004 C 
ATOM      9  CD2 PHE A   1      34.944 -17.649 -22.398  0.00  0.00    -0.004 C 
ATOM     10  CE1 PHE A   1      34.533 -17.878 -25.148  0.00  0.00    -0.000 C 
ATOM     11  CE2 PHE A   1      34.988 -18.903 -23.008  0.00  0.00    -0.000 C 
ATOM     12  CZ  PHE A   1      34.783 -19.017 -24.382  0.00  0.00    -0.000 C 
ENDBRANCH   6   7
ENDBRANCH   1   6
BRANCH   1  13
ATOM     13  C   PHE A   1      32.568 -13.798 -21.886  0.00  0.00    +0.116 C 
BRANCH  13  14
ATOM     14  O   PHE A   1      31.645 -12.835 -22.378  0.00  0.00    -0.384 OA
ATOM     15  H   PHE A   1      30.749 -13.069 -22.089  0.00  0.00    +0.210 HD
ENDBRANCH  13  14
ENDBRANCH   1  13
TORSDOF 5
ENDMDL
MODEL 9
REMARK VINA RESULT:      -5.6      3.055      4.179
REMARK  Name = 447213
REMARK  5 active torsions:
REMARK  status: ('A' for Active; 'I' for Inactive)
REMARK    1  A    between atoms: CA_1  and  N_2
REMARK    2  A    between atoms: CA_1  and  CB_6
REMARK    3  A    between atoms: CA_1  and  C_13
REMARK    4  A    between atoms: CB_6  and  CG_7
REMARK    5  A    between atoms: C_13  and  O_14
REMARK                            x       y       z     vdW  Elec       q    Type
REMARK                         _______ _______ _______ _____ _____    ______ ____
ROOT
ATOM      1  CA  PHE A   1      33.373 -14.732 -23.739  0.00  0.00    -0.032 C 
ENDROOT
BRANCH   1   2
ATOM      2  N   PHE A   1      33.234 -14.810 -25.198  0.00  0.00    +0.384 N 
ATOM      3  H1  PHE A   1      32.947 -13.901 -25.560  0.00  0.00    -0.089 HD
ATOM      4  H2  PHE A   1      32.529 -15.508 -25.435  0.00  0.00    -0.089 HD
ATOM      5  H3  PHE A   1      34.127 -15.074 -25.611  0.00  0.00    -0.089 HD
ENDBRANCH   1   2
BRANCH   1   6
ATOM      6  CB  PHE A   1      34.749 -15.315 -23.354  0.00  0.00    +0.007 C 
BRANCH   6   7
ATOM      7  CG  PHE A   1      34.726 -16.773 -22.963  0.00  0.00    -0.024 C 
ATOM      8  CD1 PHE A   1      34.928 -17.740 -23.936  0.00  0.00    -0.004 C 
ATOM      9  CD2 PHE A   1      34.502 -17.118 -21.639  0.00  0.00    -0.004 C 
ATOM     10  CE1 PHE A   1      34.906 -19.087 -23.574  0.00  0.00    -0.000 C 
ATOM     11  CE2 PHE A   1      34.481 -18.465 -21.279  0.00  0.00    -0.000 C 
ATOM     12  CZ  PHE A   1      34.682 -19.449 -22.246  0.00  0.00    -0.000 C 
ENDBRANCH   6   7
ENDBRANCH   1   6
BRANCH   1  13
ATOM     13  C   PHE A   1      33.195 -13.270 -23.315  0.00  0.00    +0.116 C 
BRANCH  13  14
ATOM     14  O   PHE A   1      34.191 -12.456 -23.922  0.00  0.00    -0.384 OA
ATOM     15  H   PHE A   1      34.083 -11.539 -23.626  0.00  0.00    +0.210 HD
ENDBRANCH  13  14
ENDBRANCH   1  13
TORSDOF 5
ENDMDL
