MODEL 1
REMARK VINA RESULT:      -7.4      0.000      0.000
REMARK  Name = 94599
REMARK  14 active torsions:
REMARK  status: ('A' for Active; 'I' for Inactive)
REMARK    1  A    between atoms: C_1  and  C_4
REMARK    2  A    between atoms: C_1  and  C_13
REMARK    3  A    between atoms: N_3  and  C_6
REMARK    4  A    between atoms: C_6  and  C_7
REMARK    5  A    between atoms: C_7  and  C_8
REMARK    6  A    between atoms: C_8  and  N_10
REMARK    7  A    between atoms: C_13  and  C_14
REMARK    8  A    between atoms: C_14  and  C_15
REMARK    9  A    between atoms: C_15  and  C_16
REMARK   10  A    between atoms: C_16  and  C_17
REMARK   11  A    between atoms: C_17  and  C_18
REMARK   12  A    between atoms: C_18  and  C_19
REMARK   13  A    between atoms: C_19  and  C_20
REMARK   14  A    between atoms: C_20  and  C_21
REMARK                            x       y       z     vdW  Elec       q    Type
REMARK                         _______ _______ _______ _____ _____    ______ ____
ROOT
ATOM      1  C   UNL     1      33.269 -21.015 -20.023  0.00  0.00    +0.085 C 
ENDROOT
BRANCH   1   4
ATOM      2  O   UNL     1      34.593 -22.772 -19.015  0.00  0.00    -0.275 OA
ATOM      3  N   UNL     1      32.497 -22.287 -18.135  0.00  0.00    -0.304 N 
ATOM      4  C   UNL     1      33.552 -22.122 -19.020  0.00  0.00    +0.222 C 
ATOM      5  H   UNL     1      31.709 -21.706 -18.233  0.00  0.00    +0.149 HD
BRANCH   3   6
ATOM      6  C   UNL     1      32.500 -23.269 -17.075  0.00  0.00    +0.087 C 
BRANCH   6   7
ATOM      7  C   UNL     1      31.229 -23.226 -16.235  0.00  0.00    +0.004 C 
BRANCH   7   8
ATOM      8  C   UNL     1      31.511 -22.902 -14.776  0.00  0.00    -0.026 C 
BRANCH   8  10
ATOM      9  O   UNL     1      30.799 -23.621 -12.662  0.00  0.00    -0.290 OA
ATOM     10  N   UNL     1      31.161 -24.058 -13.917  0.00  0.00    +0.428 N 
ATOM     11  C   UNL     1      32.342 -24.987 -13.778  0.00  0.00    -0.045 C 
ATOM     12  C   UNL     1      30.004 -24.823 -14.510  0.00  0.00    -0.045 C 
ENDBRANCH   8  10
ENDBRANCH   7   8
ENDBRANCH   6   7
ENDBRANCH   3   6
ENDBRANCH   1   4
BRANCH   1  13
ATOM     13  C   UNL     1      34.543 -20.326 -20.505  0.00  0.00    +0.010 C 
BRANCH  13  14
ATOM     14  C   UNL     1      34.222 -19.084 -21.338  0.00  0.00    +0.001 C 
BRANCH  14  15
ATOM     15  C   UNL     1      35.498 -18.378 -21.800  0.00  0.00    +0.000 C 
BRANCH  15  16
ATOM     16  C   UNL     1      35.776 -18.645 -23.281  0.00  0.00    +0.000 C 
BRANCH  16  17
ATOM     17  C   UNL     1      34.566 -18.287 -24.146  0.00  0.00    +0.000 C 
BRANCH  17  18
ATOM     18  C   UNL     1      34.756 -17.003 -24.959  0.00  0.00    +0.000 C 
BRANCH  18  19
ATOM     19  C   UNL     1      33.945 -15.790 -24.489  0.00  0.00    +0.000 C 
BRANCH  19  20
ATOM     20  C   UNL     1      34.529 -15.117 -23.245  0.00  0.00    +0.000 C 
BRANCH  20  21
ATOM     21  C   UNL     1      33.628 -15.242 -22.013  0.00  0.00    +0.000 C 
ATOM     22  C   UNL     1      34.371 -15.061 -20.698  0.00  0.00    +0.000 C 
ENDBRANCH  20  21
ENDBRANCH  19  20
ENDBRANCH  18  19
ENDBRANCH  17  18
ENDBRANCH  16  17
ENDBRANCH  15  16
ENDBRANCH  14  15
ENDBRANCH  13  14
ENDBRANCH   1  13
TORSDOF 14
ENDMDL
MODEL 2
REMARK VINA RESULT:      -7.3      2.139      2.837
REMARK  Name = 94599
REMARK  14 active torsions:
REMARK  status: ('A' for Active; 'I' for Inactive)
REMARK    1  A    between atoms: C_1  and  C_4
REMARK    2  A    between atoms: C_1  and  C_13
REMARK    3  A    between atoms: N_3  and  C_6
REMARK    4  A    between atoms: C_6  and  C_7
REMARK    5  A    between atoms: C_7  and  C_8
REMARK    6  A    between atoms: C_8  and  N_10
REMARK    7  A    between atoms: C_13  and  C_14
REMARK    8  A    between atoms: C_14  and  C_15
REMARK    9  A    between atoms: C_15  and  C_16
REMARK   10  A    between atoms: C_16  and  C_17
REMARK   11  A    between atoms: C_17  and  C_18
REMARK   12  A    between atoms: C_18  and  C_19
REMARK   13  A    between atoms: C_19  and  C_20
REMARK   14  A    between atoms: C_20  and  C_21
REMARK                            x       y       z     vdW  Elec       q    Type
REMARK                         _______ _______ _______ _____ _____    ______ ____
ROOT
ATOM      1  C   UNL     1      33.822 -22.657 -19.225  0.00  0.00    +0.085 C 
ENDROOT
BRANCH   1   4
ATOM      2  O   UNL     1      34.967 -23.007 -17.122  0.00  0.00    -0.275 OA
ATOM      3  N   UNL     1      32.646 -23.116 -17.180  0.00  0.00    -0.304 N 
ATOM      4  C   UNL     1      33.905 -22.943 -17.736  0.00  0.00    +0.222 C 
ATOM      5  H   UNL     1      31.861 -23.042 -17.770  0.00  0.00    +0.149 HD
BRANCH   3   6
ATOM      6  C   UNL     1      32.429 -23.398 -15.780  0.00  0.00    +0.087 C 
BRANCH   6   7
ATOM      7  C   UNL     1      30.975 -23.212 -15.364  0.00  0.00    +0.004 C 
BRANCH   7   8
ATOM      8  C   UNL     1      30.118 -22.660 -16.492  0.00  0.00    -0.026 C 
BRANCH   8  10
ATOM      9  O   UNL     1      28.321 -23.497 -17.744  0.00  0.00    -0.290 OA
ATOM     10  N   UNL     1      28.769 -23.274 -16.460  0.00  0.00    +0.428 N 
ATOM     11  C   UNL     1      27.792 -22.359 -15.764  0.00  0.00    -0.045 C 
ATOM     12  C   UNL     1      28.810 -24.594 -15.731  0.00  0.00    -0.045 C 
ENDBRANCH   8  10
ENDBRANCH   7   8
ENDBRANCH   6   7
ENDBRANCH   3   6
ENDBRANCH   1   4
BRANCH   1  13
ATOM     13  C   UNL     1      33.342 -21.238 -19.521  0.00  0.00    +0.010 C 
BRANCH  13  14
ATOM     14  C   UNL     1      34.379 -20.456 -20.327  0.00  0.00    +0.001 C 
BRANCH  14  15
ATOM     15  C   UNL     1      33.735 -19.295 -21.087  0.00  0.00    +0.000 C 
BRANCH  15  16
ATOM     16  C   UNL     1      34.553 -18.917 -22.323  0.00  0.00    +0.000 C 
BRANCH  16  17
ATOM     17  C   UNL     1      34.948 -17.439 -22.297  0.00  0.00    +0.000 C 
BRANCH  17  18
ATOM     18  C   UNL     1      34.984 -16.843 -20.887  0.00  0.00    +0.000 C 
BRANCH  18  19
ATOM     19  C   UNL     1      34.547 -15.379 -20.771  0.00  0.00    +0.000 C 
BRANCH  19  20
ATOM     20  C   UNL     1      33.031 -15.208 -20.644  0.00  0.00    +0.000 C 
BRANCH  20  21
ATOM     21  C   UNL     1      32.539 -13.831 -21.101  0.00  0.00    +0.000 C 
ATOM     22  C   UNL     1      32.416 -13.703 -22.611  0.00  0.00    +0.000 C 
ENDBRANCH  20  21
ENDBRANCH  19  20
ENDBRANCH  18  19
ENDBRANCH  17  18
ENDBRANCH  16  17
ENDBRANCH  15  16
ENDBRANCH  14  15
ENDBRANCH  13  14
ENDBRANCH   1  13
TORSDOF 14
ENDMDL
MODEL 3
REMARK VINA RESULT:      -7.2      2.011      3.003
REMARK  Name = 94599
REMARK  14 active torsions:
REMARK  status: ('A' for Active; 'I' for Inactive)
REMARK    1  A    between atoms: C_1  and  C_4
REMARK    2  A    between atoms: C_1  and  C_13
REMARK    3  A    between atoms: N_3  and  C_6
REMARK    4  A    between atoms: C_6  and  C_7
REMARK    5  A    between atoms: C_7  and  C_8
REMARK    6  A    between atoms: C_8  and  N_10
REMARK    7  A    between atoms: C_13  and  C_14
REMARK    8  A    between atoms: C_14  and  C_15
REMARK    9  A    between atoms: C_15  and  C_16
REMARK   10  A    between atoms: C_16  and  C_17
REMARK   11  A    between atoms: C_17  and  C_18
REMARK   12  A    between atoms: C_18  and  C_19
REMARK   13  A    between atoms: C_19  and  C_20
REMARK   14  A    between atoms: C_20  and  C_21
REMARK                            x       y       z     vdW  Elec       q    Type
REMARK                         _______ _______ _______ _____ _____    ______ ____
ROOT
ATOM      1  C   UNL     1      33.694 -22.711 -18.380  0.00  0.00    +0.085 C 
ENDROOT
BRANCH   1   4
ATOM      2  O   UNL     1      34.692 -23.858 -16.498  0.00  0.00    -0.275 OA
ATOM      3  N   UNL     1      32.452 -23.248 -16.394  0.00  0.00    -0.304 N 
ATOM      4  C   UNL     1      33.697 -23.340 -16.998  0.00  0.00    +0.222 C 
ATOM      5  H   UNL     1      31.723 -22.809 -16.890  0.00  0.00    +0.149 HD
BRANCH   3   6
ATOM      6  C   UNL     1      32.171 -23.763 -15.074  0.00  0.00    +0.087 C 
BRANCH   6   7
ATOM      7  C   UNL     1      30.705 -24.135 -14.891  0.00  0.00    +0.004 C 
BRANCH   7   8
ATOM      8  C   UNL     1      29.792 -22.919 -14.923  0.00  0.00    -0.026 C 
BRANCH   8  10
ATOM      9  O   UNL     1      29.492 -22.332 -17.172  0.00  0.00    -0.290 OA
ATOM     10  N   UNL     1      28.902 -22.975 -16.106  0.00  0.00    +0.428 N 
ATOM     11  C   UNL     1      27.587 -22.298 -15.807  0.00  0.00    -0.045 C 
ATOM     12  C   UNL     1      28.637 -24.408 -16.497  0.00  0.00    -0.045 C 
ENDBRANCH   8  10
ENDBRANCH   7   8
ENDBRANCH   6   7
ENDBRANCH   3   6
ENDBRANCH   1   4
BRANCH   1  13
ATOM     13  C   UNL     1      35.035 -22.073 -18.734  0.00  0.00    +0.010 C 
BRANCH  13  14
ATOM     14  C   UNL     1      34.921 -21.192 -19.979  0.00  0.00    +0.001 C 
BRANCH  14  15
ATOM     15  C   UNL     1      33.516 -20.604 -20.119  0.00  0.00    +0.000 C 
BRANCH  15  16
ATOM     16  C   UNL     1      33.516 -19.371 -21.025  0.00  0.00    +0.000 C 
BRANCH  16  17
ATOM     17  C   UNL     1      34.907 -19.111 -21.607  0.00  0.00    +0.000 C 
BRANCH  17  18
ATOM     18  C   UNL     1      35.232 -17.623 -21.768  0.00  0.00    +0.000 C 
BRANCH  18  19
ATOM     19  C   UNL     1      34.453 -16.669 -20.857  0.00  0.00    +0.000 C 
BRANCH  19  20
ATOM     20  C   UNL     1      34.552 -15.204 -21.289  0.00  0.00    +0.000 C 
BRANCH  20  21
ATOM     21  C   UNL     1      34.476 -15.016 -22.807  0.00  0.00    +0.000 C 
ATOM     22  C   UNL     1      33.279 -14.192 -23.256  0.00  0.00    +0.000 C 
ENDBRANCH  20  21
ENDBRANCH  19  20
ENDBRANCH  18  19
ENDBRANCH  17  18
ENDBRANCH  16  17
ENDBRANCH  15  16
ENDBRANCH  14  15
ENDBRANCH  13  14
ENDBRANCH   1  13
TORSDOF 14
ENDMDL
MODEL 4
REMARK VINA RESULT:      -7.1      3.810      4.411
REMARK  Name = 94599
REMARK  14 active torsions:
REMARK  status: ('A' for Active; 'I' for Inactive)
REMARK    1  A    between atoms: C_1  and  C_4
REMARK    2  A    between atoms: C_1  and  C_13
REMARK    3  A    between atoms: N_3  and  C_6
REMARK    4  A    between atoms: C_6  and  C_7
REMARK    5  A    between atoms: C_7  and  C_8
REMARK    6  A    between atoms: C_8  and  N_10
REMARK    7  A    between atoms: C_13  and  C_14
REMARK    8  A    between atoms: C_14  and  C_15
REMARK    9  A    between atoms: C_15  and  C_16
REMARK   10  A    between atoms: C_16  and  C_17
REMARK   11  A    between atoms: C_17  and  C_18
REMARK   12  A    between atoms: C_18  and  C_19
REMARK   13  A    between atoms: C_19  and  C_20
REMARK   14  A    between atoms: C_20  and  C_21
REMARK                            x       y       z     vdW  Elec       q    Type
REMARK                         _______ _______ _______ _____ _____    ______ ____
ROOT
ATOM      1  C   UNL     1      34.914 -22.223 -18.805  0.00  0.00    +0.085 C 
ENDROOT
BRANCH   1   4
ATOM      2  O   UNL     1      36.973 -21.419 -17.819  0.00  0.00    -0.275 OA
ATOM      3  N   UNL     1      35.549 -22.745 -16.546  0.00  0.00    -0.304 N 
ATOM      4  C   UNL     1      35.938 -22.069 -17.693  0.00  0.00    +0.222 C 
ATOM      5  H   UNL     1      34.695 -23.235 -16.559  0.00  0.00    +0.149 HD
BRANCH   3   6
ATOM      6  C   UNL     1      36.335 -22.765 -15.334  0.00  0.00    +0.087 C 
BRANCH   6   7
ATOM      7  C   UNL     1      37.484 -23.763 -15.399  0.00  0.00    +0.004 C 
BRANCH   7   8
ATOM      8  C   UNL     1      37.083 -25.141 -14.895  0.00  0.00    -0.026 C 
BRANCH   8  10
ATOM      9  O   UNL     1      38.233 -27.168 -14.646  0.00  0.00    -0.290 OA
ATOM     10  N   UNL     1      38.253 -25.833 -14.305  0.00  0.00    +0.428 N 
ATOM     11  C   UNL     1      38.225 -25.723 -12.800  0.00  0.00    -0.045 C 
ATOM     12  C   UNL     1      39.536 -25.226 -14.816  0.00  0.00    -0.045 C 
ENDBRANCH   8  10
ENDBRANCH   7   8
ENDBRANCH   6   7
ENDBRANCH   3   6
ENDBRANCH   1   4
BRANCH   1  13
ATOM     13  C   UNL     1      34.925 -21.045 -19.776  0.00  0.00    +0.010 C 
BRANCH  13  14
ATOM     14  C   UNL     1      33.505 -20.586 -20.110  0.00  0.00    +0.001 C 
BRANCH  14  15
ATOM     15  C   UNL     1      33.512 -19.476 -21.162  0.00  0.00    +0.000 C 
BRANCH  15  16
ATOM     16  C   UNL     1      34.918 -19.246 -21.720  0.00  0.00    +0.000 C 
BRANCH  16  17
ATOM     17  C   UNL     1      34.900 -19.150 -23.247  0.00  0.00    +0.000 C 
BRANCH  17  18
ATOM     18  C   UNL     1      34.620 -17.736 -23.765  0.00  0.00    +0.000 C 
BRANCH  18  19
ATOM     19  C   UNL     1      35.354 -16.603 -23.040  0.00  0.00    +0.000 C 
BRANCH  19  20
ATOM     20  C   UNL     1      34.432 -15.453 -22.626  0.00  0.00    +0.000 C 
BRANCH  20  21
ATOM     21  C   UNL     1      34.119 -15.442 -21.127  0.00  0.00    +0.000 C 
ATOM     22  C   UNL     1      32.638 -15.596 -20.817  0.00  0.00    +0.000 C 
ENDBRANCH  20  21
ENDBRANCH  19  20
ENDBRANCH  18  19
ENDBRANCH  17  18
ENDBRANCH  16  17
ENDBRANCH  15  16
ENDBRANCH  14  15
ENDBRANCH  13  14
ENDBRANCH   1  13
TORSDOF 14
ENDMDL
MODEL 5
REMARK VINA RESULT:      -7.1      2.509      3.907
REMARK  Name = 94599
REMARK  14 active torsions:
REMARK  status: ('A' for Active; 'I' for Inactive)
REMARK    1  A    between atoms: C_1  and  C_4
REMARK    2  A    between atoms: C_1  and  C_13
REMARK    3  A    between atoms: N_3  and  C_6
REMARK    4  A    between atoms: C_6  and  C_7
REMARK    5  A    between atoms: C_7  and  C_8
REMARK    6  A    between atoms: C_8  and  N_10
REMARK    7  A    between atoms: C_13  and  C_14
REMARK    8  A    between atoms: C_14  and  C_15
REMARK    9  A    between atoms: C_15  and  C_16
REMARK   10  A    between atoms: C_16  and  C_17
REMARK   11  A    between atoms: C_17  and  C_18
REMARK   12  A    between atoms: C_18  and  C_19
REMARK   13  A    between atoms: C_19  and  C_20
REMARK   14  A    between atoms: C_20  and  C_21
REMARK                            x       y       z     vdW  Elec       q    Type
REMARK                         _______ _______ _______ _____ _____    ______ ____
ROOT
ATOM      1  C   UNL     1      37.155 -21.942 -16.607  0.00  0.00    +0.085 C 
ENDROOT
BRANCH   1   4
ATOM      2  O   UNL     1      37.709 -23.015 -14.510  0.00  0.00    -0.275 OA
ATOM      3  N   UNL     1      35.806 -23.691 -15.661  0.00  0.00    -0.304 N 
ATOM      4  C   UNL     1      36.947 -22.927 -15.470  0.00  0.00    +0.222 C 
ATOM      5  H   UNL     1      35.268 -23.534 -16.470  0.00  0.00    +0.149 HD
BRANCH   3   6
ATOM      6  C   UNL     1      35.367 -24.707 -14.731  0.00  0.00    +0.087 C 
BRANCH   6   7
ATOM      7  C   UNL     1      34.172 -24.260 -13.898  0.00  0.00    +0.004 C 
BRANCH   7   8
ATOM      8  C   UNL     1      33.106 -23.574 -14.739  0.00  0.00    -0.026 C 
BRANCH   8  10
ATOM      9  O   UNL     1      31.893 -23.142 -12.781  0.00  0.00    -0.290 OA
ATOM     10  N   UNL     1      31.791 -23.645 -14.059  0.00  0.00    +0.428 N 
ATOM     11  C   UNL     1      31.319 -25.075 -13.975  0.00  0.00    -0.045 C 
ATOM     12  C   UNL     1      30.765 -22.834 -14.813  0.00  0.00    -0.045 C 
ENDBRANCH   8  10
ENDBRANCH   7   8
ENDBRANCH   6   7
ENDBRANCH   3   6
ENDBRANCH   1   4
BRANCH   1  13
ATOM     13  C   UNL     1      36.060 -22.034 -17.667  0.00  0.00    +0.010 C 
BRANCH  13  14
ATOM     14  C   UNL     1      36.458 -21.294 -18.944  0.00  0.00    +0.001 C 
BRANCH  14  15
ATOM     15  C   UNL     1      35.437 -21.521 -20.061  0.00  0.00    +0.000 C 
BRANCH  15  16
ATOM     16  C   UNL     1      34.006 -21.492 -19.521  0.00  0.00    +0.000 C 
BRANCH  16  17
ATOM     17  C   UNL     1      33.197 -20.358 -20.155  0.00  0.00    +0.000 C 
BRANCH  17  18
ATOM     18  C   UNL     1      33.848 -19.774 -21.412  0.00  0.00    +0.000 C 
BRANCH  18  19
ATOM     19  C   UNL     1      34.294 -18.310 -21.312  0.00  0.00    +0.000 C 
BRANCH  19  20
ATOM     20  C   UNL     1      35.494 -17.981 -22.203  0.00  0.00    +0.000 C 
BRANCH  20  21
ATOM     21  C   UNL     1      35.420 -18.642 -23.583  0.00  0.00    +0.000 C 
ATOM     22  C   UNL     1      34.672 -17.811 -24.613  0.00  0.00    +0.000 C 
ENDBRANCH  20  21
ENDBRANCH  19  20
ENDBRANCH  18  19
ENDBRANCH  17  18
ENDBRANCH  16  17
ENDBRANCH  15  16
ENDBRANCH  14  15
ENDBRANCH  13  14
ENDBRANCH   1  13
TORSDOF 14
ENDMDL
MODEL 6
REMARK VINA RESULT:      -7.1      3.373      4.743
REMARK  Name = 94599
REMARK  14 active torsions:
REMARK  status: ('A' for Active; 'I' for Inactive)
REMARK    1  A    between atoms: C_1  and  C_4
REMARK    2  A    between atoms: C_1  and  C_13
REMARK    3  A    between atoms: N_3  and  C_6
REMARK    4  A    between atoms: C_6  and  C_7
REMARK    5  A    between atoms: C_7  and  C_8
REMARK    6  A    between atoms: C_8  and  N_10
REMARK    7  A    between atoms: C_13  and  C_14
REMARK    8  A    between atoms: C_14  and  C_15
REMARK    9  A    between atoms: C_15  and  C_16
REMARK   10  A    between atoms: C_16  and  C_17
REMARK   11  A    between atoms: C_17  and  C_18
REMARK   12  A    between atoms: C_18  and  C_19
REMARK   13  A    between atoms: C_19  and  C_20
REMARK   14  A    between atoms: C_20  and  C_21
REMARK                            x       y       z     vdW  Elec       q    Type
REMARK                         _______ _______ _______ _____ _____    ______ ____
ROOT
ATOM      1  C   UNL     1      33.352 -23.108 -17.961  0.00  0.00    +0.085 C 
ENDROOT
BRANCH   1   4
ATOM      2  O   UNL     1      31.994 -23.367 -15.976  0.00  0.00    -0.275 OA
ATOM      3  N   UNL     1      34.278 -23.778 -15.847  0.00  0.00    -0.304 N 
ATOM      4  C   UNL     1      33.105 -23.424 -16.496  0.00  0.00    +0.222 C 
ATOM      5  H   UNL     1      35.114 -23.790 -16.366  0.00  0.00    +0.149 HD
BRANCH   3   6
ATOM      6  C   UNL     1      34.334 -24.131 -14.447  0.00  0.00    +0.087 C 
BRANCH   6   7
ATOM      7  C   UNL     1      35.746 -24.468 -13.985  0.00  0.00    +0.004 C 
BRANCH   7   8
ATOM      8  C   UNL     1      36.450 -25.429 -14.931  0.00  0.00    -0.026 C 
BRANCH   8  10
ATOM      9  O   UNL     1      37.993 -27.188 -14.789  0.00  0.00    -0.290 OA
ATOM     10  N   UNL     1      37.705 -25.925 -14.319  0.00  0.00    +0.428 N 
ATOM     11  C   UNL     1      37.567 -25.993 -12.818  0.00  0.00    -0.045 C 
ATOM     12  C   UNL     1      38.855 -25.012 -14.664  0.00  0.00    -0.045 C 
ENDBRANCH   8  10
ENDBRANCH   7   8
ENDBRANCH   6   7
ENDBRANCH   3   6
ENDBRANCH   1   4
BRANCH   1  13
ATOM     13  C   UNL     1      34.698 -22.425 -18.192  0.00  0.00    +0.010 C 
BRANCH  13  14
ATOM     14  C   UNL     1      34.665 -21.538 -19.438  0.00  0.00    +0.001 C 
BRANCH  14  15
ATOM     15  C   UNL     1      33.255 -21.008 -19.707  0.00  0.00    +0.000 C 
BRANCH  15  16
ATOM     16  C   UNL     1      33.269 -19.909 -20.771  0.00  0.00    +0.000 C 
BRANCH  16  17
ATOM     17  C   UNL     1      34.690 -19.402 -21.028  0.00  0.00    +0.000 C 
BRANCH  17  18
ATOM     18  C   UNL     1      34.748 -17.923 -21.421  0.00  0.00    +0.000 C 
BRANCH  18  19
ATOM     19  C   UNL     1      35.384 -17.620 -22.782  0.00  0.00    +0.000 C 
BRANCH  19  20
ATOM     20  C   UNL     1      35.102 -18.695 -23.835  0.00  0.00    +0.000 C 
BRANCH  20  21
ATOM     21  C   UNL     1      34.417 -18.146 -25.089  0.00  0.00    +0.000 C 
ATOM     22  C   UNL     1      34.309 -16.629 -25.105  0.00  0.00    +0.000 C 
ENDBRANCH  20  21
ENDBRANCH  19  20
ENDBRANCH  18  19
ENDBRANCH  17  18
ENDBRANCH  16  17
ENDBRANCH  15  16
ENDBRANCH  14  15
ENDBRANCH  13  14
ENDBRANCH   1  13
TORSDOF 14
ENDMDL
MODEL 7
REMARK VINA RESULT:      -7.0      3.217      4.166
REMARK  Name = 94599
REMARK  14 active torsions:
REMARK  status: ('A' for Active; 'I' for Inactive)
REMARK    1  A    between atoms: C_1  and  C_4
REMARK    2  A    between atoms: C_1  and  C_13
REMARK    3  A    between atoms: N_3  and  C_6
REMARK    4  A    between atoms: C_6  and  C_7
REMARK    5  A    between atoms: C_7  and  C_8
REMARK    6  A    between atoms: C_8  and  N_10
REMARK    7  A    between atoms: C_13  and  C_14
REMARK    8  A    between atoms: C_14  and  C_15
REMARK    9  A    between atoms: C_15  and  C_16
REMARK   10  A    between atoms: C_16  and  C_17
REMARK   11  A    between atoms: C_17  and  C_18
REMARK   12  A    between atoms: C_18  and  C_19
REMARK   13  A    between atoms: C_19  and  C_20
REMARK   14  A    between atoms: C_20  and  C_21
REMARK                            x       y       z     vdW  Elec       q    Type
REMARK                         _______ _______ _______ _____ _____    ______ ____
ROOT
ATOM      1  C   UNL     1      33.730 -22.622 -18.704  0.00  0.00    +0.085 C 
ENDROOT
BRANCH   1   4
ATOM      2  O   UNL     1      35.836 -22.339 -17.547  0.00  0.00    -0.275 OA
ATOM      3  N   UNL     1      34.005 -23.170 -16.380  0.00  0.00    -0.304 N 
ATOM      4  C   UNL     1      34.658 -22.684 -17.504  0.00  0.00    +0.222 C 
ATOM      5  H   UNL     1      33.056 -23.416 -16.462  0.00  0.00    +0.149 HD
BRANCH   3   6
ATOM      6  C   UNL     1      34.650 -23.332 -15.098  0.00  0.00    +0.087 C 
BRANCH   6   7
ATOM      7  C   UNL     1      35.477 -24.609 -15.017  0.00  0.00    +0.004 C 
BRANCH   7   8
ATOM      8  C   UNL     1      36.971 -24.328 -14.969  0.00  0.00    -0.026 C 
BRANCH   8  10
ATOM      9  O   UNL     1      38.811 -24.614 -13.545  0.00  0.00    -0.290 OA
ATOM     10  N   UNL     1      37.623 -25.183 -13.949  0.00  0.00    +0.428 N 
ATOM     11  C   UNL     1      37.915 -26.550 -14.518  0.00  0.00    -0.045 C 
ATOM     12  C   UNL     1      36.730 -25.336 -12.743  0.00  0.00    -0.045 C 
ENDBRANCH   8  10
ENDBRANCH   7   8
ENDBRANCH   6   7
ENDBRANCH   3   6
ENDBRANCH   1   4
BRANCH   1  13
ATOM     13  C   UNL     1      34.160 -21.566 -19.720  0.00  0.00    +0.010 C 
BRANCH  13  14
ATOM     14  C   UNL     1      33.048 -20.545 -19.966  0.00  0.00    +0.001 C 
BRANCH  14  15
ATOM     15  C   UNL     1      33.482 -19.481 -20.975  0.00  0.00    +0.000 C 
BRANCH  15  16
ATOM     16  C   UNL     1      34.966 -19.616 -21.323  0.00  0.00    +0.000 C 
BRANCH  16  17
ATOM     17  C   UNL     1      35.668 -18.257 -21.295  0.00  0.00    +0.000 C 
BRANCH  17  18
ATOM     18  C   UNL     1      34.710 -17.080 -21.090  0.00  0.00    +0.000 C 
BRANCH  18  19
ATOM     19  C   UNL     1      34.330 -16.302 -22.355  0.00  0.00    +0.000 C 
BRANCH  19  20
ATOM     20  C   UNL     1      35.277 -16.558 -23.530  0.00  0.00    +0.000 C 
BRANCH  20  21
ATOM     21  C   UNL     1      34.555 -17.038 -24.793  0.00  0.00    +0.000 C 
ATOM     22  C   UNL     1      34.412 -18.550 -24.870  0.00  0.00    +0.000 C 
ENDBRANCH  20  21
ENDBRANCH  19  20
ENDBRANCH  18  19
ENDBRANCH  17  18
ENDBRANCH  16  17
ENDBRANCH  15  16
ENDBRANCH  14  15
ENDBRANCH  13  14
ENDBRANCH   1  13
TORSDOF 14
ENDMDL
MODEL 8
REMARK VINA RESULT:      -7.0      7.682     12.243
REMARK  Name = 94599
REMARK  14 active torsions:
REMARK  status: ('A' for Active; 'I' for Inactive)
REMARK    1  A    between atoms: C_1  and  C_4
REMARK    2  A    between atoms: C_1  and  C_13
REMARK    3  A    between atoms: N_3  and  C_6
REMARK    4  A    between atoms: C_6  and  C_7
REMARK    5  A    between atoms: C_7  and  C_8
REMARK    6  A    between atoms: C_8  and  N_10
REMARK    7  A    between atoms: C_13  and  C_14
REMARK    8  A    between atoms: C_14  and  C_15
REMARK    9  A    between atoms: C_15  and  C_16
REMARK   10  A    between atoms: C_16  and  C_17
REMARK   11  A    between atoms: C_17  and  C_18
REMARK   12  A    between atoms: C_18  and  C_19
REMARK   13  A    between atoms: C_19  and  C_20
REMARK   14  A    between atoms: C_20  and  C_21
REMARK                            x       y       z     vdW  Elec       q    Type
REMARK                         _______ _______ _______ _____ _____    ______ ____
ROOT
ATOM      1  C   UNL     1      33.316 -12.691 -23.738  0.00  0.00    +0.085 C 
ENDROOT
BRANCH   1   4
ATOM      2  O   UNL     1      34.030 -11.630 -25.792  0.00  0.00    -0.275 OA
ATOM      3  N   UNL     1      34.272 -10.486 -23.783  0.00  0.00    -0.304 N 
ATOM      4  C   UNL     1      33.906 -11.567 -24.572  0.00  0.00    +0.222 C 
ATOM      5  H   UNL     1      34.125 -10.545 -22.812  0.00  0.00    +0.149 HD
BRANCH   3   6
ATOM      6  C   UNL     1      34.857  -9.278 -24.317  0.00  0.00    +0.087 C 
BRANCH   6   7
ATOM      7  C   UNL     1      34.582  -8.060 -23.444  0.00  0.00    +0.004 C 
BRANCH   7   8
ATOM      8  C   UNL     1      33.302  -7.341 -23.843  0.00  0.00    -0.026 C 
BRANCH   8  10
ATOM      9  O   UNL     1      31.578  -8.879 -23.448  0.00  0.00    -0.290 OA
ATOM     10  N   UNL     1      32.187  -7.747 -22.954  0.00  0.00    +0.428 N 
ATOM     11  C   UNL     1      31.157  -6.647 -22.868  0.00  0.00    -0.045 C 
ATOM     12  C   UNL     1      32.702  -8.045 -21.568  0.00  0.00    -0.045 C 
ENDBRANCH   8  10
ENDBRANCH   7   8
ENDBRANCH   6   7
ENDBRANCH   3   6
ENDBRANCH   1   4
BRANCH   1  13
ATOM     13  C   UNL     1      32.372 -12.179 -22.653  0.00  0.00    +0.010 C 
BRANCH  13  14
ATOM     14  C   UNL     1      32.132 -13.241 -21.579  0.00  0.00    +0.001 C 
BRANCH  14  15
ATOM     15  C   UNL     1      32.884 -14.534 -21.896  0.00  0.00    +0.000 C 
BRANCH  15  16
ATOM     16  C   UNL     1      33.377 -15.218 -20.619  0.00  0.00    +0.000 C 
BRANCH  16  17
ATOM     17  C   UNL     1      34.679 -15.984 -20.867  0.00  0.00    +0.000 C 
BRANCH  17  18
ATOM     18  C   UNL     1      34.753 -16.626 -22.255  0.00  0.00    +0.000 C 
BRANCH  18  19
ATOM     19  C   UNL     1      35.495 -17.965 -22.332  0.00  0.00    +0.000 C 
BRANCH  19  20
ATOM     20  C   UNL     1      34.562 -19.178 -22.290  0.00  0.00    +0.000 C 
BRANCH  20  21
ATOM     21  C   UNL     1      34.297 -19.686 -20.870  0.00  0.00    +0.000 C 
ATOM     22  C   UNL     1      32.824 -19.929 -20.580  0.00  0.00    +0.000 C 
ENDBRANCH  20  21
ENDBRANCH  19  20
ENDBRANCH  18  19
ENDBRANCH  17  18
ENDBRANCH  16  17
ENDBRANCH  15  16
ENDBRANCH  14  15
ENDBRANCH  13  14
ENDBRANCH   1  13
TORSDOF 14
ENDMDL
MODEL 9
REMARK VINA RESULT:      -7.0      3.063      3.519
REMARK  Name = 94599
REMARK  14 active torsions:
REMARK  status: ('A' for Active; 'I' for Inactive)
REMARK    1  A    between atoms: C_1  and  C_4
REMARK    2  A    between atoms: C_1  and  C_13
REMARK    3  A    between atoms: N_3  and  C_6
REMARK    4  A    between atoms: C_6  and  C_7
REMARK    5  A    between atoms: C_7  and  C_8
REMARK    6  A    between atoms: C_8  and  N_10
REMARK    7  A    between atoms: C_13  and  C_14
REMARK    8  A    between atoms: C_14  and  C_15
REMARK    9  A    between atoms: C_15  and  C_16
REMARK   10  A    between atoms: C_16  and  C_17
REMARK   11  A    between atoms: C_17  and  C_18
REMARK   12  A    between atoms: C_18  and  C_19
REMARK   13  A    between atoms: C_19  and  C_20
REMARK   14  A    between atoms: C_20  and  C_21
REMARK                            x       y       z     vdW  Elec       q    Type
REMARK                         _______ _______ _______ _____ _____    ______ ____
ROOT
ATOM      1  C   UNL     1      34.619 -21.647 -19.517  0.00  0.00    +0.085 C 
ENDROOT
BRANCH   1   4
ATOM      2  O   UNL     1      33.671 -23.734 -18.742  0.00  0.00    -0.275 OA
ATOM      3  N   UNL     1      34.908 -22.434 -17.264  0.00  0.00    -0.304 N 
ATOM      4  C   UNL     1      34.332 -22.730 -18.491  0.00  0.00    +0.222 C 
ATOM      5  H   UNL     1      35.418 -21.597 -17.177  0.00  0.00    +0.149 HD
BRANCH   3   6
ATOM      6  C   UNL     1      34.795 -23.293 -16.108  0.00  0.00    +0.087 C 
BRANCH   6   7
ATOM      7  C   UNL     1      35.883 -23.029 -15.075  0.00  0.00    +0.004 C 
BRANCH   7   8
ATOM      8  C   UNL     1      36.994 -24.068 -15.128  0.00  0.00    -0.026 C 
BRANCH   8  10
ATOM      9  O   UNL     1      38.745 -24.313 -13.590  0.00  0.00    -0.290 OA
ATOM     10  N   UNL     1      37.387 -24.470 -13.758  0.00  0.00    +0.428 N 
ATOM     11  C   UNL     1      37.038 -25.918 -13.514  0.00  0.00    -0.045 C 
ATOM     12  C   UNL     1      36.676 -23.617 -12.735  0.00  0.00    -0.045 C 
ENDBRANCH   8  10
ENDBRANCH   7   8
ENDBRANCH   6   7
ENDBRANCH   3   6
ENDBRANCH   1   4
BRANCH   1  13
ATOM     13  C   UNL     1      33.364 -20.880 -19.923  0.00  0.00    +0.010 C 
BRANCH  13  14
ATOM     14  C   UNL     1      33.703 -19.700 -20.835  0.00  0.00    +0.001 C 
BRANCH  14  15
ATOM     15  C   UNL     1      35.172 -19.730 -21.262  0.00  0.00    +0.000 C 
BRANCH  15  16
ATOM     16  C   UNL     1      35.464 -18.670 -22.325  0.00  0.00    +0.000 C 
BRANCH  16  17
ATOM     17  C   UNL     1      34.761 -18.998 -23.644  0.00  0.00    +0.000 C 
BRANCH  17  18
ATOM     18  C   UNL     1      34.552 -17.777 -24.544  0.00  0.00    +0.000 C 
BRANCH  18  19
ATOM     19  C   UNL     1      35.063 -16.444 -23.987  0.00  0.00    +0.000 C 
BRANCH  19  20
ATOM     20  C   UNL     1      33.943 -15.523 -23.498  0.00  0.00    +0.000 C 
BRANCH  20  21
ATOM     21  C   UNL     1      34.367 -14.624 -22.333  0.00  0.00    +0.000 C 
ATOM     22  C   UNL     1      34.484 -15.364 -21.009  0.00  0.00    +0.000 C 
ENDBRANCH  20  21
ENDBRANCH  19  20
ENDBRANCH  18  19
ENDBRANCH  17  18
ENDBRANCH  16  17
ENDBRANCH  15  16
ENDBRANCH  14  15
ENDBRANCH  13  14
ENDBRANCH   1  13
TORSDOF 14
ENDMDL
