MODEL 1
REMARK VINA RESULT:      -7.1      0.000      0.000
REMARK  Name = 656959
REMARK  9 active torsions:
REMARK  status: ('A' for Active; 'I' for Inactive)
REMARK    1  A    between atoms: C_2  and  O_7
REMARK    2  A    between atoms: C_3  and  O_9
REMARK    3  A    between atoms: C_4  and  O_11
REMARK    4  A    between atoms: C_5  and  C_21
REMARK    5  A    between atoms: C_6  and  N_13
REMARK    6  A    between atoms: N_13  and  P_15
REMARK    7  A    between atoms: P_15  and  O_17
REMARK    8  A    between atoms: P_15  and  O_19
REMARK    9  A    between atoms: C_21  and  O_22
REMARK                            x       y       z     vdW  Elec       q    Type
REMARK                         _______ _______ _______ _____ _____    ______ ____
ROOT
ATOM      1  O   UNL     1      32.700 -24.450 -13.240  0.00  0.00    -0.335 OA
ATOM      2  C   UNL     1      33.786 -23.442 -15.694  0.00  0.00    +0.170 C 
ATOM      3  C   UNL     1      32.284 -23.648 -15.492  0.00  0.00    +0.169 C 
ATOM      4  C   UNL     1      34.606 -24.315 -14.742  0.00  0.00    +0.183 C 
ATOM      5  C   UNL     1      31.919 -23.532 -14.008  0.00  0.00    +0.175 C 
ATOM      6  C   UNL     1      34.101 -24.174 -13.300  0.00  0.00    +0.211 C 
ENDROOT
BRANCH   2   7
ATOM      7  O   UNL     1      34.131 -23.765 -17.042  0.00  0.00    -0.379 OA
ATOM      8  H   UNL     1      33.558 -24.480 -17.360  0.00  0.00    +0.211 HD
ENDBRANCH   2   7
BRANCH   3   9
ATOM      9  O   UNL     1      31.595 -22.660 -16.253  0.00  0.00    -0.379 OA
ATOM     10  H   UNL     1      31.976 -21.786 -16.069  0.00  0.00    +0.211 HD
ENDBRANCH   3   9
BRANCH   4  11
ATOM     11  O   UNL     1      35.972 -23.905 -14.803  0.00  0.00    -0.378 OA
ATOM     12  H   UNL     1      36.211 -23.713 -15.723  0.00  0.00    +0.211 HD
ENDBRANCH   4  11
BRANCH   6  13
ATOM     13  N   UNL     1      34.835 -25.080 -12.414  0.00  0.00    -0.187 NA
ATOM     14  H   UNL     1      34.143 -25.601 -11.878  0.00  0.00    +0.137 HD
BRANCH  13  15
ATOM     15  P   UNL     1      35.906 -24.434 -11.332  0.00  0.00    +0.412 P 
ATOM     16  O   UNL     1      35.462 -24.389  -9.892  0.00  0.00    -0.240 OA
BRANCH  15  17
ATOM     17  O   UNL     1      36.330 -22.957 -11.866  0.00  0.00    -0.280 OA
ATOM     18  C   UNL     1      37.697 -22.593 -11.963  0.00  0.00    +0.185 C 
ENDBRANCH  15  17
BRANCH  15  19
ATOM     19  O   UNL     1      37.284 -25.282 -11.515  0.00  0.00    -0.280 OA
ATOM     20  C   UNL     1      37.383 -26.199 -12.591  0.00  0.00    +0.185 C 
ENDBRANCH  15  19
ENDBRANCH  13  15
ENDBRANCH   6  13
BRANCH   5  21
ATOM     21  C   UNL     1      30.453 -23.859 -13.747  0.00  0.00    +0.169 C 
BRANCH  21  22
ATOM     22  O   UNL     1      30.385 -24.864 -12.752  0.00  0.00    -0.379 OA
ATOM     23  H   UNL     1      31.088 -25.516 -12.901  0.00  0.00    +0.211 HD
ENDBRANCH  21  22
ENDBRANCH   5  21
TORSDOF 9
ENDMDL
MODEL 2
REMARK VINA RESULT:      -6.9      2.332      3.929
REMARK  Name = 656959
REMARK  9 active torsions:
REMARK  status: ('A' for Active; 'I' for Inactive)
REMARK    1  A    between atoms: C_2  and  O_7
REMARK    2  A    between atoms: C_3  and  O_9
REMARK    3  A    between atoms: C_4  and  O_11
REMARK    4  A    between atoms: C_5  and  C_21
REMARK    5  A    between atoms: C_6  and  N_13
REMARK    6  A    between atoms: N_13  and  P_15
REMARK    7  A    between atoms: P_15  and  O_17
REMARK    8  A    between atoms: P_15  and  O_19
REMARK    9  A    between atoms: C_21  and  O_22
REMARK                            x       y       z     vdW  Elec       q    Type
REMARK                         _______ _______ _______ _____ _____    ______ ____
ROOT
ATOM      1  O   UNL     1      34.944 -23.758 -16.420  0.00  0.00    -0.335 OA
ATOM      2  C   UNL     1      33.047 -23.772 -14.271  0.00  0.00    +0.170 C 
ATOM      3  C   UNL     1      32.807 -22.991 -15.564  0.00  0.00    +0.169 C 
ATOM      4  C   UNL     1      34.538 -24.031 -14.039  0.00  0.00    +0.183 C 
ATOM      5  C   UNL     1      33.554 -23.642 -16.733  0.00  0.00    +0.175 C 
ATOM      6  C   UNL     1      35.193 -24.610 -15.300  0.00  0.00    +0.211 C 
ENDROOT
BRANCH   2   7
ATOM      7  O   UNL     1      32.522 -23.032 -13.167  0.00  0.00    -0.379 OA
ATOM      8  H   UNL     1      31.800 -23.533 -12.756  0.00  0.00    +0.211 HD
ENDBRANCH   2   7
BRANCH   3   9
ATOM      9  O   UNL     1      31.405 -22.974 -15.818  0.00  0.00    -0.379 OA
ATOM     10  H   UNL     1      30.932 -22.735 -15.005  0.00  0.00    +0.211 HD
ENDBRANCH   3   9
BRANCH   4  11
ATOM     11  O   UNL     1      34.681 -24.961 -12.966  0.00  0.00    -0.378 OA
ATOM     12  H   UNL     1      35.452 -25.526 -13.129  0.00  0.00    +0.211 HD
ENDBRANCH   4  11
BRANCH   6  13
ATOM     13  N   UNL     1      36.633 -24.771 -15.095  0.00  0.00    -0.187 NA
ATOM     14  H   UNL     1      37.101 -24.307 -15.872  0.00  0.00    +0.137 HD
BRANCH  13  15
ATOM     15  P   UNL     1      37.254 -26.301 -14.996  0.00  0.00    +0.412 P 
ATOM     16  O   UNL     1      36.751 -27.297 -16.009  0.00  0.00    -0.240 OA
BRANCH  15  17
ATOM     17  O   UNL     1      37.027 -26.837 -13.477  0.00  0.00    -0.280 OA
ATOM     18  C   UNL     1      37.606 -26.152 -12.378  0.00  0.00    +0.185 C 
ENDBRANCH  15  17
BRANCH  15  19
ATOM     19  O   UNL     1      38.871 -26.127 -15.068  0.00  0.00    -0.280 OA
ATOM     20  C   UNL     1      39.413 -24.821 -15.165  0.00  0.00    +0.185 C 
ENDBRANCH  15  19
ENDBRANCH  13  15
ENDBRANCH   6  13
BRANCH   5  21
ATOM     21  C   UNL     1      33.448 -22.823 -18.014  0.00  0.00    +0.169 C 
BRANCH  21  22
ATOM     22  O   UNL     1      33.820 -23.643 -19.107  0.00  0.00    -0.379 OA
ATOM     23  H   UNL     1      33.773 -24.575 -18.843  0.00  0.00    +0.211 HD
ENDBRANCH  21  22
ENDBRANCH   5  21
TORSDOF 9
ENDMDL
MODEL 3
REMARK VINA RESULT:      -6.7      2.695      4.463
REMARK  Name = 656959
REMARK  9 active torsions:
REMARK  status: ('A' for Active; 'I' for Inactive)
REMARK    1  A    between atoms: C_2  and  O_7
REMARK    2  A    between atoms: C_3  and  O_9
REMARK    3  A    between atoms: C_4  and  O_11
REMARK    4  A    between atoms: C_5  and  C_21
REMARK    5  A    between atoms: C_6  and  N_13
REMARK    6  A    between atoms: N_13  and  P_15
REMARK    7  A    between atoms: P_15  and  O_17
REMARK    8  A    between atoms: P_15  and  O_19
REMARK    9  A    between atoms: C_21  and  O_22
REMARK                            x       y       z     vdW  Elec       q    Type
REMARK                         _______ _______ _______ _____ _____    ______ ____
ROOT
ATOM      1  O   UNL     1      31.358 -22.888 -15.768  0.00  0.00    -0.335 OA
ATOM      2  C   UNL     1      30.809 -24.792 -13.695  0.00  0.00    +0.170 C 
ATOM      3  C   UNL     1      29.694 -24.076 -14.459  0.00  0.00    +0.169 C 
ATOM      4  C   UNL     1      32.122 -24.006 -13.749  0.00  0.00    +0.183 C 
ATOM      5  C   UNL     1      30.171 -23.679 -15.861  0.00  0.00    +0.175 C 
ATOM      6  C   UNL     1      32.455 -23.599 -15.191  0.00  0.00    +0.211 C 
ENDROOT
BRANCH   2   7
ATOM      7  O   UNL     1      30.417 -24.958 -12.332  0.00  0.00    -0.379 OA
ATOM      8  H   UNL     1      29.703 -24.336 -12.122  0.00  0.00    +0.211 HD
ENDBRANCH   2   7
BRANCH   3   9
ATOM      9  O   UNL     1      28.578 -24.958 -14.544  0.00  0.00    -0.379 OA
ATOM     10  H   UNL     1      28.825 -25.827 -14.188  0.00  0.00    +0.211 HD
ENDBRANCH   3   9
BRANCH   4  11
ATOM     11  O   UNL     1      33.171 -24.828 -13.239  0.00  0.00    -0.378 OA
ATOM     12  H   UNL     1      33.511 -24.444 -12.416  0.00  0.00    +0.211 HD
ENDBRANCH   4  11
BRANCH   6  13
ATOM     13  N   UNL     1      33.664 -22.774 -15.218  0.00  0.00    -0.187 NA
ATOM     14  H   UNL     1      33.389 -21.847 -15.541  0.00  0.00    +0.137 HD
BRANCH  13  15
ATOM     15  P   UNL     1      34.934 -23.261 -16.158  0.00  0.00    +0.412 P 
ATOM     16  O   UNL     1      36.136 -22.351 -16.189  0.00  0.00    -0.240 OA
BRANCH  15  17
ATOM     17  O   UNL     1      34.369 -23.544 -17.657  0.00  0.00    -0.280 OA
ATOM     18  C   UNL     1      33.795 -22.494 -18.419  0.00  0.00    +0.185 C 
ENDBRANCH  15  17
BRANCH  15  19
ATOM     19  O   UNL     1      35.320 -24.755 -15.641  0.00  0.00    -0.280 OA
ATOM     20  C   UNL     1      36.530 -24.940 -14.927  0.00  0.00    +0.185 C 
ENDBRANCH  15  19
ENDBRANCH  13  15
ENDBRANCH   6  13
BRANCH   5  21
ATOM     21  C   UNL     1      29.133 -22.849 -16.609  0.00  0.00    +0.169 C 
BRANCH  21  22
ATOM     22  O   UNL     1      28.379 -22.111 -15.665  0.00  0.00    -0.379 OA
ATOM     23  H   UNL     1      27.457 -22.411 -15.682  0.00  0.00    +0.211 HD
ENDBRANCH  21  22
ENDBRANCH   5  21
TORSDOF 9
ENDMDL
MODEL 4
REMARK VINA RESULT:      -6.6      2.862      5.510
REMARK  Name = 656959
REMARK  9 active torsions:
REMARK  status: ('A' for Active; 'I' for Inactive)
REMARK    1  A    between atoms: C_2  and  O_7
REMARK    2  A    between atoms: C_3  and  O_9
REMARK    3  A    between atoms: C_4  and  O_11
REMARK    4  A    between atoms: C_5  and  C_21
REMARK    5  A    between atoms: C_6  and  N_13
REMARK    6  A    between atoms: N_13  and  P_15
REMARK    7  A    between atoms: P_15  and  O_17
REMARK    8  A    between atoms: P_15  and  O_19
REMARK    9  A    between atoms: C_21  and  O_22
REMARK                            x       y       z     vdW  Elec       q    Type
REMARK                         _______ _______ _______ _____ _____    ______ ____
ROOT
ATOM      1  O   UNL     1      35.677 -24.339 -13.441  0.00  0.00    -0.335 OA
ATOM      2  C   UNL     1      38.362 -25.346 -13.435  0.00  0.00    +0.170 C 
ATOM      3  C   UNL     1      37.812 -24.487 -12.295  0.00  0.00    +0.169 C 
ATOM      4  C   UNL     1      37.580 -25.126 -14.733  0.00  0.00    +0.183 C 
ATOM      5  C   UNL     1      36.292 -24.645 -12.187  0.00  0.00    +0.175 C 
ATOM      6  C   UNL     1      36.069 -25.233 -14.485  0.00  0.00    +0.211 C 
ENDROOT
BRANCH   2   7
ATOM      7  O   UNL     1      39.735 -25.019 -13.654  0.00  0.00    -0.379 OA
ATOM      8  H   UNL     1      40.166 -25.742 -14.136  0.00  0.00    +0.211 HD
ENDBRANCH   2   7
BRANCH   3   9
ATOM      9  O   UNL     1      38.443 -24.898 -11.086  0.00  0.00    -0.379 OA
ATOM     10  H   UNL     1      39.405 -24.797 -11.173  0.00  0.00    +0.211 HD
ENDBRANCH   3   9
BRANCH   4  11
ATOM     11  O   UNL     1      37.972 -26.119 -15.680  0.00  0.00    -0.378 OA
ATOM     12  H   UNL     1      37.191 -26.615 -15.970  0.00  0.00    +0.211 HD
ENDBRANCH   4  11
BRANCH   6  13
ATOM     13  N   UNL     1      35.331 -24.934 -15.713  0.00  0.00    -0.187 NA
ATOM     14  H   UNL     1      35.965 -25.103 -16.493  0.00  0.00    +0.137 HD
BRANCH  13  15
ATOM     15  P   UNL     1      34.707 -23.415 -15.912  0.00  0.00    +0.412 P 
ATOM     16  O   UNL     1      33.469 -23.087 -15.117  0.00  0.00    -0.240 OA
BRANCH  15  17
ATOM     17  O   UNL     1      34.467 -23.177 -17.504  0.00  0.00    -0.280 OA
ATOM     18  C   UNL     1      33.197 -22.774 -17.987  0.00  0.00    +0.185 C 
ENDBRANCH  15  17
BRANCH  15  19
ATOM     19  O   UNL     1      35.928 -22.390 -15.584  0.00  0.00    -0.280 OA
ATOM     20  C   UNL     1      36.850 -22.075 -16.614  0.00  0.00    +0.185 C 
ENDBRANCH  15  19
ENDBRANCH  13  15
ENDBRANCH   6  13
BRANCH   5  21
ATOM     21  C   UNL     1      35.686 -23.707 -11.148  0.00  0.00    +0.169 C 
BRANCH  21  22
ATOM     22  O   UNL     1      35.990 -24.206  -9.858  0.00  0.00    -0.379 OA
ATOM     23  H   UNL     1      35.318 -24.853  -9.594  0.00  0.00    +0.211 HD
ENDBRANCH  21  22
ENDBRANCH   5  21
TORSDOF 9
ENDMDL
MODEL 5
REMARK VINA RESULT:      -6.6     10.520     12.440
REMARK  Name = 656959
REMARK  9 active torsions:
REMARK  status: ('A' for Active; 'I' for Inactive)
REMARK    1  A    between atoms: C_2  and  O_7
REMARK    2  A    between atoms: C_3  and  O_9
REMARK    3  A    between atoms: C_4  and  O_11
REMARK    4  A    between atoms: C_5  and  C_21
REMARK    5  A    between atoms: C_6  and  N_13
REMARK    6  A    between atoms: N_13  and  P_15
REMARK    7  A    between atoms: P_15  and  O_17
REMARK    8  A    between atoms: P_15  and  O_19
REMARK    9  A    between atoms: C_21  and  O_22
REMARK                            x       y       z     vdW  Elec       q    Type
REMARK                         _______ _______ _______ _____ _____    ______ ____
ROOT
ATOM      1  O   UNL     1      33.840 -16.043 -22.714  0.00  0.00    -0.335 OA
ATOM      2  C   UNL     1      33.975 -15.364 -25.496  0.00  0.00    +0.170 C 
ATOM      3  C   UNL     1      33.255 -14.480 -24.476  0.00  0.00    +0.169 C 
ATOM      4  C   UNL     1      34.086 -16.810 -25.006  0.00  0.00    +0.183 C 
ATOM      5  C   UNL     1      33.864 -14.661 -23.081  0.00  0.00    +0.175 C 
ATOM      6  C   UNL     1      34.634 -16.861 -23.574  0.00  0.00    +0.211 C 
ENDROOT
BRANCH   2   7
ATOM      7  O   UNL     1      33.258 -15.341 -26.731  0.00  0.00    -0.379 OA
ATOM      8  H   UNL     1      32.859 -14.466 -26.857  0.00  0.00    +0.211 HD
ENDBRANCH   2   7
BRANCH   3   9
ATOM      9  O   UNL     1      33.377 -13.125 -24.900  0.00  0.00    -0.379 OA
ATOM     10  H   UNL     1      34.315 -12.877 -24.922  0.00  0.00    +0.211 HD
ENDBRANCH   3   9
BRANCH   4  11
ATOM     11  O   UNL     1      34.969 -17.522 -25.872  0.00  0.00    -0.378 OA
ATOM     12  H   UNL     1      34.476 -17.846 -26.642  0.00  0.00    +0.211 HD
ENDBRANCH   4  11
BRANCH   6  13
ATOM     13  N   UNL     1      34.653 -18.241 -23.087  0.00  0.00    -0.187 NA
ATOM     14  H   UNL     1      33.788 -18.681 -23.398  0.00  0.00    +0.137 HD
BRANCH  13  15
ATOM     15  P   UNL     1      34.777 -18.505 -21.459  0.00  0.00    +0.412 P 
ATOM     16  O   UNL     1      35.457 -17.428 -20.652  0.00  0.00    -0.240 OA
BRANCH  15  17
ATOM     17  O   UNL     1      35.492 -19.950 -21.238  0.00  0.00    -0.280 OA
ATOM     18  C   UNL     1      36.564 -20.088 -20.321  0.00  0.00    +0.185 C 
ENDBRANCH  15  17
BRANCH  15  19
ATOM     19  O   UNL     1      33.259 -18.783 -20.940  0.00  0.00    -0.280 OA
ATOM     20  C   UNL     1      32.893 -20.102 -20.572  0.00  0.00    +0.185 C 
ENDBRANCH  15  19
ENDBRANCH  13  15
ENDBRANCH   6  13
BRANCH   5  21
ATOM     21  C   UNL     1      33.093 -13.896 -22.011  0.00  0.00    +0.169 C 
BRANCH  21  22
ATOM     22  O   UNL     1      31.893 -13.407 -22.582  0.00  0.00    -0.379 OA
ATOM     23  H   UNL     1      31.448 -12.822 -21.949  0.00  0.00    +0.211 HD
ENDBRANCH  21  22
ENDBRANCH   5  21
TORSDOF 9
ENDMDL
MODEL 6
REMARK VINA RESULT:      -6.6      1.921      3.185
REMARK  Name = 656959
REMARK  9 active torsions:
REMARK  status: ('A' for Active; 'I' for Inactive)
REMARK    1  A    between atoms: C_2  and  O_7
REMARK    2  A    between atoms: C_3  and  O_9
REMARK    3  A    between atoms: C_4  and  O_11
REMARK    4  A    between atoms: C_5  and  C_21
REMARK    5  A    between atoms: C_6  and  N_13
REMARK    6  A    between atoms: N_13  and  P_15
REMARK    7  A    between atoms: P_15  and  O_17
REMARK    8  A    between atoms: P_15  and  O_19
REMARK    9  A    between atoms: C_21  and  O_22
REMARK                            x       y       z     vdW  Elec       q    Type
REMARK                         _______ _______ _______ _____ _____    ______ ____
ROOT
ATOM      1  O   UNL     1      33.927 -22.980 -15.581  0.00  0.00    -0.335 OA
ATOM      2  C   UNL     1      32.258 -24.659 -13.965  0.00  0.00    +0.170 C 
ATOM      3  C   UNL     1      31.726 -23.926 -15.198  0.00  0.00    +0.169 C 
ATOM      4  C   UNL     1      33.512 -23.982 -13.407  0.00  0.00    +0.183 C 
ATOM      5  C   UNL     1      32.852 -23.683 -16.208  0.00  0.00    +0.175 C 
ATOM      6  C   UNL     1      34.534 -23.721 -14.521  0.00  0.00    +0.211 C 
ENDROOT
BRANCH   2   7
ATOM      7  O   UNL     1      31.248 -24.682 -12.955  0.00  0.00    -0.379 OA
ATOM      8  H   UNL     1      31.213 -25.564 -12.554  0.00  0.00    +0.211 HD
ENDBRANCH   2   7
BRANCH   3   9
ATOM      9  O   UNL     1      30.699 -24.724 -15.779  0.00  0.00    -0.379 OA
ATOM     10  H   UNL     1      30.654 -24.549 -16.733  0.00  0.00    +0.211 HD
ENDBRANCH   3   9
BRANCH   4  11
ATOM     11  O   UNL     1      34.097 -24.837 -12.425  0.00  0.00    -0.378 OA
ATOM     12  H   UNL     1      33.576 -24.793 -11.607  0.00  0.00    +0.211 HD
ENDBRANCH   4  11
BRANCH   6  13
ATOM     13  N   UNL     1      35.689 -22.996 -13.990  0.00  0.00    -0.187 NA
ATOM     14  H   UNL     1      35.823 -22.174 -14.577  0.00  0.00    +0.137 HD
BRANCH  13  15
ATOM     15  P   UNL     1      37.145 -23.777 -13.906  0.00  0.00    +0.412 P 
ATOM     16  O   UNL     1      37.994 -23.488 -12.694  0.00  0.00    -0.240 OA
BRANCH  15  17
ATOM     17  O   UNL     1      37.957 -23.474 -15.282  0.00  0.00    -0.280 OA
ATOM     18  C   UNL     1      37.524 -22.450 -16.163  0.00  0.00    +0.185 C 
ENDBRANCH  15  17
BRANCH  15  19
ATOM     19  O   UNL     1      36.803 -25.363 -14.042  0.00  0.00    -0.280 OA
ATOM     20  C   UNL     1      37.284 -26.252 -13.048  0.00  0.00    +0.185 C 
ENDBRANCH  15  19
ENDBRANCH  13  15
ENDBRANCH   6  13
BRANCH   5  21
ATOM     21  C   UNL     1      32.392 -22.841 -17.393  0.00  0.00    +0.169 C 
BRANCH  21  22
ATOM     22  O   UNL     1      31.057 -22.430 -17.164  0.00  0.00    -0.379 OA
ATOM     23  H   UNL     1      30.778 -22.714 -16.280  0.00  0.00    +0.211 HD
ENDBRANCH  21  22
ENDBRANCH   5  21
TORSDOF 9
ENDMDL
MODEL 7
REMARK VINA RESULT:      -6.5      1.838      3.432
REMARK  Name = 656959
REMARK  9 active torsions:
REMARK  status: ('A' for Active; 'I' for Inactive)
REMARK    1  A    between atoms: C_2  and  O_7
REMARK    2  A    between atoms: C_3  and  O_9
REMARK    3  A    between atoms: C_4  and  O_11
REMARK    4  A    between atoms: C_5  and  C_21
REMARK    5  A    between atoms: C_6  and  N_13
REMARK    6  A    between atoms: N_13  and  P_15
REMARK    7  A    between atoms: P_15  and  O_17
REMARK    8  A    between atoms: P_15  and  O_19
REMARK    9  A    between atoms: C_21  and  O_22
REMARK                            x       y       z     vdW  Elec       q    Type
REMARK                         _______ _______ _______ _____ _____    ______ ____
ROOT
ATOM      1  O   UNL     1      33.236 -22.951 -15.647  0.00  0.00    -0.335 OA
ATOM      2  C   UNL     1      31.728 -24.746 -13.998  0.00  0.00    +0.170 C 
ATOM      3  C   UNL     1      31.080 -23.934 -15.120  0.00  0.00    +0.169 C 
ATOM      4  C   UNL     1      33.031 -24.102 -13.517  0.00  0.00    +0.183 C 
ATOM      5  C   UNL     1      32.105 -23.616 -16.215  0.00  0.00    +0.175 C 
ATOM      6  C   UNL     1      33.941 -23.759 -14.704  0.00  0.00    +0.211 C 
ENDROOT
BRANCH   2   7
ATOM      7  O   UNL     1      30.819 -24.844 -12.900  0.00  0.00    -0.379 OA
ATOM      8  H   UNL     1      31.319 -24.890 -12.069  0.00  0.00    +0.211 HD
ENDBRANCH   2   7
BRANCH   3   9
ATOM      9  O   UNL     1      30.002 -24.697 -15.654  0.00  0.00    -0.379 OA
ATOM     10  H   UNL     1      30.029 -24.661 -16.624  0.00  0.00    +0.211 HD
ENDBRANCH   3   9
BRANCH   4  11
ATOM     11  O   UNL     1      33.706 -25.017 -12.656  0.00  0.00    -0.378 OA
ATOM     12  H   UNL     1      33.070 -25.661 -12.306  0.00  0.00    +0.211 HD
ENDBRANCH   4  11
BRANCH   6  13
ATOM     13  N   UNL     1      35.142 -23.065 -14.238  0.00  0.00    -0.187 NA
ATOM     14  H   UNL     1      35.222 -22.206 -14.780  0.00  0.00    +0.137 HD
BRANCH  13  15
ATOM     15  P   UNL     1      36.598 -23.843 -14.341  0.00  0.00    +0.412 P 
ATOM     16  O   UNL     1      37.803 -22.982 -14.621  0.00  0.00    -0.240 OA
BRANCH  15  17
ATOM     17  O   UNL     1      36.453 -25.033 -15.441  0.00  0.00    -0.280 OA
ATOM     18  C   UNL     1      36.846 -26.358 -15.122  0.00  0.00    +0.185 C 
ENDBRANCH  15  17
BRANCH  15  19
ATOM     19  O   UNL     1      36.756 -24.671 -12.948  0.00  0.00    -0.280 OA
ATOM     20  C   UNL     1      37.799 -24.315 -12.057  0.00  0.00    +0.185 C 
ENDBRANCH  15  19
ENDBRANCH  13  15
ENDBRANCH   6  13
BRANCH   5  21
ATOM     21  C   UNL     1      31.534 -22.698 -17.290  0.00  0.00    +0.169 C 
BRANCH  21  22
ATOM     22  O   UNL     1      30.226 -22.314 -16.908  0.00  0.00    -0.379 OA
ATOM     23  H   UNL     1      29.709 -22.094 -17.699  0.00  0.00    +0.211 HD
ENDBRANCH  21  22
ENDBRANCH   5  21
TORSDOF 9
ENDMDL
MODEL 8
REMARK VINA RESULT:      -6.4      2.225      5.745
REMARK  Name = 656959
REMARK  9 active torsions:
REMARK  status: ('A' for Active; 'I' for Inactive)
REMARK    1  A    between atoms: C_2  and  O_7
REMARK    2  A    between atoms: C_3  and  O_9
REMARK    3  A    between atoms: C_4  and  O_11
REMARK    4  A    between atoms: C_5  and  C_21
REMARK    5  A    between atoms: C_6  and  N_13
REMARK    6  A    between atoms: N_13  and  P_15
REMARK    7  A    between atoms: P_15  and  O_17
REMARK    8  A    between atoms: P_15  and  O_19
REMARK    9  A    between atoms: C_21  and  O_22
REMARK                            x       y       z     vdW  Elec       q    Type
REMARK                         _______ _______ _______ _____ _____    ______ ____
ROOT
ATOM      1  O   UNL     1      35.888 -23.605 -13.448  0.00  0.00    -0.335 OA
ATOM      2  C   UNL     1      37.200 -26.122 -13.849  0.00  0.00    +0.170 C 
ATOM      3  C   UNL     1      37.726 -25.078 -12.863  0.00  0.00    +0.169 C 
ATOM      4  C   UNL     1      36.320 -25.484 -14.927  0.00  0.00    +0.183 C 
ATOM      5  C   UNL     1      36.581 -24.199 -12.348  0.00  0.00    +0.175 C 
ATOM      6  C   UNL     1      35.262 -24.569 -14.297  0.00  0.00    +0.211 C 
ENDROOT
BRANCH   2   7
ATOM      7  O   UNL     1      38.303 -26.782 -14.473  0.00  0.00    -0.379 OA
ATOM      8  H   UNL     1      38.550 -27.561 -13.952  0.00  0.00    +0.211 HD
ENDBRANCH   2   7
BRANCH   3   9
ATOM      9  O   UNL     1      38.351 -25.765 -11.782  0.00  0.00    -0.379 OA
ATOM     10  H   UNL     1      37.675 -26.209 -11.247  0.00  0.00    +0.211 HD
ENDBRANCH   3   9
BRANCH   4  11
ATOM     11  O   UNL     1      35.668 -26.520 -15.660  0.00  0.00    -0.378 OA
ATOM     12  H   UNL     1      36.317 -27.194 -15.915  0.00  0.00    +0.211 HD
ENDBRANCH   4  11
BRANCH   6  13
ATOM     13  N   UNL     1      34.485 -23.898 -15.340  0.00  0.00    -0.187 NA
ATOM     14  H   UNL     1      34.913 -22.985 -15.493  0.00  0.00    +0.137 HD
BRANCH  13  15
ATOM     15  P   UNL     1      32.871 -23.644 -15.087  0.00  0.00    +0.412 P 
ATOM     16  O   UNL     1      32.505 -22.521 -14.151  0.00  0.00    -0.240 OA
BRANCH  15  17
ATOM     17  O   UNL     1      32.211 -25.052 -14.608  0.00  0.00    -0.280 OA
ATOM     18  C   UNL     1      31.076 -25.062 -13.759  0.00  0.00    +0.185 C 
ENDBRANCH  15  17
BRANCH  15  19
ATOM     19  O   UNL     1      32.220 -23.437 -16.565  0.00  0.00    -0.280 OA
ATOM     20  C   UNL     1      33.080 -23.165 -17.658  0.00  0.00    +0.185 C 
ENDBRANCH  15  19
ENDBRANCH  13  15
ENDBRANCH   6  13
BRANCH   5  21
ATOM     21  C   UNL     1      37.080 -23.062 -11.462  0.00  0.00    +0.169 C 
BRANCH  21  22
ATOM     22  O   UNL     1      38.477 -22.927 -11.646  0.00  0.00    -0.379 OA
ATOM     23  H   UNL     1      38.829 -23.731 -12.059  0.00  0.00    +0.211 HD
ENDBRANCH  21  22
ENDBRANCH   5  21
TORSDOF 9
ENDMDL
MODEL 9
REMARK VINA RESULT:      -6.4      1.932      2.841
REMARK  Name = 656959
REMARK  9 active torsions:
REMARK  status: ('A' for Active; 'I' for Inactive)
REMARK    1  A    between atoms: C_2  and  O_7
REMARK    2  A    between atoms: C_3  and  O_9
REMARK    3  A    between atoms: C_4  and  O_11
REMARK    4  A    between atoms: C_5  and  C_21
REMARK    5  A    between atoms: C_6  and  N_13
REMARK    6  A    between atoms: N_13  and  P_15
REMARK    7  A    between atoms: P_15  and  O_17
REMARK    8  A    between atoms: P_15  and  O_19
REMARK    9  A    between atoms: C_21  and  O_22
REMARK                            x       y       z     vdW  Elec       q    Type
REMARK                         _______ _______ _______ _____ _____    ______ ____
ROOT
ATOM      1  O   UNL     1      33.674 -24.710 -14.667  0.00  0.00    -0.335 OA
ATOM      2  C   UNL     1      32.797 -22.870 -16.683  0.00  0.00    +0.170 C 
ATOM      3  C   UNL     1      31.813 -23.655 -15.814  0.00  0.00    +0.169 C 
ATOM      4  C   UNL     1      34.162 -23.561 -16.752  0.00  0.00    +0.183 C 
ATOM      5  C   UNL     1      32.448 -24.004 -14.464  0.00  0.00    +0.175 C 
ATOM      6  C   UNL     1      34.658 -23.930 -15.348  0.00  0.00    +0.211 C 
ENDROOT
BRANCH   2   7
ATOM      7  O   UNL     1      32.267 -22.745 -18.004  0.00  0.00    -0.379 OA
ATOM      8  H   UNL     1      31.337 -23.019 -18.006  0.00  0.00    +0.211 HD
ENDBRANCH   2   7
BRANCH   3   9
ATOM      9  O   UNL     1      30.651 -22.854 -15.626  0.00  0.00    -0.379 OA
ATOM     10  H   UNL     1      30.089 -23.253 -14.943  0.00  0.00    +0.211 HD
ENDBRANCH   3   9
BRANCH   4  11
ATOM     11  O   UNL     1      35.096 -22.672 -17.362  0.00  0.00    -0.378 OA
ATOM     12  H   UNL     1      34.627 -22.070 -17.961  0.00  0.00    +0.211 HD
ENDBRANCH   4  11
BRANCH   6  13
ATOM     13  N   UNL     1      35.920 -24.667 -15.434  0.00  0.00    -0.187 NA
ATOM     14  H   UNL     1      35.742 -25.609 -15.088  0.00  0.00    +0.137 HD
BRANCH  13  15
ATOM     15  P   UNL     1      37.234 -24.087 -14.613  0.00  0.00    +0.412 P 
ATOM     16  O   UNL     1      38.207 -23.252 -15.405  0.00  0.00    -0.240 OA
BRANCH  15  17
ATOM     17  O   UNL     1      37.977 -25.348 -13.902  0.00  0.00    -0.280 OA
ATOM     18  C   UNL     1      37.264 -26.543 -13.630  0.00  0.00    +0.185 C 
ENDBRANCH  15  17
BRANCH  15  19
ATOM     19  O   UNL     1      36.633 -23.271 -13.339  0.00  0.00    -0.280 OA
ATOM     20  C   UNL     1      37.436 -23.129 -12.179  0.00  0.00    +0.185 C 
ENDBRANCH  15  19
ENDBRANCH  13  15
ENDBRANCH   6  13
BRANCH   5  21
ATOM     21  C   UNL     1      31.548 -24.898 -13.617  0.00  0.00    +0.169 C 
BRANCH  21  22
ATOM     22  O   UNL     1      30.734 -24.076 -12.801  0.00  0.00    -0.379 OA
ATOM     23  H   UNL     1      29.820 -24.401 -12.823  0.00  0.00    +0.211 HD
ENDBRANCH  21  22
ENDBRANCH   5  21
TORSDOF 9
ENDMDL
