MODEL 1
REMARK VINA RESULT:      -5.8      0.000      0.000
REMARK  Name = 107765
REMARK  6 active torsions:
REMARK  status: ('A' for Active; 'I' for Inactive)
REMARK    1  A    between atoms: C_5  and  O_23
REMARK    2  A    between atoms: C_8  and  C_27
REMARK    3  A    between atoms: C_20  and  O_25
REMARK    4  A    between atoms: C_27  and  O_29
REMARK    5  A    between atoms: C_27  and  C_31
REMARK    6  A    between atoms: C_31  and  C_32
REMARK                            x       y       z     vdW  Elec       q    Type
REMARK                         _______ _______ _______ _____ _____    ______ ____
ROOT
ATOM      1  O   UNL     1      37.895 -23.499 -15.816  0.00  0.00    -0.474 OA
ATOM      2  N   UNL     1      35.807 -24.036 -10.962  0.00  0.00    +0.387 N 
ATOM      3  C   UNL     1      35.541 -24.631 -13.346  0.00  0.00    -0.010 C 
ATOM      4  C   UNL     1      36.716 -23.683 -13.683  0.00  0.00    +0.057 C 
ATOM      5  C   UNL     1      35.372 -23.688 -15.793  0.00  0.00    +0.132 C 
ATOM      6  C   UNL     1      36.660 -23.139 -15.118  0.00  0.00    +0.194 C 
ATOM      7  C   UNL     1      34.221 -23.826 -13.504  0.00  0.00    +0.003 C 
ATOM      8  C   UNL     1      34.153 -23.212 -14.934  0.00  0.00    +0.053 C 
ATOM      9  C   UNL     1      35.852 -25.175 -11.909  0.00  0.00    -0.053 C 
ATOM     10  C   UNL     1      35.402 -25.787 -14.399  0.00  0.00    +0.001 C 
ATOM     11  C   UNL     1      35.397 -25.225 -15.828  0.00  0.00    +0.031 C 
ATOM     12  C   UNL     1      36.881 -22.553 -12.645  0.00  0.00    -0.015 C 
ATOM     13  C   UNL     1      37.931 -24.518 -13.765  0.00  0.00    +0.013 C 
ATOM     14  C   UNL     1      37.227 -25.965 -11.859  0.00  0.00    +0.005 C 
ATOM     15  C   UNL     1      36.867 -23.051 -11.193  0.00  0.00    -0.077 C 
ATOM     16  C   UNL     1      38.253 -25.544 -12.892  0.00  0.00    -0.025 C 
ATOM     17  C   UNL     1      38.588 -24.313 -14.956  0.00  0.00    +0.168 C 
ATOM     18  C   UNL     1      35.753 -24.447  -9.563  0.00  0.00    -0.101 C 
ATOM     19  C   UNL     1      39.430 -26.247 -13.151  0.00  0.00    -0.001 C 
ATOM     20  C   UNL     1      39.746 -25.003 -15.240  0.00  0.00    +0.167 C 
ATOM     21  C   UNL     1      40.184 -25.956 -14.307  0.00  0.00    +0.039 C 
ATOM     22  H   UNL     1      34.923 -23.568 -11.162  0.00  0.00    -0.080 HD
ENDROOT
BRANCH   5  23
ATOM     23  O   UNL     1      35.278 -23.170 -17.112  0.00  0.00    -0.352 OA
ATOM     24  C   UNL     1      36.075 -22.004 -17.274  0.00  0.00    +0.174 C 
ENDBRANCH   5  23
BRANCH  20  25
ATOM     25  O   UNL     1      40.420 -24.811 -16.401  0.00  0.00    -0.503 OA
ATOM     26  H   UNL     1      40.812 -25.539 -16.841  0.00  0.00    +0.292 HD
ENDBRANCH  20  25
BRANCH   8  27
ATOM     27  C   UNL     1      32.793 -23.493 -15.582  0.00  0.00    +0.091 C 
ATOM     28  C   UNL     1      32.262 -24.851 -15.111  0.00  0.00    +0.029 C 
BRANCH  27  29
ATOM     29  O   UNL     1      32.972 -23.558 -16.998  0.00  0.00    -0.387 OA
ATOM     30  H   UNL     1      32.106 -23.601 -17.432  0.00  0.00    +0.210 HD
ENDBRANCH  27  29
BRANCH  27  31
ATOM     31  C   UNL     1      31.756 -22.395 -15.271  0.00  0.00    +0.027 C 
BRANCH  31  32
ATOM     32  C   UNL     1      30.328 -22.910 -15.057  0.00  0.00    +0.002 C 
ATOM     33  C   UNL     1      29.481 -22.731 -16.308  0.00  0.00    +0.000 C 
ENDBRANCH  31  32
ENDBRANCH  27  31
ENDBRANCH   8  27
TORSDOF 6
ENDMDL
MODEL 2
REMARK VINA RESULT:      -5.8     16.856     19.525
REMARK  Name = 107765
REMARK  6 active torsions:
REMARK  status: ('A' for Active; 'I' for Inactive)
REMARK    1  A    between atoms: C_5  and  O_23
REMARK    2  A    between atoms: C_8  and  C_27
REMARK    3  A    between atoms: C_20  and  O_25
REMARK    4  A    between atoms: C_27  and  O_29
REMARK    5  A    between atoms: C_27  and  C_31
REMARK    6  A    between atoms: C_31  and  C_32
REMARK                            x       y       z     vdW  Elec       q    Type
REMARK                         _______ _______ _______ _____ _____    ______ ____
ROOT
ATOM      1  O   UNL     1      34.665  -7.787 -24.463  0.00  0.00    -0.474 OA
ATOM      2  N   UNL     1      31.576  -8.912 -20.291  0.00  0.00    +0.387 N 
ATOM      3  C   UNL     1      31.621  -7.920 -22.553  0.00  0.00    -0.010 C 
ATOM      4  C   UNL     1      33.161  -8.070 -22.557  0.00  0.00    +0.057 C 
ATOM      5  C   UNL     1      32.781  -6.137 -24.098  0.00  0.00    +0.132 C 
ATOM      6  C   UNL     1      33.864  -7.061 -23.475  0.00  0.00    +0.194 C 
ATOM      7  C   UNL     1      31.286  -6.491 -22.043  0.00  0.00    +0.003 C 
ATOM      8  C   UNL     1      32.027  -5.436 -22.919  0.00  0.00    +0.053 C 
ATOM      9  C   UNL     1      31.094  -9.108 -21.678  0.00  0.00    -0.053 C 
ATOM     10  C   UNL     1      31.028  -7.946 -24.006  0.00  0.00    +0.001 C 
ATOM     11  C   UNL     1      31.778  -6.965 -24.919  0.00  0.00    +0.031 C 
ATOM     12  C   UNL     1      33.759  -8.070 -21.134  0.00  0.00    -0.015 C 
ATOM     13  C   UNL     1      33.466  -9.330 -23.266  0.00  0.00    +0.013 C 
ATOM     14  C   UNL     1      31.506 -10.516 -22.282  0.00  0.00    +0.005 C 
ATOM     15  C   UNL     1      33.033  -9.014 -20.166  0.00  0.00    -0.077 C 
ATOM     16  C   UNL     1      32.772 -10.519 -23.114  0.00  0.00    -0.025 C 
ATOM     17  C   UNL     1      34.373  -9.115 -24.278  0.00  0.00    +0.168 C 
ATOM     18  C   UNL     1      30.895  -9.756 -19.315  0.00  0.00    -0.101 C 
ATOM     19  C   UNL     1      33.186 -11.595 -23.898  0.00  0.00    -0.001 C 
ATOM     20  C   UNL     1      34.789 -10.160 -25.073  0.00  0.00    +0.167 C 
ATOM     21  C   UNL     1      34.209 -11.419 -24.853  0.00  0.00    +0.039 C 
ATOM     22  H   UNL     1      31.329  -7.949 -20.064  0.00  0.00    -0.080 HD
ENDROOT
BRANCH   5  23
ATOM     23  O   UNL     1      33.410  -5.170 -24.926  0.00  0.00    -0.352 OA
ATOM     24  C   UNL     1      33.176  -5.429 -26.304  0.00  0.00    +0.174 C 
ENDBRANCH   5  23
BRANCH  20  25
ATOM     25  O   UNL     1      35.692  -9.979 -26.069  0.00  0.00    -0.503 OA
ATOM     26  H   UNL     1      35.691  -9.183 -26.563  0.00  0.00    +0.292 HD
ENDBRANCH  20  25
BRANCH   8  27
ATOM     27  C   UNL     1      31.066  -4.331 -23.369  0.00  0.00    +0.091 C 
ATOM     28  C   UNL     1      29.999  -4.099 -22.294  0.00  0.00    +0.029 C 
BRANCH  27  29
ATOM     29  O   UNL     1      30.405  -4.765 -24.559  0.00  0.00    -0.387 OA
ATOM     30  H   UNL     1      29.491  -4.441 -24.557  0.00  0.00    +0.210 HD
ENDBRANCH  27  29
BRANCH  27  31
ATOM     31  C   UNL     1      31.794  -3.007 -23.671  0.00  0.00    +0.027 C 
BRANCH  31  32
ATOM     32  C   UNL     1      31.318  -2.294 -24.943  0.00  0.00    +0.002 C 
ATOM     33  C   UNL     1      32.493  -1.802 -25.775  0.00  0.00    +0.000 C 
ENDBRANCH  31  32
ENDBRANCH  27  31
ENDBRANCH   8  27
TORSDOF 6
ENDMDL
MODEL 3
REMARK VINA RESULT:      -4.2     15.293     18.574
REMARK  Name = 107765
REMARK  6 active torsions:
REMARK  status: ('A' for Active; 'I' for Inactive)
REMARK    1  A    between atoms: C_5  and  O_23
REMARK    2  A    between atoms: C_8  and  C_27
REMARK    3  A    between atoms: C_20  and  O_25
REMARK    4  A    between atoms: C_27  and  O_29
REMARK    5  A    between atoms: C_27  and  C_31
REMARK    6  A    between atoms: C_31  and  C_32
REMARK                            x       y       z     vdW  Elec       q    Type
REMARK                         _______ _______ _______ _____ _____    ______ ____
ROOT
ATOM      1  O   UNL     1      31.558  -7.305 -20.538  0.00  0.00    -0.474 OA
ATOM      2  N   UNL     1      34.744  -8.200 -24.692  0.00  0.00    +0.387 N 
ATOM      3  C   UNL     1      32.652  -8.892 -23.573  0.00  0.00    -0.010 C 
ATOM      4  C   UNL     1      33.010  -7.959 -22.392  0.00  0.00    +0.057 C 
ATOM      5  C   UNL     1      31.591  -9.714 -21.312  0.00  0.00    +0.132 C 
ATOM      6  C   UNL     1      32.379  -8.397 -21.063  0.00  0.00    +0.194 C 
ATOM      7  C   UNL     1      33.185 -10.312 -23.233  0.00  0.00    +0.003 C 
ATOM      8  C   UNL     1      32.607 -10.771 -21.861  0.00  0.00    +0.053 C 
ATOM      9  C   UNL     1      33.270  -8.206 -24.840  0.00  0.00    -0.053 C 
ATOM     10  C   UNL     1      31.102  -9.096 -23.707  0.00  0.00    +0.001 C 
ATOM     11  C   UNL     1      30.485  -9.487 -22.356  0.00  0.00    +0.031 C 
ATOM     12  C   UNL     1      34.531  -7.728 -22.260  0.00  0.00    -0.015 C 
ATOM     13  C   UNL     1      32.292  -6.687 -22.618  0.00  0.00    +0.013 C 
ATOM     14  C   UNL     1      32.667  -6.759 -25.082  0.00  0.00    +0.005 C 
ATOM     15  C   UNL     1      35.210  -7.359 -23.586  0.00  0.00    -0.077 C 
ATOM     16  C   UNL     1      32.170  -6.047 -23.840  0.00  0.00    -0.025 C 
ATOM     17  C   UNL     1      31.554  -6.338 -21.511  0.00  0.00    +0.168 C 
ATOM     18  C   UNL     1      35.449  -7.894 -25.932  0.00  0.00    -0.101 C 
ATOM     19  C   UNL     1      31.423  -4.870 -23.863  0.00  0.00    -0.001 C 
ATOM     20  C   UNL     1      30.798  -5.187 -21.514  0.00  0.00    +0.167 C 
ATOM     21  C   UNL     1      30.763  -4.431 -22.696  0.00  0.00    +0.039 C 
ATOM     22  H   UNL     1      34.984  -9.162 -24.451  0.00  0.00    -0.080 HD
ENDROOT
BRANCH   5  23
ATOM     23  O   UNL     1      31.026 -10.161 -20.089  0.00  0.00    -0.352 OA
ATOM     24  C   UNL     1      31.972 -10.116 -19.029  0.00  0.00    +0.174 C 
ENDBRANCH   5  23
BRANCH  20  25
ATOM     25  O   UNL     1      30.070  -4.812 -20.432  0.00  0.00    -0.503 OA
ATOM     26  H   UNL     1      29.371  -4.196 -20.528  0.00  0.00    +0.292 HD
ENDBRANCH  20  25
BRANCH   8  27
ATOM     27  C   UNL     1      32.032 -12.188 -21.960  0.00  0.00    +0.091 C 
ATOM     28  C   UNL     1      32.428 -12.819 -23.299  0.00  0.00    +0.029 C 
BRANCH  27  29
ATOM     29  O   UNL     1      30.606 -12.101 -21.920  0.00  0.00    -0.387 OA
ATOM     30  H   UNL     1      30.332 -11.190 -22.108  0.00  0.00    +0.210 HD
ENDBRANCH  27  29
BRANCH  27  31
ATOM     31  C   UNL     1      32.497 -13.093 -20.803  0.00  0.00    +0.027 C 
BRANCH  31  32
ATOM     32  C   UNL     1      32.769 -14.549 -21.203  0.00  0.00    +0.002 C 
ATOM     33  C   UNL     1      34.147 -15.001 -20.744  0.00  0.00    +0.000 C 
ENDBRANCH  31  32
ENDBRANCH  27  31
ENDBRANCH   8  27
TORSDOF 6
ENDMDL
MODEL 4
REMARK VINA RESULT:      -4.0      2.369      6.715
REMARK  Name = 107765
REMARK  6 active torsions:
REMARK  status: ('A' for Active; 'I' for Inactive)
REMARK    1  A    between atoms: C_5  and  O_23
REMARK    2  A    between atoms: C_8  and  C_27
REMARK    3  A    between atoms: C_20  and  O_25
REMARK    4  A    between atoms: C_27  and  O_29
REMARK    5  A    between atoms: C_27  and  C_31
REMARK    6  A    between atoms: C_31  and  C_32
REMARK                            x       y       z     vdW  Elec       q    Type
REMARK                         _______ _______ _______ _____ _____    ______ ____
ROOT
ATOM      1  O   UNL     1      33.835 -23.663 -12.743  0.00  0.00    -0.474 OA
ATOM      2  N   UNL     1      36.365 -22.264 -17.199  0.00  0.00    +0.387 N 
ATOM      3  C   UNL     1      35.896 -24.133 -15.652  0.00  0.00    -0.010 C 
ATOM      4  C   UNL     1      35.200 -23.131 -14.699  0.00  0.00    +0.057 C 
ATOM      5  C   UNL     1      35.989 -24.928 -13.147  0.00  0.00    +0.132 C 
ATOM      6  C   UNL     1      35.212 -23.584 -13.233  0.00  0.00    +0.194 C 
ATOM      7  C   UNL     1      37.378 -24.264 -15.201  0.00  0.00    +0.003 C 
ATOM      8  C   UNL     1      37.432 -24.671 -13.698  0.00  0.00    +0.053 C 
ATOM      9  C   UNL     1      35.659 -23.563 -17.092  0.00  0.00    -0.053 C 
ATOM     10  C   UNL     1      35.326 -25.586 -15.489  0.00  0.00    +0.001 C 
ATOM     11  C   UNL     1      35.302 -26.000 -14.010  0.00  0.00    +0.031 C 
ATOM     12  C   UNL     1      35.733 -21.692 -14.863  0.00  0.00    -0.015 C 
ATOM     13  C   UNL     1      33.753 -23.203 -14.986  0.00  0.00    +0.013 C 
ATOM     14  C   UNL     1      34.115 -23.457 -17.440  0.00  0.00    +0.005 C 
ATOM     15  C   UNL     1      35.806 -21.229 -16.325  0.00  0.00    -0.077 C 
ATOM     16  C   UNL     1      33.193 -23.278 -16.251  0.00  0.00    -0.025 C 
ATOM     17  C   UNL     1      33.036 -23.429 -13.834  0.00  0.00    +0.168 C 
ATOM     18  C   UNL     1      36.500 -21.789 -18.572  0.00  0.00    -0.101 C 
ATOM     19  C   UNL     1      31.804 -23.375 -16.321  0.00  0.00    -0.001 C 
ATOM     20  C   UNL     1      31.664 -23.541 -13.879  0.00  0.00    +0.167 C 
ATOM     21  C   UNL     1      31.045 -23.478 -15.137  0.00  0.00    +0.039 C 
ATOM     22  H   UNL     1      37.309 -22.454 -16.863  0.00  0.00    -0.080 HD
ENDROOT
BRANCH   5  23
ATOM     23  O   UNL     1      36.045 -25.351 -11.793  0.00  0.00    -0.352 OA
ATOM     24  C   UNL     1      36.107 -24.246 -10.902  0.00  0.00    +0.174 C 
ENDBRANCH   5  23
BRANCH  20  25
ATOM     25  O   UNL     1      30.931 -23.751 -12.757  0.00  0.00    -0.503 OA
ATOM     26  H   UNL     1      30.013 -23.924 -12.823  0.00  0.00    +0.292 HD
ENDBRANCH  20  25
BRANCH   8  27
ATOM     27  C   UNL     1      38.392 -25.847 -13.487  0.00  0.00    +0.091 C 
ATOM     28  C   UNL     1      38.069 -26.967 -14.481  0.00  0.00    +0.029 C 
BRANCH  27  29
ATOM     29  O   UNL     1      38.196 -26.359 -12.168  0.00  0.00    -0.387 OA
ATOM     30  H   UNL     1      38.629 -27.223 -12.089  0.00  0.00    +0.210 HD
ENDBRANCH  27  29
BRANCH  27  31
ATOM     31  C   UNL     1      39.869 -25.432 -13.635  0.00  0.00    +0.027 C 
BRANCH  31  32
ATOM     32  C   UNL     1      40.699 -26.347 -14.544  0.00  0.00    +0.002 C 
ATOM     33  C   UNL     1      41.552 -27.310 -13.731  0.00  0.00    +0.000 C 
ENDBRANCH  31  32
ENDBRANCH  27  31
ENDBRANCH   8  27
TORSDOF 6
ENDMDL
MODEL 5
REMARK VINA RESULT:      -3.8      2.403      4.385
REMARK  Name = 107765
REMARK  6 active torsions:
REMARK  status: ('A' for Active; 'I' for Inactive)
REMARK    1  A    between atoms: C_5  and  O_23
REMARK    2  A    between atoms: C_8  and  C_27
REMARK    3  A    between atoms: C_20  and  O_25
REMARK    4  A    between atoms: C_27  and  O_29
REMARK    5  A    between atoms: C_27  and  C_31
REMARK    6  A    between atoms: C_31  and  C_32
REMARK                            x       y       z     vdW  Elec       q    Type
REMARK                         _______ _______ _______ _____ _____    ______ ____
ROOT
ATOM      1  O   UNL     1      34.175 -24.595 -12.436  0.00  0.00    -0.474 OA
ATOM      2  N   UNL     1      38.432 -25.572 -15.458  0.00  0.00    +0.387 N 
ATOM      3  C   UNL     1      36.543 -24.025 -15.081  0.00  0.00    -0.010 C 
ATOM      4  C   UNL     1      35.987 -25.008 -14.024  0.00  0.00    +0.057 C 
ATOM      5  C   UNL     1      33.932 -23.836 -14.838  0.00  0.00    +0.132 C 
ATOM      6  C   UNL     1      34.467 -24.899 -13.838  0.00  0.00    +0.194 C 
ATOM      7  C   UNL     1      35.867 -24.359 -16.440  0.00  0.00    +0.003 C 
ATOM      8  C   UNL     1      34.318 -24.311 -16.278  0.00  0.00    +0.053 C 
ATOM      9  C   UNL     1      38.100 -24.196 -15.022  0.00  0.00    -0.053 C 
ATOM     10  C   UNL     1      36.098 -22.547 -14.795  0.00  0.00    +0.001 C 
ATOM     11  C   UNL     1      34.582 -22.469 -14.565  0.00  0.00    +0.031 C 
ATOM     12  C   UNL     1      36.434 -26.464 -14.276  0.00  0.00    -0.015 C 
ATOM     13  C   UNL     1      36.449 -24.526 -12.706  0.00  0.00    +0.013 C 
ATOM     14  C   UNL     1      38.680 -23.845 -13.587  0.00  0.00    +0.005 C 
ATOM     15  C   UNL     1      37.940 -26.603 -14.540  0.00  0.00    -0.077 C 
ATOM     16  C   UNL     1      37.719 -24.046 -12.433  0.00  0.00    -0.025 C 
ATOM     17  C   UNL     1      35.392 -24.386 -11.837  0.00  0.00    +0.168 C 
ATOM     18  C   UNL     1      39.847 -25.758 -15.762  0.00  0.00    -0.101 C 
ATOM     19  C   UNL     1      37.960 -23.602 -11.133  0.00  0.00    -0.001 C 
ATOM     20  C   UNL     1      35.602 -23.937 -10.552  0.00  0.00    +0.167 C 
ATOM     21  C   UNL     1      36.909 -23.574 -10.193  0.00  0.00    +0.039 C 
ATOM     22  H   UNL     1      37.928 -25.695 -16.336  0.00  0.00    -0.080 HD
ENDROOT
BRANCH   5  23
ATOM     23  O   UNL     1      32.521 -23.742 -14.711  0.00  0.00    -0.352 OA
ATOM     24  C   UNL     1      31.965 -24.927 -14.159  0.00  0.00    +0.174 C 
ENDBRANCH   5  23
BRANCH  20  25
ATOM     25  O   UNL     1      34.580 -23.802  -9.671  0.00  0.00    -0.503 OA
ATOM     26  H   UNL     1      34.437 -22.982  -9.241  0.00  0.00    +0.292 HD
ENDBRANCH  20  25
BRANCH   8  27
ATOM     27  C   UNL     1      33.681 -23.478 -17.395  0.00  0.00    +0.091 C 
ATOM     28  C   UNL     1      32.304 -22.975 -16.949  0.00  0.00    +0.029 C 
BRANCH  27  29
ATOM     29  O   UNL     1      33.493 -24.320 -18.535  0.00  0.00    -0.387 OA
ATOM     30  H   UNL     1      32.741 -23.997 -19.055  0.00  0.00    +0.210 HD
ENDBRANCH  27  29
BRANCH  27  31
ATOM     31  C   UNL     1      34.559 -22.282 -17.812  0.00  0.00    +0.027 C 
BRANCH  31  32
ATOM     32  C   UNL     1      34.652 -22.057 -19.326  0.00  0.00    +0.002 C 
ATOM     33  C   UNL     1      33.646 -21.016 -19.793  0.00  0.00    +0.000 C 
ENDBRANCH  31  32
ENDBRANCH  27  31
ENDBRANCH   8  27
TORSDOF 6
ENDMDL
MODEL 6
REMARK VINA RESULT:      -3.5      2.796      4.497
REMARK  Name = 107765
REMARK  6 active torsions:
REMARK  status: ('A' for Active; 'I' for Inactive)
REMARK    1  A    between atoms: C_5  and  O_23
REMARK    2  A    between atoms: C_8  and  C_27
REMARK    3  A    between atoms: C_20  and  O_25
REMARK    4  A    between atoms: C_27  and  O_29
REMARK    5  A    between atoms: C_27  and  C_31
REMARK    6  A    between atoms: C_31  and  C_32
REMARK                            x       y       z     vdW  Elec       q    Type
REMARK                         _______ _______ _______ _____ _____    ______ ____
ROOT
ATOM      1  O   UNL     1      33.998 -25.288 -12.206  0.00  0.00    -0.474 OA
ATOM      2  N   UNL     1      36.768 -23.266 -16.262  0.00  0.00    +0.387 N 
ATOM      3  C   UNL     1      34.723 -23.017 -14.897  0.00  0.00    -0.010 C 
ATOM      4  C   UNL     1      35.060 -24.357 -14.201  0.00  0.00    +0.057 C 
ATOM      5  C   UNL     1      32.569 -24.232 -14.008  0.00  0.00    +0.132 C 
ATOM      6  C   UNL     1      33.822 -25.075 -13.644  0.00  0.00    +0.194 C 
ATOM      7  C   UNL     1      33.771 -23.326 -16.086  0.00  0.00    +0.003 C 
ATOM      8  C   UNL     1      32.525 -24.104 -15.567  0.00  0.00    +0.053 C 
ATOM      9  C   UNL     1      36.110 -22.387 -15.268  0.00  0.00    -0.053 C 
ATOM     10  C   UNL     1      33.873 -22.075 -13.973  0.00  0.00    +0.001 C 
ATOM     11  C   UNL     1      32.669 -22.827 -13.389  0.00  0.00    +0.031 C 
ATOM     12  C   UNL     1      35.915 -25.286 -15.088  0.00  0.00    -0.015 C 
ATOM     13  C   UNL     1      35.759 -24.022 -12.943  0.00  0.00    +0.013 C 
ATOM     14  C   UNL     1      37.005 -22.128 -13.983  0.00  0.00    +0.005 C 
ATOM     15  C   UNL     1      37.123 -24.583 -15.723  0.00  0.00    -0.077 C 
ATOM     16  C   UNL     1      36.730 -23.044 -12.807  0.00  0.00    -0.025 C 
ATOM     17  C   UNL     1      35.158 -24.636 -11.870  0.00  0.00    +0.168 C 
ATOM     18  C   UNL     1      37.903 -22.638 -16.930  0.00  0.00    -0.101 C 
ATOM     19  C   UNL     1      37.253 -22.848 -11.529  0.00  0.00    -0.001 C 
ATOM     20  C   UNL     1      35.648 -24.449 -10.596  0.00  0.00    +0.167 C 
ATOM     21  C   UNL     1      36.729 -23.569 -10.436  0.00  0.00    +0.039 C 
ATOM     22  H   UNL     1      36.060 -23.423 -16.979  0.00  0.00    -0.080 HD
ENDROOT
BRANCH   5  23
ATOM     23  O   UNL     1      31.405 -24.893 -13.534  0.00  0.00    -0.352 OA
ATOM     24  C   UNL     1      30.665 -24.073 -12.640  0.00  0.00    +0.174 C 
ENDBRANCH   5  23
BRANCH  20  25
ATOM     25  O   UNL     1      35.082 -25.052  -9.521  0.00  0.00    -0.503 OA
ATOM     26  H   UNL     1      34.378 -24.634  -9.066  0.00  0.00    +0.292 HD
ENDBRANCH  20  25
BRANCH   8  27
ATOM     27  C   UNL     1      31.232 -23.478 -16.101  0.00  0.00    +0.091 C 
ATOM     28  C   UNL     1      31.530 -22.662 -17.363  0.00  0.00    +0.029 C 
BRANCH  27  29
ATOM     29  O   UNL     1      30.720 -22.585 -15.110  0.00  0.00    -0.387 OA
ATOM     30  H   UNL     1      31.169 -22.746 -14.266  0.00  0.00    +0.210 HD
ENDBRANCH  27  29
BRANCH  27  31
ATOM     31  C   UNL     1      30.152 -24.534 -16.410  0.00  0.00    +0.027 C 
BRANCH  31  32
ATOM     32  C   UNL     1      28.737 -24.147 -15.962  0.00  0.00    +0.002 C 
ATOM     33  C   UNL     1      27.971 -23.460 -17.082  0.00  0.00    +0.000 C 
ENDBRANCH  31  32
ENDBRANCH  27  31
ENDBRANCH   8  27
TORSDOF 6
ENDMDL
MODEL 7
REMARK VINA RESULT:      -2.8      1.864      6.033
REMARK  Name = 107765
REMARK  6 active torsions:
REMARK  status: ('A' for Active; 'I' for Inactive)
REMARK    1  A    between atoms: C_5  and  O_23
REMARK    2  A    between atoms: C_8  and  C_27
REMARK    3  A    between atoms: C_20  and  O_25
REMARK    4  A    between atoms: C_27  and  O_29
REMARK    5  A    between atoms: C_27  and  C_31
REMARK    6  A    between atoms: C_31  and  C_32
REMARK                            x       y       z     vdW  Elec       q    Type
REMARK                         _______ _______ _______ _____ _____    ______ ____
ROOT
ATOM      1  O   UNL     1      34.880 -24.363 -17.066  0.00  0.00    -0.474 OA
ATOM      2  N   UNL     1      31.351 -24.352 -13.096  0.00  0.00    +0.387 N 
ATOM      3  C   UNL     1      33.524 -23.458 -13.861  0.00  0.00    -0.010 C 
ATOM      4  C   UNL     1      33.447 -24.400 -15.086  0.00  0.00    +0.057 C 
ATOM      5  C   UNL     1      35.909 -24.087 -14.771  0.00  0.00    +0.132 C 
ATOM      6  C   UNL     1      34.825 -24.761 -15.658  0.00  0.00    +0.194 C 
ATOM      7  C   UNL     1      34.329 -24.189 -12.751  0.00  0.00    +0.003 C 
ATOM      8  C   UNL     1      35.718 -24.620 -13.311  0.00  0.00    +0.053 C 
ATOM      9  C   UNL     1      32.035 -23.108 -13.518  0.00  0.00    -0.053 C 
ATOM     10  C   UNL     1      34.380 -22.178 -14.161  0.00  0.00    +0.001 C 
ATOM     11  C   UNL     1      35.734 -22.559 -14.778  0.00  0.00    +0.031 C 
ATOM     12  C   UNL     1      32.589 -25.655 -14.815  0.00  0.00    -0.015 C 
ATOM     13  C   UNL     1      32.897 -23.606 -16.203  0.00  0.00    +0.013 C 
ATOM     14  C   UNL     1      31.306 -22.380 -14.725  0.00  0.00    +0.005 C 
ATOM     15  C   UNL     1      31.231 -25.339 -14.173  0.00  0.00    -0.077 C 
ATOM     16  C   UNL     1      31.848 -22.707 -16.102  0.00  0.00    -0.025 C 
ATOM     17  C   UNL     1      33.710 -23.686 -17.309  0.00  0.00    +0.168 C 
ATOM     18  C   UNL     1      30.068 -24.115 -12.442  0.00  0.00    -0.101 C 
ATOM     19  C   UNL     1      31.490 -22.021 -17.262  0.00  0.00    -0.001 C 
ATOM     20  C   UNL     1      33.385 -23.009 -18.463  0.00  0.00    +0.167 C 
ATOM     21  C   UNL     1      32.242 -22.195 -18.442  0.00  0.00    +0.039 C 
ATOM     22  H   UNL     1      31.965 -24.760 -12.391  0.00  0.00    -0.080 HD
ENDROOT
BRANCH   5  23
ATOM     23  O   UNL     1      37.197 -24.434 -15.258  0.00  0.00    -0.352 OA
ATOM     24  C   UNL     1      37.848 -23.320 -15.852  0.00  0.00    +0.174 C 
ENDBRANCH   5  23
BRANCH  20  25
ATOM     25  O   UNL     1      34.163 -23.081 -19.573  0.00  0.00    -0.503 OA
ATOM     26  H   UNL     1      33.839 -23.500 -20.345  0.00  0.00    +0.292 HD
ENDBRANCH  20  25
BRANCH   8  27
ATOM     27  C   UNL     1      36.841 -24.212 -12.352  0.00  0.00    +0.091 C 
ATOM     28  C   UNL     1      36.266 -23.950 -10.957  0.00  0.00    +0.029 C 
BRANCH  27  29
ATOM     29  O   UNL     1      37.420 -22.995 -12.825  0.00  0.00    -0.387 OA
ATOM     30  H   UNL     1      37.619 -23.077 -13.771  0.00  0.00    +0.210 HD
ENDBRANCH  27  29
BRANCH  27  31
ATOM     31  C   UNL     1      37.952 -25.277 -12.262  0.00  0.00    +0.027 C 
BRANCH  31  32
ATOM     32  C   UNL     1      39.304 -24.837 -12.837  0.00  0.00    +0.002 C 
ATOM     33  C   UNL     1      39.820 -25.834 -13.864  0.00  0.00    +0.000 C 
ENDBRANCH  31  32
ENDBRANCH  27  31
ENDBRANCH   8  27
TORSDOF 6
ENDMDL
