MODEL 1
REMARK VINA RESULT:      -4.9      0.000      0.000
REMARK  Name = 5288837
REMARK  6 active torsions:
REMARK  status: ('A' for Active; 'I' for Inactive)
REMARK    1  A    between atoms: C_1  and  N_2
REMARK    2  A    between atoms: C_1  and  P_6
REMARK    3  A    between atoms: C_1  and  C_11
REMARK    4  A    between atoms: P_6  and  O_9
REMARK    5  A    between atoms: C_11  and  C_12
REMARK    6  A    between atoms: C_12  and  S_13
REMARK                            x       y       z     vdW  Elec       q    Type
REMARK                         _______ _______ _______ _____ _____    ______ ____
ROOT
ATOM      1  C   UNL     1      38.493 -25.709 -14.094  0.00  0.00    +0.012 C 
ENDROOT
BRANCH   1   2
ATOM      2  N   UNL     1      38.205 -27.051 -14.583  0.00  0.00    +0.388 N 
ATOM      3  H   UNL     1      37.901 -27.638 -13.806  0.00  0.00    -0.089 HD
ATOM      4  H   UNL     1      39.047 -27.449 -14.999  0.00  0.00    -0.089 HD
ATOM      5  H   UNL     1      37.467 -27.006 -15.285  0.00  0.00    -0.089 HD
ENDBRANCH   1   2
BRANCH   1   6
ATOM      6  P   UNL     1      40.249 -25.590 -14.500  0.00  0.00    +0.180 P 
ATOM      7  O   UNL     1      41.016 -26.697 -13.818  0.00  0.00    -0.296 OA
ATOM      8  H   UNL     1      40.797 -24.370 -14.844  0.00  0.00    +0.127 HD
BRANCH   6   9
ATOM      9  O   UNL     1      40.193 -25.854 -16.106  0.00  0.00    -0.346 OA
ATOM     10  H   UNL     1      41.056 -26.171 -16.411  0.00  0.00    +0.217 HD
ENDBRANCH   6   9
ENDBRANCH   1   6
BRANCH   1  11
ATOM     11  C   UNL     1      38.122 -25.504 -12.624  0.00  0.00    -0.001 C 
BRANCH  11  12
ATOM     12  C   UNL     1      38.411 -24.104 -12.084  0.00  0.00    +0.056 C 
BRANCH  12  13
ATOM     13  S   UNL     1      36.858 -23.203 -11.790  0.00  0.00    -0.139 S 
ATOM     14  C   UNL     1      35.759 -24.628 -11.621  0.00  0.00    +0.069 C 
ENDBRANCH  12  13
ENDBRANCH  11  12
ENDBRANCH   1  11
TORSDOF 6
ENDMDL
MODEL 2
REMARK VINA RESULT:      -4.7      1.540      1.540
REMARK  Name = 5288837
REMARK  6 active torsions:
REMARK  status: ('A' for Active; 'I' for Inactive)
REMARK    1  A    between atoms: C_1  and  N_2
REMARK    2  A    between atoms: C_1  and  P_6
REMARK    3  A    between atoms: C_1  and  C_11
REMARK    4  A    between atoms: P_6  and  O_9
REMARK    5  A    between atoms: C_11  and  C_12
REMARK    6  A    between atoms: C_12  and  S_13
REMARK                            x       y       z     vdW  Elec       q    Type
REMARK                         _______ _______ _______ _____ _____    ______ ____
ROOT
ATOM      1  C   UNL     1      38.597 -25.440 -14.195  0.00  0.00    +0.012 C 
ENDROOT
BRANCH   1   2
ATOM      2  N   UNL     1      38.236 -26.847 -14.310  0.00  0.00    +0.388 N 
ATOM      3  H   UNL     1      38.757 -27.270 -15.077  0.00  0.00    -0.089 HD
ATOM      4  H   UNL     1      37.235 -26.926 -14.493  0.00  0.00    -0.089 HD
ATOM      5  H   UNL     1      38.461 -27.327 -13.439  0.00  0.00    -0.089 HD
ENDBRANCH   1   2
BRANCH   1   6
ATOM      6  P   UNL     1      40.356 -25.527 -14.596  0.00  0.00    +0.180 P 
ATOM      7  O   UNL     1      41.000 -26.677 -13.861  0.00  0.00    -0.296 OA
ATOM      8  H   UNL     1      41.030 -24.389 -14.992  0.00  0.00    +0.127 HD
BRANCH   6   9
ATOM      9  O   UNL     1      40.272 -25.855 -16.189  0.00  0.00    -0.346 OA
ATOM     10  H   UNL     1      39.433 -26.298 -16.384  0.00  0.00    +0.217 HD
ENDBRANCH   6   9
ENDBRANCH   1   6
BRANCH   1  11
ATOM     11  C   UNL     1      38.241 -24.829 -12.838  0.00  0.00    -0.001 C 
BRANCH  11  12
ATOM     12  C   UNL     1      36.958 -24.000 -12.829  0.00  0.00    +0.056 C 
BRANCH  12  13
ATOM     13  S   UNL     1      36.538 -23.461 -14.514  0.00  0.00    -0.139 S 
ATOM     14  C   UNL     1      35.055 -24.467 -14.747  0.00  0.00    +0.069 C 
ENDBRANCH  12  13
ENDBRANCH  11  12
ENDBRANCH   1  11
TORSDOF 6
ENDMDL
MODEL 3
REMARK VINA RESULT:      -4.7      2.619      2.833
REMARK  Name = 5288837
REMARK  6 active torsions:
REMARK  status: ('A' for Active; 'I' for Inactive)
REMARK    1  A    between atoms: C_1  and  N_2
REMARK    2  A    between atoms: C_1  and  P_6
REMARK    3  A    between atoms: C_1  and  C_11
REMARK    4  A    between atoms: P_6  and  O_9
REMARK    5  A    between atoms: C_11  and  C_12
REMARK    6  A    between atoms: C_12  and  S_13
REMARK                            x       y       z     vdW  Elec       q    Type
REMARK                         _______ _______ _______ _____ _____    ______ ____
ROOT
ATOM      1  C   UNL     1      38.371 -25.628 -14.799  0.00  0.00    +0.012 C 
ENDROOT
BRANCH   1   2
ATOM      2  N   UNL     1      38.256 -24.338 -15.465  0.00  0.00    +0.388 N 
ATOM      3  H   UNL     1      39.186 -24.003 -15.720  0.00  0.00    -0.089 HD
ATOM      4  H   UNL     1      37.814 -23.669 -14.836  0.00  0.00    -0.089 HD
ATOM      5  H   UNL     1      37.689 -24.440 -16.307  0.00  0.00    -0.089 HD
ENDBRANCH   1   2
BRANCH   1   6
ATOM      6  P   UNL     1      36.693 -26.257 -15.027  0.00  0.00    +0.180 P 
ATOM      7  O   UNL     1      35.774 -25.140 -15.460  0.00  0.00    -0.296 OA
ATOM      8  H   UNL     1      36.275 -27.376 -14.334  0.00  0.00    +0.127 HD
BRANCH   6   9
ATOM      9  O   UNL     1      36.937 -27.291 -16.260  0.00  0.00    -0.346 OA
ATOM     10  H   UNL     1      37.431 -28.062 -15.943  0.00  0.00    +0.217 HD
ENDBRANCH   6   9
ENDBRANCH   1   6
BRANCH   1  11
ATOM     11  C   UNL     1      38.864 -25.525 -13.354  0.00  0.00    -0.001 C 
BRANCH  11  12
ATOM     12  C   UNL     1      37.754 -25.431 -12.307  0.00  0.00    +0.056 C 
BRANCH  12  13
ATOM     13  S   UNL     1      37.385 -23.691 -11.927  0.00  0.00    -0.139 S 
ATOM     14  C   UNL     1      35.591 -23.755 -12.136  0.00  0.00    +0.069 C 
ENDBRANCH  12  13
ENDBRANCH  11  12
ENDBRANCH   1  11
TORSDOF 6
ENDMDL
MODEL 4
REMARK VINA RESULT:      -4.5      4.481      4.896
REMARK  Name = 5288837
REMARK  6 active torsions:
REMARK  status: ('A' for Active; 'I' for Inactive)
REMARK    1  A    between atoms: C_1  and  N_2
REMARK    2  A    between atoms: C_1  and  P_6
REMARK    3  A    between atoms: C_1  and  C_11
REMARK    4  A    between atoms: P_6  and  O_9
REMARK    5  A    between atoms: C_11  and  C_12
REMARK    6  A    between atoms: C_12  and  S_13
REMARK                            x       y       z     vdW  Elec       q    Type
REMARK                         _______ _______ _______ _____ _____    ______ ____
ROOT
ATOM      1  C   UNL     1      37.101 -23.357 -12.367  0.00  0.00    +0.012 C 
ENDROOT
BRANCH   1   2
ATOM      2  N   UNL     1      38.297 -23.713 -11.615  0.00  0.00    +0.388 N 
ATOM      3  H   UNL     1      38.972 -22.950 -11.667  0.00  0.00    -0.089 HD
ATOM      4  H   UNL     1      38.709 -24.558 -12.012  0.00  0.00    -0.089 HD
ATOM      5  H   UNL     1      38.049 -23.882 -10.641  0.00  0.00    -0.089 HD
ENDBRANCH   1   2
BRANCH   1   6
ATOM      6  P   UNL     1      35.864 -24.331 -11.481  0.00  0.00    +0.180 P 
ATOM      7  O   UNL     1      36.059 -24.188  -9.991  0.00  0.00    -0.296 OA
ATOM      8  H   UNL     1      35.296 -25.436 -12.083  0.00  0.00    +0.127 HD
BRANCH   6   9
ATOM      9  O   UNL     1      34.506 -23.561 -11.944  0.00  0.00    -0.346 OA
ATOM     10  H   UNL     1      34.019 -24.114 -12.574  0.00  0.00    +0.217 HD
ENDBRANCH   6   9
ENDBRANCH   1   6
BRANCH   1  11
ATOM     11  C   UNL     1      37.225 -23.623 -13.868  0.00  0.00    -0.001 C 
BRANCH  11  12
ATOM     12  C   UNL     1      36.597 -24.936 -14.336  0.00  0.00    +0.056 C 
BRANCH  12  13
ATOM     13  S   UNL     1      37.852 -26.249 -14.414  0.00  0.00    -0.139 S 
ATOM     14  C   UNL     1      39.285 -25.217 -14.799  0.00  0.00    +0.069 C 
ENDBRANCH  12  13
ENDBRANCH  11  12
ENDBRANCH   1  11
TORSDOF 6
ENDMDL
MODEL 5
REMARK VINA RESULT:      -4.5      4.148      4.680
REMARK  Name = 5288837
REMARK  6 active torsions:
REMARK  status: ('A' for Active; 'I' for Inactive)
REMARK    1  A    between atoms: C_1  and  N_2
REMARK    2  A    between atoms: C_1  and  P_6
REMARK    3  A    between atoms: C_1  and  C_11
REMARK    4  A    between atoms: P_6  and  O_9
REMARK    5  A    between atoms: C_11  and  C_12
REMARK    6  A    between atoms: C_12  and  S_13
REMARK                            x       y       z     vdW  Elec       q    Type
REMARK                         _______ _______ _______ _____ _____    ______ ____
ROOT
ATOM      1  C   UNL     1      35.835 -24.596 -13.038  0.00  0.00    +0.012 C 
ENDROOT
BRANCH   1   2
ATOM      2  N   UNL     1      34.386 -24.692 -13.151  0.00  0.00    +0.388 N 
ATOM      3  H   UNL     1      34.005 -25.104 -12.300  0.00  0.00    -0.089 HD
ATOM      4  H   UNL     1      34.146 -25.279 -13.950  0.00  0.00    -0.089 HD
ATOM      5  H   UNL     1      33.993 -23.761 -13.284  0.00  0.00    -0.089 HD
ENDBRANCH   1   2
BRANCH   1   6
ATOM      6  P   UNL     1      35.992 -24.162 -11.291  0.00  0.00    +0.180 P 
ATOM      7  O   UNL     1      35.265 -25.173 -10.437  0.00  0.00    -0.296 OA
ATOM      8  H   UNL     1      36.200 -22.848 -10.923  0.00  0.00    +0.127 HD
BRANCH   6   9
ATOM      9  O   UNL     1      37.601 -24.319 -11.098  0.00  0.00    -0.346 OA
ATOM     10  H   UNL     1      37.938 -24.984 -11.718  0.00  0.00    +0.217 HD
ENDBRANCH   6   9
ENDBRANCH   1   6
BRANCH   1  11
ATOM     11  C   UNL     1      36.461 -23.620 -14.037  0.00  0.00    -0.001 C 
BRANCH  11  12
ATOM     12  C   UNL     1      37.385 -24.269 -15.066  0.00  0.00    +0.056 C 
BRANCH  12  13
ATOM     13  S   UNL     1      37.866 -25.937 -14.527  0.00  0.00    -0.139 S 
ATOM     14  C   UNL     1      39.496 -25.535 -13.856  0.00  0.00    +0.069 C 
ENDBRANCH  12  13
ENDBRANCH  11  12
ENDBRANCH   1  11
TORSDOF 6
ENDMDL
MODEL 6
REMARK VINA RESULT:      -4.5     12.110     12.605
REMARK  Name = 5288837
REMARK  6 active torsions:
REMARK  status: ('A' for Active; 'I' for Inactive)
REMARK    1  A    between atoms: C_1  and  N_2
REMARK    2  A    between atoms: C_1  and  P_6
REMARK    3  A    between atoms: C_1  and  C_11
REMARK    4  A    between atoms: P_6  and  O_9
REMARK    5  A    between atoms: C_11  and  C_12
REMARK    6  A    between atoms: C_12  and  S_13
REMARK                            x       y       z     vdW  Elec       q    Type
REMARK                         _______ _______ _______ _____ _____    ______ ____
ROOT
ATOM      1  C   UNL     1      35.321 -18.367 -23.650  0.00  0.00    +0.012 C 
ENDROOT
BRANCH   1   2
ATOM      2  N   UNL     1      36.404 -17.884 -22.805  0.00  0.00    +0.388 N 
ATOM      3  H   UNL     1      36.017 -17.334 -22.037  0.00  0.00    -0.089 HD
ATOM      4  H   UNL     1      37.032 -17.300 -23.358  0.00  0.00    -0.089 HD
ATOM      5  H   UNL     1      36.921 -18.677 -22.427  0.00  0.00    -0.089 HD
ENDBRANCH   1   2
BRANCH   1   6
ATOM      6  P   UNL     1      34.587 -16.798 -24.162  0.00  0.00    +0.180 P 
ATOM      7  O   UNL     1      35.294 -15.649 -23.484  0.00  0.00    -0.296 OA
ATOM      8  H   UNL     1      33.274 -16.755 -24.583  0.00  0.00    +0.127 HD
BRANCH   6   9
ATOM      9  O   UNL     1      34.945 -16.817 -25.750  0.00  0.00    -0.346 OA
ATOM     10  H   UNL     1      35.905 -16.756 -25.866  0.00  0.00    +0.217 HD
ENDBRANCH   6   9
ENDBRANCH   1   6
BRANCH   1  11
ATOM     11  C   UNL     1      34.388 -19.351 -22.941  0.00  0.00    -0.001 C 
BRANCH  11  12
ATOM     12  C   UNL     1      34.500 -19.349 -21.417  0.00  0.00    +0.056 C 
BRANCH  12  13
ATOM     13  S   UNL     1      32.988 -20.025 -20.666  0.00  0.00    -0.139 S 
ATOM     14  C   UNL     1      33.755 -21.306 -19.647  0.00  0.00    +0.069 C 
ENDBRANCH  12  13
ENDBRANCH  11  12
ENDBRANCH   1  11
TORSDOF 6
ENDMDL
MODEL 7
REMARK VINA RESULT:      -4.4      9.462     10.191
REMARK  Name = 5288837
REMARK  6 active torsions:
REMARK  status: ('A' for Active; 'I' for Inactive)
REMARK    1  A    between atoms: C_1  and  N_2
REMARK    2  A    between atoms: C_1  and  P_6
REMARK    3  A    between atoms: C_1  and  C_11
REMARK    4  A    between atoms: P_6  and  O_9
REMARK    5  A    between atoms: C_11  and  C_12
REMARK    6  A    between atoms: C_12  and  S_13
REMARK                            x       y       z     vdW  Elec       q    Type
REMARK                         _______ _______ _______ _____ _____    ______ ____
ROOT
ATOM      1  C   UNL     1      28.943 -23.332 -15.231  0.00  0.00    +0.012 C 
ENDROOT
BRANCH   1   2
ATOM      2  N   UNL     1      28.977 -24.762 -15.503  0.00  0.00    +0.388 N 
ATOM      3  H   UNL     1      29.047 -24.916 -16.509  0.00  0.00    -0.089 HD
ATOM      4  H   UNL     1      28.123 -25.196 -15.152  0.00  0.00    -0.089 HD
ATOM      5  H   UNL     1      29.785 -25.177 -15.039  0.00  0.00    -0.089 HD
ENDBRANCH   1   2
BRANCH   1   6
ATOM      6  P   UNL     1      27.960 -22.762 -16.636  0.00  0.00    +0.180 P 
ATOM      7  O   UNL     1      27.738 -23.895 -17.608  0.00  0.00    -0.296 OA
ATOM      8  H   UNL     1      27.978 -21.429 -16.995  0.00  0.00    +0.127 HD
BRANCH   6   9
ATOM      9  O   UNL     1      26.566 -22.390 -15.881  0.00  0.00    -0.346 OA
ATOM     10  H   UNL     1      25.883 -22.199 -16.540  0.00  0.00    +0.217 HD
ENDBRANCH   6   9
ENDBRANCH   1   6
BRANCH   1  11
ATOM     11  C   UNL     1      30.331 -22.708 -15.078  0.00  0.00    -0.001 C 
BRANCH  11  12
ATOM     12  C   UNL     1      31.369 -23.210 -16.082  0.00  0.00    +0.056 C 
BRANCH  12  13
ATOM     13  S   UNL     1      32.950 -23.543 -15.249  0.00  0.00    -0.139 S 
ATOM     14  C   UNL     1      32.338 -24.655 -13.963  0.00  0.00    +0.069 C 
ENDBRANCH  12  13
ENDBRANCH  11  12
ENDBRANCH   1  11
TORSDOF 6
ENDMDL
MODEL 8
REMARK VINA RESULT:      -4.4      3.624      3.942
REMARK  Name = 5288837
REMARK  6 active torsions:
REMARK  status: ('A' for Active; 'I' for Inactive)
REMARK    1  A    between atoms: C_1  and  N_2
REMARK    2  A    between atoms: C_1  and  P_6
REMARK    3  A    between atoms: C_1  and  C_11
REMARK    4  A    between atoms: P_6  and  O_9
REMARK    5  A    between atoms: C_11  and  C_12
REMARK    6  A    between atoms: C_12  and  S_13
REMARK                            x       y       z     vdW  Elec       q    Type
REMARK                         _______ _______ _______ _____ _____    ______ ____
ROOT
ATOM      1  C   UNL     1      36.593 -25.415 -14.981  0.00  0.00    +0.012 C 
ENDROOT
BRANCH   1   2
ATOM      2  N   UNL     1      35.921 -26.689 -15.198  0.00  0.00    +0.388 N 
ATOM      3  H   UNL     1      35.103 -26.750 -14.591  0.00  0.00    -0.089 HD
ATOM      4  H   UNL     1      36.562 -27.452 -14.982  0.00  0.00    -0.089 HD
ATOM      5  H   UNL     1      35.627 -26.757 -16.172  0.00  0.00    -0.089 HD
ENDBRANCH   1   2
BRANCH   1   6
ATOM      6  P   UNL     1      37.766 -25.886 -13.691  0.00  0.00    +0.180 P 
ATOM      7  O   UNL     1      37.041 -26.558 -12.550  0.00  0.00    -0.296 OA
ATOM      8  H   UNL     1      38.953 -25.195 -13.552  0.00  0.00    +0.127 HD
BRANCH   6   9
ATOM      9  O   UNL     1      38.664 -26.976 -14.502  0.00  0.00    -0.346 OA
ATOM     10  H   UNL     1      39.418 -27.244 -13.956  0.00  0.00    +0.217 HD
ENDBRANCH   6   9
ENDBRANCH   1   6
BRANCH   1  11
ATOM     11  C   UNL     1      35.635 -24.272 -14.640  0.00  0.00    -0.001 C 
BRANCH  11  12
ATOM     12  C   UNL     1      35.518 -23.196 -15.718  0.00  0.00    +0.056 C 
BRANCH  12  13
ATOM     13  S   UNL     1      37.146 -22.463 -16.065  0.00  0.00    -0.139 S 
ATOM     14  C   UNL     1      36.767 -21.740 -17.678  0.00  0.00    +0.069 C 
ENDBRANCH  12  13
ENDBRANCH  11  12
ENDBRANCH   1  11
TORSDOF 6
ENDMDL
MODEL 9
REMARK VINA RESULT:      -4.4      9.591     10.099
REMARK  Name = 5288837
REMARK  6 active torsions:
REMARK  status: ('A' for Active; 'I' for Inactive)
REMARK    1  A    between atoms: C_1  and  N_2
REMARK    2  A    between atoms: C_1  and  P_6
REMARK    3  A    between atoms: C_1  and  C_11
REMARK    4  A    between atoms: P_6  and  O_9
REMARK    5  A    between atoms: C_11  and  C_12
REMARK    6  A    between atoms: C_12  and  S_13
REMARK                            x       y       z     vdW  Elec       q    Type
REMARK                         _______ _______ _______ _____ _____    ______ ____
ROOT
ATOM      1  C   UNL     1      33.827 -21.190 -20.220  0.00  0.00    +0.012 C 
ENDROOT
BRANCH   1   2
ATOM      2  N   UNL     1      32.636 -20.523 -19.714  0.00  0.00    +0.388 N 
ATOM      3  H   UNL     1      32.883 -19.950 -18.908  0.00  0.00    -0.089 HD
ATOM      4  H   UNL     1      31.947 -21.222 -19.436  0.00  0.00    -0.089 HD
ATOM      5  H   UNL     1      32.242 -19.930 -20.444  0.00  0.00    -0.089 HD
ENDBRANCH   1   2
BRANCH   1   6
ATOM      6  P   UNL     1      34.066 -22.438 -18.937  0.00  0.00    +0.180 P 
ATOM      7  O   UNL     1      33.905 -23.821 -19.520  0.00  0.00    -0.296 OA
ATOM      8  H   UNL     1      33.819 -22.125 -17.615  0.00  0.00    +0.127 HD
BRANCH   6   9
ATOM      9  O   UNL     1      35.626 -22.168 -18.558  0.00  0.00    -0.346 OA
ATOM     10  H   UNL     1      36.035 -22.996 -18.265  0.00  0.00    +0.217 HD
ENDBRANCH   6   9
ENDBRANCH   1   6
BRANCH   1  11
ATOM     11  C   UNL     1      35.000 -20.238 -20.465  0.00  0.00    -0.001 C 
BRANCH  11  12
ATOM     12  C   UNL     1      34.857 -19.358 -21.706  0.00  0.00    +0.056 C 
BRANCH  12  13
ATOM     13  S   UNL     1      34.994 -17.600 -21.259  0.00  0.00    -0.139 S 
ATOM     14  C   UNL     1      35.209 -16.925 -22.921  0.00  0.00    +0.069 C 
ENDBRANCH  12  13
ENDBRANCH  11  12
ENDBRANCH   1  11
TORSDOF 6
ENDMDL
