MODEL 1
REMARK VINA RESULT:      -5.8      0.000      0.000
REMARK  Name = 6992098
REMARK  6 active torsions:
REMARK  status: ('A' for Active; 'I' for Inactive)
REMARK    1  A    between atoms: C_1  and  CA_2
REMARK    2  A    between atoms: C_1  and  C_10
REMARK    3  A    between atoms: CA_2  and  N_3
REMARK    4  A    between atoms: CA_2  and  C_9
REMARK    5  A    between atoms: C_10  and  C_11
REMARK    6  A    between atoms: C_11  and  N_13
REMARK                            x       y       z     vdW  Elec       q    Type
REMARK                         _______ _______ _______ _____ _____    ______ ____
ROOT
ATOM      1  C   UNL     1      38.471 -25.533 -13.009  0.00  0.00    -0.009 C 
ENDROOT
BRANCH   1   2
ATOM      2  CA  UNL     1      38.771 -25.207 -14.478  0.00  0.00    +0.040 C 
BRANCH   2   3
ATOM      3  N   UNL     1      37.845 -26.029 -15.319  0.00  0.00    +0.389 N 
ATOM      4  H1  UNL     1      37.460 -26.789 -14.757  0.00  0.00    -0.088 HD
ATOM      5  H2  UNL     1      38.358 -26.417 -16.111  0.00  0.00    -0.088 HD
ATOM      6  H3  UNL     1      37.085 -25.441 -15.662  0.00  0.00    -0.088 HD
ENDBRANCH   2   3
BRANCH   2   9
ATOM      7  O   UNL     1      41.055 -24.598 -14.214  0.00  0.00    -0.248 OA
ATOM      8  OXT UNL     1      40.495 -26.093 -15.843  0.00  0.00    -0.248 OA
ATOM      9  C   UNL     1      40.251 -25.300 -14.889  0.00  0.00    +0.345 C 
ENDBRANCH   2   9
ENDBRANCH   1   2
BRANCH   1  10
ATOM     10  C   UNL     1      38.060 -24.321 -12.161  0.00  0.00    +0.020 C 
BRANCH  10  11
ATOM     11  C   UNL     1      36.549 -24.236 -11.978  0.00  0.00    +0.091 C 
BRANCH  11  13
ATOM     12  O   UNL     1      35.188 -24.841 -14.465  0.00  0.00    -0.253 OA
ATOM     13  N   UNL     1      35.948 -23.292 -12.908  0.00  0.00    -0.289 N 
ATOM     14  N   UNL     1      34.833 -22.595 -14.780  0.00  0.00    -0.313 N 
ATOM     15  C   UNL     1      35.317 -23.682 -14.075  0.00  0.00    +0.298 C 
ATOM     16  H   UNL     1      35.992 -22.331 -12.697  0.00  0.00    +0.151 HD
ATOM     17  H   UNL     1      34.361 -22.731 -15.633  0.00  0.00    +0.146 HD
ATOM     18  H   UNL     1      34.962 -21.684 -14.429  0.00  0.00    +0.146 HD
ENDBRANCH  11  13
ENDBRANCH  10  11
ENDBRANCH   1  10
TORSDOF 6
ENDMDL
MODEL 2
REMARK VINA RESULT:      -5.8      6.395      9.229
REMARK  Name = 6992098
REMARK  6 active torsions:
REMARK  status: ('A' for Active; 'I' for Inactive)
REMARK    1  A    between atoms: C_1  and  CA_2
REMARK    2  A    between atoms: C_1  and  C_10
REMARK    3  A    between atoms: CA_2  and  N_3
REMARK    4  A    between atoms: CA_2  and  C_9
REMARK    5  A    between atoms: C_10  and  C_11
REMARK    6  A    between atoms: C_11  and  N_13
REMARK                            x       y       z     vdW  Elec       q    Type
REMARK                         _______ _______ _______ _____ _____    ______ ____
ROOT
ATOM      1  C   UNL     1      30.449 -22.621 -16.410  0.00  0.00    -0.009 C 
ENDROOT
BRANCH   1   2
ATOM      2  CA  UNL     1      29.053 -23.107 -15.996  0.00  0.00    +0.040 C 
BRANCH   2   3
ATOM      3  N   UNL     1      29.177 -24.546 -15.602  0.00  0.00    +0.389 N 
ATOM      4  H1  UNL     1      29.376 -25.109 -16.429  0.00  0.00    -0.088 HD
ATOM      5  H2  UNL     1      28.303 -24.859 -15.179  0.00  0.00    -0.088 HD
ATOM      6  H3  UNL     1      29.937 -24.650 -14.929  0.00  0.00    -0.088 HD
ENDBRANCH   2   3
BRANCH   2   9
ATOM      7  O   UNL     1      27.543 -23.803 -17.696  0.00  0.00    -0.248 OA
ATOM      8  OXT UNL     1      27.490 -21.633 -16.996  0.00  0.00    -0.248 OA
ATOM      9  C   UNL     1      27.924 -22.820 -17.001  0.00  0.00    +0.345 C 
ENDBRANCH   2   9
ENDBRANCH   1   2
BRANCH   1  10
ATOM     10  C   UNL     1      31.606 -23.438 -15.819  0.00  0.00    +0.020 C 
BRANCH  10  11
ATOM     11  C   UNL     1      32.848 -23.392 -16.702  0.00  0.00    +0.091 C 
BRANCH  11  13
ATOM     12  O   UNL     1      34.791 -22.578 -18.694  0.00  0.00    -0.253 OA
ATOM     13  N   UNL     1      32.591 -22.699 -17.956  0.00  0.00    -0.289 N 
ATOM     14  N   UNL     1      33.083 -21.705 -19.956  0.00  0.00    -0.313 N 
ATOM     15  C   UNL     1      33.592 -22.353 -18.844  0.00  0.00    +0.298 C 
ATOM     16  H   UNL     1      31.661 -22.466 -18.182  0.00  0.00    +0.151 HD
ATOM     17  H   UNL     1      33.690 -21.402 -20.669  0.00  0.00    +0.146 HD
ATOM     18  H   UNL     1      32.115 -21.545 -20.032  0.00  0.00    +0.146 HD
ENDBRANCH  11  13
ENDBRANCH  10  11
ENDBRANCH   1  10
TORSDOF 6
ENDMDL
MODEL 3
REMARK VINA RESULT:      -5.8      1.876      2.722
REMARK  Name = 6992098
REMARK  6 active torsions:
REMARK  status: ('A' for Active; 'I' for Inactive)
REMARK    1  A    between atoms: C_1  and  CA_2
REMARK    2  A    between atoms: C_1  and  C_10
REMARK    3  A    between atoms: CA_2  and  N_3
REMARK    4  A    between atoms: CA_2  and  C_9
REMARK    5  A    between atoms: C_10  and  C_11
REMARK    6  A    between atoms: C_11  and  N_13
REMARK                            x       y       z     vdW  Elec       q    Type
REMARK                         _______ _______ _______ _____ _____    ______ ____
ROOT
ATOM      1  C   UNL     1      36.806 -24.695 -14.873  0.00  0.00    -0.009 C 
ENDROOT
BRANCH   1   2
ATOM      2  CA  UNL     1      37.746 -25.827 -14.437  0.00  0.00    +0.040 C 
BRANCH   2   3
ATOM      3  N   UNL     1      36.910 -26.868 -13.758  0.00  0.00    +0.389 N 
ATOM      4  H1  UNL     1      36.072 -26.432 -13.373  0.00  0.00    -0.088 HD
ATOM      5  H2  UNL     1      37.447 -27.297 -13.005  0.00  0.00    -0.088 HD
ATOM      6  H3  UNL     1      36.641 -27.582 -14.435  0.00  0.00    -0.088 HD
ENDBRANCH   2   3
BRANCH   2   9
ATOM      7  O   UNL     1      38.872 -24.311 -12.991  0.00  0.00    -0.248 OA
ATOM      8  OXT UNL     1      39.971 -26.180 -13.701  0.00  0.00    -0.248 OA
ATOM      9  C   UNL     1      38.986 -25.390 -13.638  0.00  0.00    +0.345 C 
ENDBRANCH   2   9
ENDBRANCH   1   2
BRANCH   1  10
ATOM     10  C   UNL     1      35.320 -24.964 -14.602  0.00  0.00    +0.020 C 
BRANCH  10  11
ATOM     11  C   UNL     1      34.739 -23.990 -13.582  0.00  0.00    +0.091 C 
BRANCH  11  13
ATOM     12  O   UNL     1      35.288 -25.036 -10.934  0.00  0.00    -0.253 OA
ATOM     13  N   UNL     1      35.751 -23.529 -12.642  0.00  0.00    -0.289 N 
ATOM     14  N   UNL     1      36.958 -23.477 -10.700  0.00  0.00    -0.313 N 
ATOM     15  C   UNL     1      35.935 -24.097 -11.396  0.00  0.00    +0.298 C 
ATOM     16  H   UNL     1      36.331 -22.778 -12.907  0.00  0.00    +0.151 HD
ATOM     17  H   UNL     1      37.194 -23.783  -9.795  0.00  0.00    +0.146 HD
ATOM     18  H   UNL     1      37.448 -22.728 -11.110  0.00  0.00    +0.146 HD
ENDBRANCH  11  13
ENDBRANCH  10  11
ENDBRANCH   1  10
TORSDOF 6
ENDMDL
MODEL 4
REMARK VINA RESULT:      -5.7      2.310      2.586
REMARK  Name = 6992098
REMARK  6 active torsions:
REMARK  status: ('A' for Active; 'I' for Inactive)
REMARK    1  A    between atoms: C_1  and  CA_2
REMARK    2  A    between atoms: C_1  and  C_10
REMARK    3  A    between atoms: CA_2  and  N_3
REMARK    4  A    between atoms: CA_2  and  C_9
REMARK    5  A    between atoms: C_10  and  C_11
REMARK    6  A    between atoms: C_11  and  N_13
REMARK                            x       y       z     vdW  Elec       q    Type
REMARK                         _______ _______ _______ _____ _____    ______ ____
ROOT
ATOM      1  C   UNL     1      38.041 -25.948 -13.165  0.00  0.00    -0.009 C 
ENDROOT
BRANCH   1   2
ATOM      2  CA  UNL     1      38.129 -26.107 -14.689  0.00  0.00    +0.040 C 
BRANCH   2   3
ATOM      3  N   UNL     1      38.964 -24.979 -15.211  0.00  0.00    +0.389 N 
ATOM      4  H1  UNL     1      39.923 -25.083 -14.878  0.00  0.00    -0.088 HD
ATOM      5  H2  UNL     1      38.583 -24.092 -14.880  0.00  0.00    -0.088 HD
ATOM      6  H3  UNL     1      38.956 -24.994 -16.231  0.00  0.00    -0.088 HD
ENDBRANCH   2   3
BRANCH   2   9
ATOM      7  O   UNL     1      35.958 -25.347 -15.290  0.00  0.00    -0.248 OA
ATOM      8  OXT UNL     1      36.678 -27.360 -16.082  0.00  0.00    -0.248 OA
ATOM      9  C   UNL     1      36.786 -26.291 -15.417  0.00  0.00    +0.345 C 
ENDBRANCH   2   9
ENDBRANCH   1   2
BRANCH   1  10
ATOM     10  C   UNL     1      38.582 -24.613 -12.634  0.00  0.00    +0.020 C 
BRANCH  10  11
ATOM     11  C   UNL     1      37.529 -23.843 -11.845  0.00  0.00    +0.091 C 
BRANCH  11  13
ATOM     12  O   UNL     1      34.847 -24.843 -11.379  0.00  0.00    -0.253 OA
ATOM     13  N   UNL     1      36.339 -23.587 -12.644  0.00  0.00    -0.289 N 
ATOM     14  N   UNL     1      34.138 -23.720 -13.252  0.00  0.00    -0.313 N 
ATOM     15  C   UNL     1      35.098 -24.114 -12.337  0.00  0.00    +0.298 C 
ATOM     16  H   UNL     1      36.422 -23.014 -13.440  0.00  0.00    +0.151 HD
ATOM     17  H   UNL     1      33.208 -24.025 -13.151  0.00  0.00    +0.146 HD
ATOM     18  H   UNL     1      34.386 -23.136 -14.004  0.00  0.00    +0.146 HD
ENDBRANCH  11  13
ENDBRANCH  10  11
ENDBRANCH   1  10
TORSDOF 6
ENDMDL
MODEL 5
REMARK VINA RESULT:      -5.7      2.802      4.125
REMARK  Name = 6992098
REMARK  6 active torsions:
REMARK  status: ('A' for Active; 'I' for Inactive)
REMARK    1  A    between atoms: C_1  and  CA_2
REMARK    2  A    between atoms: C_1  and  C_10
REMARK    3  A    between atoms: CA_2  and  N_3
REMARK    4  A    between atoms: CA_2  and  C_9
REMARK    5  A    between atoms: C_10  and  C_11
REMARK    6  A    between atoms: C_11  and  N_13
REMARK                            x       y       z     vdW  Elec       q    Type
REMARK                         _______ _______ _______ _____ _____    ______ ____
ROOT
ATOM      1  C   UNL     1      37.700 -25.773 -12.561  0.00  0.00    -0.009 C 
ENDROOT
BRANCH   1   2
ATOM      2  CA  UNL     1      37.197 -24.404 -12.085  0.00  0.00    +0.040 C 
BRANCH   2   3
ATOM      3  N   UNL     1      38.383 -23.639 -11.585  0.00  0.00    +0.389 N 
ATOM      4  H1  UNL     1      38.562 -22.847 -12.203  0.00  0.00    -0.088 HD
ATOM      5  H2  UNL     1      39.200 -24.250 -11.568  0.00  0.00    -0.088 HD
ATOM      6  H3  UNL     1      38.194 -23.297 -10.642  0.00  0.00    -0.088 HD
ENDBRANCH   2   3
BRANCH   2   9
ATOM      7  O   UNL     1      34.919 -24.869 -11.584  0.00  0.00    -0.248 OA
ATOM      8  OXT UNL     1      36.264 -24.046  -9.936  0.00  0.00    -0.248 OA
ATOM      9  C   UNL     1      36.007 -24.435 -11.111  0.00  0.00    +0.345 C 
ENDBRANCH   2   9
ENDBRANCH   1   2
BRANCH   1  10
ATOM     10  C   UNL     1      38.150 -25.808 -14.028  0.00  0.00    +0.020 C 
BRANCH  10  11
ATOM     11  C   UNL     1      37.071 -26.377 -14.944  0.00  0.00    +0.091 C 
BRANCH  11  13
ATOM     12  O   UNL     1      35.526 -24.115 -15.896  0.00  0.00    -0.253 OA
ATOM     13  N   UNL     1      35.738 -25.975 -14.517  0.00  0.00    -0.289 N 
ATOM     14  N   UNL     1      33.833 -24.711 -14.463  0.00  0.00    -0.313 N 
ATOM     15  C   UNL     1      35.082 -24.874 -15.035  0.00  0.00    +0.298 C 
ATOM     16  H   UNL     1      35.283 -26.512 -13.828  0.00  0.00    +0.151 HD
ATOM     17  H   UNL     1      33.258 -23.962 -14.741  0.00  0.00    +0.146 HD
ATOM     18  H   UNL     1      33.520 -25.343 -13.776  0.00  0.00    +0.146 HD
ENDBRANCH  11  13
ENDBRANCH  10  11
ENDBRANCH   1  10
TORSDOF 6
ENDMDL
MODEL 6
REMARK VINA RESULT:      -5.7      5.703      8.780
REMARK  Name = 6992098
REMARK  6 active torsions:
REMARK  status: ('A' for Active; 'I' for Inactive)
REMARK    1  A    between atoms: C_1  and  CA_2
REMARK    2  A    between atoms: C_1  and  C_10
REMARK    3  A    between atoms: CA_2  and  N_3
REMARK    4  A    between atoms: CA_2  and  C_9
REMARK    5  A    between atoms: C_10  and  C_11
REMARK    6  A    between atoms: C_11  and  N_13
REMARK                            x       y       z     vdW  Elec       q    Type
REMARK                         _______ _______ _______ _____ _____    ______ ____
ROOT
ATOM      1  C   UNL     1      29.181 -24.086 -15.086  0.00  0.00    -0.009 C 
ENDROOT
BRANCH   1   2
ATOM      2  CA  UNL     1      29.282 -23.578 -16.531  0.00  0.00    +0.040 C 
BRANCH   2   3
ATOM      3  N   UNL     1      30.553 -22.795 -16.644  0.00  0.00    +0.389 N 
ATOM      4  H1  UNL     1      31.338 -23.436 -16.762  0.00  0.00    -0.088 HD
ATOM      5  H2  UNL     1      30.689 -22.243 -15.797  0.00  0.00    -0.088 HD
ATOM      6  H3  UNL     1      30.498 -22.173 -17.450  0.00  0.00    -0.088 HD
ENDBRANCH   2   3
BRANCH   2   9
ATOM      7  O   UNL     1      27.867 -21.671 -16.647  0.00  0.00    -0.248 OA
ATOM      8  OXT UNL     1      27.343 -23.508 -17.892  0.00  0.00    -0.248 OA
ATOM      9  C   UNL     1      28.038 -22.849 -17.067  0.00  0.00    +0.345 C 
ENDBRANCH   2   9
ENDBRANCH   1   2
BRANCH   1  10
ATOM     10  C   UNL     1      30.161 -25.215 -14.740  0.00  0.00    +0.020 C 
BRANCH  10  11
ATOM     11  C   UNL     1      31.001 -24.887 -13.511  0.00  0.00    +0.091 C 
BRANCH  11  13
ATOM     12  O   UNL     1      33.035 -23.228 -14.741  0.00  0.00    -0.253 OA
ATOM     13  N   UNL     1      32.404 -25.215 -13.715  0.00  0.00    -0.289 N 
ATOM     14  N   UNL     1      34.567 -24.902 -14.389  0.00  0.00    -0.313 N 
ATOM     15  C   UNL     1      33.300 -24.351 -14.315  0.00  0.00    +0.298 C 
ATOM     16  H   UNL     1      32.730 -26.094 -13.412  0.00  0.00    +0.151 HD
ATOM     17  H   UNL     1      35.303 -24.391 -14.796  0.00  0.00    +0.146 HD
ATOM     18  H   UNL     1      34.732 -25.805 -14.036  0.00  0.00    +0.146 HD
ENDBRANCH  11  13
ENDBRANCH  10  11
ENDBRANCH   1  10
TORSDOF 6
ENDMDL
MODEL 7
REMARK VINA RESULT:      -5.6     11.641     13.058
REMARK  Name = 6992098
REMARK  6 active torsions:
REMARK  status: ('A' for Active; 'I' for Inactive)
REMARK    1  A    between atoms: C_1  and  CA_2
REMARK    2  A    between atoms: C_1  and  C_10
REMARK    3  A    between atoms: CA_2  and  N_3
REMARK    4  A    between atoms: CA_2  and  C_9
REMARK    5  A    between atoms: C_10  and  C_11
REMARK    6  A    between atoms: C_11  and  N_13
REMARK                            x       y       z     vdW  Elec       q    Type
REMARK                         _______ _______ _______ _____ _____    ______ ____
ROOT
ATOM      1  C   UNL     1      34.532 -18.389 -22.672  0.00  0.00    -0.009 C 
ENDROOT
BRANCH   1   2
ATOM      2  CA  UNL     1      35.366 -17.569 -21.679  0.00  0.00    +0.040 C 
BRANCH   2   3
ATOM      3  N   UNL     1      35.876 -18.513 -20.634  0.00  0.00    +0.389 N 
ATOM      4  H1  UNL     1      36.896 -18.534 -20.664  0.00  0.00    -0.088 HD
ATOM      5  H2  UNL     1      35.511 -19.448 -20.813  0.00  0.00    -0.088 HD
ATOM      6  H3  UNL     1      35.570 -18.198 -19.713  0.00  0.00    -0.088 HD
ENDBRANCH   2   3
BRANCH   2   9
ATOM      7  O   UNL     1      35.041 -15.960 -19.958  0.00  0.00    -0.248 OA
ATOM      8  OXT UNL     1      33.854 -15.757 -21.895  0.00  0.00    -0.248 OA
ATOM      9  C   UNL     1      34.681 -16.311 -21.116  0.00  0.00    +0.345 C 
ENDBRANCH   2   9
ENDBRANCH   1   2
BRANCH   1  10
ATOM     10  C   UNL     1      35.202 -18.605 -24.036  0.00  0.00    +0.020 C 
BRANCH  10  11
ATOM     11  C   UNL     1      34.548 -17.772 -25.133  0.00  0.00    +0.091 C 
BRANCH  11  13
ATOM     12  O   UNL     1      33.345 -15.617 -26.654  0.00  0.00    -0.253 OA
ATOM     13  N   UNL     1      34.118 -16.472 -24.636  0.00  0.00    -0.289 N 
ATOM     14  N   UNL     1      33.233 -14.366 -24.732  0.00  0.00    -0.313 N 
ATOM     15  C   UNL     1      33.552 -15.507 -25.447  0.00  0.00    +0.298 C 
ATOM     16  H   UNL     1      34.237 -16.272 -23.679  0.00  0.00    +0.151 HD
ATOM     17  H   UNL     1      32.823 -13.597 -25.189  0.00  0.00    +0.146 HD
ATOM     18  H   UNL     1      33.419 -14.322 -23.767  0.00  0.00    +0.146 HD
ENDBRANCH  11  13
ENDBRANCH  10  11
ENDBRANCH   1  10
TORSDOF 6
ENDMDL
MODEL 8
REMARK VINA RESULT:      -5.5     10.538     11.128
REMARK  Name = 6992098
REMARK  6 active torsions:
REMARK  status: ('A' for Active; 'I' for Inactive)
REMARK    1  A    between atoms: C_1  and  CA_2
REMARK    2  A    between atoms: C_1  and  C_10
REMARK    3  A    between atoms: CA_2  and  N_3
REMARK    4  A    between atoms: CA_2  and  C_9
REMARK    5  A    between atoms: C_10  and  C_11
REMARK    6  A    between atoms: C_11  and  N_13
REMARK                            x       y       z     vdW  Elec       q    Type
REMARK                         _______ _______ _______ _____ _____    ______ ____
ROOT
ATOM      1  C   UNL     1      41.439 -14.895 -18.386  0.00  0.00    -0.009 C 
ENDROOT
BRANCH   1   2
ATOM      2  CA  UNL     1      42.513 -15.934 -18.037  0.00  0.00    +0.040 C 
BRANCH   2   3
ATOM      3  N   UNL     1      42.963 -16.564 -19.319  0.00  0.00    +0.389 N 
ATOM      4  H1  UNL     1      43.979 -16.648 -19.317  0.00  0.00    -0.088 HD
ATOM      5  H2  UNL     1      42.671 -15.983 -20.104  0.00  0.00    -0.088 HD
ATOM      6  H3  UNL     1      42.545 -17.490 -19.407  0.00  0.00    -0.088 HD
ENDBRANCH   2   3
BRANCH   2   9
ATOM      7  O   UNL     1      41.338 -17.860 -17.283  0.00  0.00    -0.248 OA
ATOM      8  OXT UNL     1      42.679 -16.744 -15.816  0.00  0.00    -0.248 OA
ATOM      9  C   UNL     1      42.131 -16.941 -16.937  0.00  0.00    +0.345 C 
ENDBRANCH   2   9
ENDBRANCH   1   2
BRANCH   1  10
ATOM     10  C   UNL     1      41.662 -13.515 -17.752  0.00  0.00    +0.020 C 
BRANCH  10  11
ATOM     11  C   UNL     1      42.477 -13.601 -16.467  0.00  0.00    +0.091 C 
BRANCH  11  13
ATOM     12  O   UNL     1      40.669 -14.856 -14.580  0.00  0.00    -0.253 OA
ATOM     13  N   UNL     1      41.788 -12.970 -15.350  0.00  0.00    -0.289 N 
ATOM     14  N   UNL     1      40.415 -12.832 -13.527  0.00  0.00    -0.313 N 
ATOM     15  C   UNL     1      40.941 -13.659 -14.502  0.00  0.00    +0.298 C 
ATOM     16  H   UNL     1      41.931 -12.009 -15.192  0.00  0.00    +0.151 HD
ATOM     17  H   UNL     1      39.793 -13.195 -12.856  0.00  0.00    +0.146 HD
ATOM     18  H   UNL     1      40.661 -11.879 -13.505  0.00  0.00    +0.146 HD
ENDBRANCH  11  13
ENDBRANCH  10  11
ENDBRANCH   1  10
TORSDOF 6
ENDMDL
MODEL 9
REMARK VINA RESULT:      -5.4      9.557     10.983
REMARK  Name = 6992098
REMARK  6 active torsions:
REMARK  status: ('A' for Active; 'I' for Inactive)
REMARK    1  A    between atoms: C_1  and  CA_2
REMARK    2  A    between atoms: C_1  and  C_10
REMARK    3  A    between atoms: CA_2  and  N_3
REMARK    4  A    between atoms: CA_2  and  C_9
REMARK    5  A    between atoms: C_10  and  C_11
REMARK    6  A    between atoms: C_11  and  N_13
REMARK                            x       y       z     vdW  Elec       q    Type
REMARK                         _______ _______ _______ _____ _____    ______ ____
ROOT
ATOM      1  C   UNL     1      34.214 -19.208 -21.148  0.00  0.00    -0.009 C 
ENDROOT
BRANCH   1   2
ATOM      2  CA  UNL     1      34.066 -20.609 -20.540  0.00  0.00    +0.040 C 
BRANCH   2   3
ATOM      3  N   UNL     1      32.788 -20.628 -19.760  0.00  0.00    +0.389 N 
ATOM      4  H1  UNL     1      32.509 -19.671 -19.542  0.00  0.00    -0.088 HD
ATOM      5  H2  UNL     1      32.926 -21.149 -18.894  0.00  0.00    -0.088 HD
ATOM      6  H3  UNL     1      32.058 -21.077 -20.315  0.00  0.00    -0.088 HD
ENDBRANCH   2   3
BRANCH   2   9
ATOM      7  O   UNL     1      35.193 -22.303 -19.309  0.00  0.00    -0.248 OA
ATOM      8  OXT UNL     1      36.263 -20.327 -19.698  0.00  0.00    -0.248 OA
ATOM      9  C   UNL     1      35.289 -21.130 -19.765  0.00  0.00    +0.345 C 
ENDBRANCH   2   9
ENDBRANCH   1   2
BRANCH   1  10
ATOM     10  C   UNL     1      34.575 -19.198 -22.640  0.00  0.00    +0.020 C 
BRANCH  10  11
ATOM     11  C   UNL     1      35.433 -17.994 -23.012  0.00  0.00    +0.091 C 
BRANCH  11  13
ATOM     12  O   UNL     1      34.886 -17.101 -25.716  0.00  0.00    -0.253 OA
ATOM     13  N   UNL     1      34.618 -16.859 -23.420  0.00  0.00    -0.289 N 
ATOM     14  N   UNL     1      33.607 -15.398 -24.859  0.00  0.00    -0.313 N 
ATOM     15  C   UNL     1      34.417 -16.513 -24.743  0.00  0.00    +0.298 C 
ATOM     16  H   UNL     1      34.192 -16.311 -22.721  0.00  0.00    +0.151 HD
ATOM     17  H   UNL     1      33.383 -15.042 -25.749  0.00  0.00    +0.146 HD
ATOM     18  H   UNL     1      33.256 -14.958 -24.051  0.00  0.00    +0.146 HD
ENDBRANCH  11  13
ENDBRANCH  10  11
ENDBRANCH   1  10
TORSDOF 6
ENDMDL
