MODEL 1
REMARK VINA RESULT:      -6.2      0.000      0.000
REMARK  Name = 2723601
REMARK  0 active torsions:
REMARK  status: ('A' for Active; 'I' for Inactive)
REMARK                            x       y       z     vdW  Elec       q    Type
REMARK                         _______ _______ _______ _____ _____    ______ ____
ROOT
ATOM      1  S   UNL     1      34.210 -14.793 -20.928  0.00  0.00    +0.025 S 
ATOM      2  N   UNL     1      35.575 -18.741 -22.638  0.00  0.00    -0.263 N 
ATOM      3  N   UNL     1      34.188 -15.887 -23.982  0.00  0.00    -0.307 N 
ATOM      4  N   UNL     1      34.876 -17.855 -24.782  0.00  0.00    -0.303 N 
ATOM      5  N   UNL     1      35.275 -17.294 -20.723  0.00  0.00    -0.330 NA
ATOM      6  N   UNL     1      36.194 -19.442 -20.536  0.00  0.00    -0.320 N 
ATOM      7  C   UNL     1      34.646 -16.590 -22.900  0.00  0.00    +0.138 C 
ATOM      8  C   UNL     1      35.057 -17.788 -23.433  0.00  0.00    +0.124 C 
ATOM      9  C   UNL     1      34.735 -16.277 -21.498  0.00  0.00    +0.059 C 
ATOM     10  C   UNL     1      35.655 -18.423 -21.284  0.00  0.00    +0.246 C 
ATOM     11  C   UNL     1      34.347 -16.688 -25.085  0.00  0.00    +0.183 C 
ATOM     12  H   UNL     1      35.878 -19.609 -22.991  0.00  0.00    +0.157 HD
ATOM     13  H   UNL     1      33.813 -14.976 -23.971  0.00  0.00    +0.149 HD
ATOM     14  H   UNL     1      35.090 -18.600 -25.388  0.00  0.00    +0.150 HD
ATOM     15  H   UNL     1      36.472 -20.280 -20.972  0.00  0.00    +0.146 HD
ATOM     16  H   UNL     1      36.302 -19.334 -19.563  0.00  0.00    +0.146 HD
ENDROOT
TORSDOF 0
ENDMDL
MODEL 2
REMARK VINA RESULT:      -6.1      1.835      2.851
REMARK  Name = 2723601
REMARK  0 active torsions:
REMARK  status: ('A' for Active; 'I' for Inactive)
REMARK                            x       y       z     vdW  Elec       q    Type
REMARK                         _______ _______ _______ _____ _____    ______ ____
ROOT
ATOM      1  S   UNL     1      34.569 -17.731 -25.066  0.00  0.00    +0.025 S 
ATOM      2  N   UNL     1      35.331 -17.374 -20.631  0.00  0.00    -0.263 N 
ATOM      3  N   UNL     1      34.195 -15.209 -23.061  0.00  0.00    -0.307 N 
ATOM      4  N   UNL     1      34.587 -15.080 -20.865  0.00  0.00    -0.303 N 
ATOM      5  N   UNL     1      35.342 -18.715 -22.644  0.00  0.00    -0.330 NA
ATOM      6  N   UNL     1      36.008 -19.572 -20.566  0.00  0.00    -0.320 N 
ATOM      7  C   UNL     1      34.645 -16.448 -22.688  0.00  0.00    +0.138 C 
ATOM      8  C   UNL     1      34.874 -16.325 -21.338  0.00  0.00    +0.124 C 
ATOM      9  C   UNL     1      34.871 -17.666 -23.421  0.00  0.00    +0.059 C 
ATOM     10  C   UNL     1      35.544 -18.546 -21.354  0.00  0.00    +0.246 C 
ATOM     11  C   UNL     1      34.179 -14.426 -21.933  0.00  0.00    +0.183 C 
ATOM     12  H   UNL     1      35.504 -17.317 -19.664  0.00  0.00    +0.157 HD
ATOM     13  H   UNL     1      33.933 -14.931 -23.968  0.00  0.00    +0.149 HD
ATOM     14  H   UNL     1      34.667 -14.747 -19.943  0.00  0.00    +0.150 HD
ATOM     15  H   UNL     1      36.153 -19.427 -19.604  0.00  0.00    +0.146 HD
ATOM     16  H   UNL     1      36.196 -20.452 -20.966  0.00  0.00    +0.146 HD
ENDROOT
TORSDOF 0
ENDMDL
MODEL 3
REMARK VINA RESULT:      -6.1      9.957     11.457
REMARK  Name = 2723601
REMARK  0 active torsions:
REMARK  status: ('A' for Active; 'I' for Inactive)
REMARK                            x       y       z     vdW  Elec       q    Type
REMARK                         _______ _______ _______ _____ _____    ______ ____
ROOT
ATOM      1  S   UNL     1      37.198 -22.189 -16.375  0.00  0.00    +0.025 S 
ATOM      2  N   UNL     1      36.222 -25.505 -13.471  0.00  0.00    -0.263 N 
ATOM      3  N   UNL     1      39.014 -24.656 -15.306  0.00  0.00    -0.307 N 
ATOM      4  N   UNL     1      38.485 -26.278 -13.865  0.00  0.00    -0.303 N 
ATOM      5  N   UNL     1      35.539 -23.516 -14.667  0.00  0.00    -0.330 NA
ATOM      6  N   UNL     1      34.104 -24.649 -13.199  0.00  0.00    -0.320 N 
ATOM      7  C   UNL     1      37.719 -24.414 -14.932  0.00  0.00    +0.138 C 
ATOM      8  C   UNL     1      37.435 -25.430 -14.050  0.00  0.00    +0.124 C 
ATOM      9  C   UNL     1      36.772 -23.391 -15.291  0.00  0.00    +0.059 C 
ATOM     10  C   UNL     1      35.318 -24.508 -13.828  0.00  0.00    +0.246 C 
ATOM     11  C   UNL     1      39.427 -25.782 -14.640  0.00  0.00    +0.183 C 
ATOM     12  H   UNL     1      35.989 -26.220 -12.836  0.00  0.00    +0.157 HD
ATOM     13  H   UNL     1      39.549 -24.121 -15.937  0.00  0.00    +0.149 HD
ATOM     14  H   UNL     1      38.530 -27.073 -13.288  0.00  0.00    +0.150 HD
ATOM     15  H   UNL     1      33.957 -25.396 -12.575  0.00  0.00    +0.146 HD
ATOM     16  H   UNL     1      33.382 -24.002 -13.372  0.00  0.00    +0.146 HD
ENDROOT
TORSDOF 0
ENDMDL
MODEL 4
REMARK VINA RESULT:      -6.0      8.773     10.825
REMARK  Name = 2723601
REMARK  0 active torsions:
REMARK  status: ('A' for Active; 'I' for Inactive)
REMARK                            x       y       z     vdW  Elec       q    Type
REMARK                         _______ _______ _______ _____ _____    ______ ____
ROOT
ATOM      1  S   UNL     1      33.713 -24.084 -14.122  0.00  0.00    +0.025 S 
ATOM      2  N   UNL     1      37.865 -23.465 -15.782  0.00  0.00    -0.263 N 
ATOM      3  N   UNL     1      36.273 -26.076 -14.192  0.00  0.00    -0.307 N 
ATOM      4  N   UNL     1      38.314 -25.724 -15.027  0.00  0.00    -0.303 N 
ATOM      5  N   UNL     1      35.639 -22.613 -15.369  0.00  0.00    -0.330 NA
ATOM      6  N   UNL     1      37.288 -21.338 -16.443  0.00  0.00    -0.320 N 
ATOM      7  C   UNL     1      36.255 -24.803 -14.697  0.00  0.00    +0.138 C 
ATOM      8  C   UNL     1      37.523 -24.627 -15.198  0.00  0.00    +0.124 C 
ATOM      9  C   UNL     1      35.234 -23.790 -14.757  0.00  0.00    +0.059 C 
ATOM     10  C   UNL     1      36.867 -22.495 -15.833  0.00  0.00    +0.246 C 
ATOM     11  C   UNL     1      37.528 -26.584 -14.414  0.00  0.00    +0.183 C 
ATOM     12  H   UNL     1      38.765 -23.309 -16.149  0.00  0.00    +0.157 HD
ATOM     13  H   UNL     1      35.525 -26.540 -13.751  0.00  0.00    +0.149 HD
ATOM     14  H   UNL     1      39.252 -25.844 -15.298  0.00  0.00    +0.150 HD
ATOM     15  H   UNL     1      38.209 -21.269 -16.784  0.00  0.00    +0.146 HD
ATOM     16  H   UNL     1      36.669 -20.579 -16.539  0.00  0.00    +0.146 HD
ENDROOT
TORSDOF 0
ENDMDL
MODEL 5
REMARK VINA RESULT:      -6.0     10.448     11.699
REMARK  Name = 2723601
REMARK  0 active torsions:
REMARK  status: ('A' for Active; 'I' for Inactive)
REMARK                            x       y       z     vdW  Elec       q    Type
REMARK                         _______ _______ _______ _____ _____    ______ ____
ROOT
ATOM      1  S   UNL     1      37.315 -22.330 -16.148  0.00  0.00    +0.025 S 
ATOM      2  N   UNL     1      37.759 -25.590 -13.056  0.00  0.00    -0.263 N 
ATOM      3  N   UNL     1      35.257 -23.360 -13.861  0.00  0.00    -0.307 N 
ATOM      4  N   UNL     1      35.523 -24.982 -12.349  0.00  0.00    -0.303 N 
ATOM      5  N   UNL     1      38.685 -24.332 -14.904  0.00  0.00    -0.330 NA
ATOM      6  N   UNL     1      39.872 -26.053 -13.843  0.00  0.00    -0.320 N 
ATOM      7  C   UNL     1      36.508 -23.872 -14.079  0.00  0.00    +0.138 C 
ATOM      8  C   UNL     1      36.631 -24.862 -13.133  0.00  0.00    +0.124 C 
ATOM      9  C   UNL     1      37.544 -23.552 -15.027  0.00  0.00    +0.059 C 
ATOM     10  C   UNL     1      38.751 -25.268 -13.980  0.00  0.00    +0.246 C 
ATOM     11  C   UNL     1      34.708 -24.059 -12.815  0.00  0.00    +0.183 C 
ATOM     12  H   UNL     1      37.877 -26.304 -12.390  0.00  0.00    +0.157 HD
ATOM     13  H   UNL     1      34.830 -22.627 -14.362  0.00  0.00    +0.149 HD
ATOM     14  H   UNL     1      35.368 -25.612 -11.609  0.00  0.00    +0.150 HD
ATOM     15  H   UNL     1      39.904 -26.748 -13.147  0.00  0.00    +0.146 HD
ATOM     16  H   UNL     1      40.642 -25.919 -14.441  0.00  0.00    +0.146 HD
ENDROOT
TORSDOF 0
ENDMDL
MODEL 6
REMARK VINA RESULT:      -6.0      1.076      3.435
REMARK  Name = 2723601
REMARK  0 active torsions:
REMARK  status: ('A' for Active; 'I' for Inactive)
REMARK                            x       y       z     vdW  Elec       q    Type
REMARK                         _______ _______ _______ _____ _____    ______ ____
ROOT
ATOM      1  S   UNL     1      33.086 -15.064 -20.665  0.00  0.00    +0.025 S 
ATOM      2  N   UNL     1      35.002 -16.897 -24.318  0.00  0.00    -0.263 N 
ATOM      3  N   UNL     1      35.277 -17.441 -20.925  0.00  0.00    -0.307 N 
ATOM      4  N   UNL     1      36.199 -18.317 -22.762  0.00  0.00    -0.303 N 
ATOM      5  N   UNL     1      33.470 -15.293 -23.354  0.00  0.00    -0.330 NA
ATOM      6  N   UNL     1      33.791 -15.482 -25.669  0.00  0.00    -0.320 N 
ATOM      7  C   UNL     1      34.726 -16.763 -21.980  0.00  0.00    +0.138 C 
ATOM      8  C   UNL     1      35.318 -17.329 -23.084  0.00  0.00    +0.124 C 
ATOM      9  C   UNL     1      33.759 -15.700 -22.059  0.00  0.00    +0.059 C 
ATOM     10  C   UNL     1      34.064 -15.869 -24.379  0.00  0.00    +0.246 C 
ATOM     11  C   UNL     1      36.153 -18.361 -21.446  0.00  0.00    +0.183 C 
ATOM     12  H   UNL     1      35.409 -17.283 -25.127  0.00  0.00    +0.157 HD
ATOM     13  H   UNL     1      35.082 -17.296 -19.971  0.00  0.00    +0.149 HD
ATOM     14  H   UNL     1      36.743 -18.868 -23.369  0.00  0.00    +0.150 HD
ATOM     15  H   UNL     1      34.245 -15.924 -26.422  0.00  0.00    +0.146 HD
ATOM     16  H   UNL     1      33.142 -14.762 -25.839  0.00  0.00    +0.146 HD
ENDROOT
TORSDOF 0
ENDMDL
MODEL 7
REMARK VINA RESULT:      -5.9      9.654     11.527
REMARK  Name = 2723601
REMARK  0 active torsions:
REMARK  status: ('A' for Active; 'I' for Inactive)
REMARK                            x       y       z     vdW  Elec       q    Type
REMARK                         _______ _______ _______ _____ _____    ______ ____
ROOT
ATOM      1  S   UNL     1      36.368 -24.988 -11.871  0.00  0.00    +0.025 S 
ATOM      2  N   UNL     1      39.343 -24.874 -15.265  0.00  0.00    -0.263 N 
ATOM      3  N   UNL     1      36.446 -23.150 -14.543  0.00  0.00    -0.307 N 
ATOM      4  N   UNL     1      37.944 -23.130 -16.200  0.00  0.00    -0.303 N 
ATOM      5  N   UNL     1      38.625 -25.816 -13.155  0.00  0.00    -0.330 NA
ATOM      6  N   UNL     1      40.569 -26.535 -14.250  0.00  0.00    -0.320 N 
ATOM      7  C   UNL     1      37.377 -24.101 -14.217  0.00  0.00    +0.138 C 
ATOM      8  C   UNL     1      38.275 -24.056 -15.257  0.00  0.00    +0.124 C 
ATOM      9  C   UNL     1      37.507 -24.996 -13.097  0.00  0.00    +0.059 C 
ATOM     10  C   UNL     1      39.456 -25.733 -14.174  0.00  0.00    +0.246 C 
ATOM     11  C   UNL     1      36.831 -22.598 -15.740  0.00  0.00    +0.183 C 
ATOM     12  H   UNL     1      40.003 -24.865 -15.995  0.00  0.00    +0.157 HD
ATOM     13  H   UNL     1      35.649 -22.909 -14.018  0.00  0.00    +0.149 HD
ATOM     14  H   UNL     1      38.423 -22.911 -17.031  0.00  0.00    +0.150 HD
ATOM     15  H   UNL     1      41.179 -26.460 -15.019  0.00  0.00    +0.146 HD
ATOM     16  H   UNL     1      40.757 -27.186 -13.535  0.00  0.00    +0.146 HD
ENDROOT
TORSDOF 0
ENDMDL
MODEL 8
REMARK VINA RESULT:      -5.9      1.963      2.827
REMARK  Name = 2723601
REMARK  0 active torsions:
REMARK  status: ('A' for Active; 'I' for Inactive)
REMARK                            x       y       z     vdW  Elec       q    Type
REMARK                         _______ _______ _______ _____ _____    ______ ____
ROOT
ATOM      1  S   UNL     1      35.391 -19.825 -20.918  0.00  0.00    +0.025 S 
ATOM      2  N   UNL     1      34.524 -15.751 -22.658  0.00  0.00    -0.263 N 
ATOM      3  N   UNL     1      34.846 -18.916 -23.984  0.00  0.00    -0.307 N 
ATOM      4  N   UNL     1      34.420 -16.881 -24.799  0.00  0.00    -0.303 N 
ATOM      5  N   UNL     1      34.993 -17.135 -20.730  0.00  0.00    -0.330 NA
ATOM      6  N   UNL     1      34.650 -14.822 -20.557  0.00  0.00    -0.320 N 
ATOM      7  C   UNL     1      34.856 -18.073 -22.905  0.00  0.00    +0.138 C 
ATOM      8  C   UNL     1      34.591 -16.838 -23.448  0.00  0.00    +0.124 C 
ATOM      9  C   UNL     1      35.073 -18.288 -21.499  0.00  0.00    +0.059 C 
ATOM     10  C   UNL     1      34.736 -15.975 -21.300  0.00  0.00    +0.246 C 
ATOM     11  C   UNL     1      34.581 -18.154 -25.095  0.00  0.00    +0.183 C 
ATOM     12  H   UNL     1      34.336 -14.854 -23.017  0.00  0.00    +0.157 HD
ATOM     13  H   UNL     1      35.002 -19.889 -23.967  0.00  0.00    +0.149 HD
ATOM     14  H   UNL     1      34.223 -16.136 -25.411  0.00  0.00    +0.150 HD
ATOM     15  H   UNL     1      34.457 -13.965 -21.000  0.00  0.00    +0.146 HD
ATOM     16  H   UNL     1      34.782 -14.855 -19.582  0.00  0.00    +0.146 HD
ENDROOT
TORSDOF 0
ENDMDL
MODEL 9
REMARK VINA RESULT:      -5.9      2.476      3.594
REMARK  Name = 2723601
REMARK  0 active torsions:
REMARK  status: ('A' for Active; 'I' for Inactive)
REMARK                            x       y       z     vdW  Elec       q    Type
REMARK                         _______ _______ _______ _____ _____    ______ ____
ROOT
ATOM      1  S   UNL     1      33.155 -14.782 -26.364  0.00  0.00    +0.025 S 
ATOM      2  N   UNL     1      34.810 -17.639 -23.286  0.00  0.00    -0.263 N 
ATOM      3  N   UNL     1      33.962 -14.298 -23.260  0.00  0.00    -0.307 N 
ATOM      4  N   UNL     1      34.780 -15.748 -21.771  0.00  0.00    -0.303 N 
ATOM      5  N   UNL     1      34.028 -17.228 -25.538  0.00  0.00    -0.330 NA
ATOM      6  N   UNL     1      34.776 -19.337 -24.838  0.00  0.00    -0.320 N 
ATOM      7  C   UNL     1      34.069 -15.492 -23.922  0.00  0.00    +0.138 C 
ATOM      8  C   UNL     1      34.574 -16.352 -22.975  0.00  0.00    +0.124 C 
ATOM      9  C   UNL     1      33.767 -15.892 -25.271  0.00  0.00    +0.059 C 
ATOM     10  C   UNL     1      34.511 -18.011 -24.595  0.00  0.00    +0.246 C 
ATOM     11  C   UNL     1      34.400 -14.504 -21.975  0.00  0.00    +0.183 C 
ATOM     12  H   UNL     1      35.171 -18.278 -22.630  0.00  0.00    +0.157 HD
ATOM     13  H   UNL     1      33.632 -13.449 -23.635  0.00  0.00    +0.149 HD
ATOM     14  H   UNL     1      35.130 -16.148 -20.943  0.00  0.00    +0.150 HD
ATOM     15  H   UNL     1      35.137 -19.907 -24.121  0.00  0.00    +0.146 HD
ATOM     16  H   UNL     1      34.604 -19.717 -25.730  0.00  0.00    +0.146 HD
ENDROOT
TORSDOF 0
ENDMDL
