MODEL 1
REMARK VINA RESULT:      -9.3      0.000      0.000
REMARK  Name = 160024
REMARK  1 active torsions:
REMARK  status: ('A' for Active; 'I' for Inactive)
REMARK    1  A    between atoms: C_10  and  C_22
REMARK                            x       y       z     vdW  Elec       q    Type
REMARK                         _______ _______ _______ _____ _____    ______ ____
ROOT
ATOM      1  F   UNL     1      36.033 -21.763 -19.108  0.00  0.00    -0.204 F 
ATOM      2  O   UNL     1      32.102 -23.711 -15.796  0.00  0.00    -0.470 OA
ATOM      3  O   UNL     1      35.401 -26.054 -15.409  0.00  0.00    -0.273 OA
ATOM      4  O   UNL     1      37.903 -22.979 -13.111  0.00  0.00    -0.252 OA
ATOM      5  N   UNL     1      35.773 -22.868 -14.068  0.00  0.00    -0.281 N 
ATOM      6  N   UNL     1      36.908 -24.776 -14.201  0.00  0.00    -0.238 N 
ATOM      7  C   UNL     1      34.855 -23.747 -14.775  0.00  0.00    +0.153 C 
ATOM      8  C   UNL     1      33.619 -24.000 -13.906  0.00  0.00    +0.084 C 
ATOM      9  C   UNL     1      34.477 -23.230 -16.143  0.00  0.00    +0.038 C 
ATOM     10  C   UNL     1      32.504 -24.595 -14.752  0.00  0.00    +0.243 C 
ATOM     11  C   UNL     1      35.722 -25.011 -14.855  0.00  0.00    +0.249 C 
ATOM     12  C   UNL     1      33.138 -23.242 -16.565  0.00  0.00    +0.137 C 
ATOM     13  C   UNL     1      36.972 -23.489 -13.719  0.00  0.00    +0.307 C 
ATOM     14  C   UNL     1      35.450 -22.732 -17.028  0.00  0.00    +0.030 C 
ATOM     15  C   UNL     1      32.778 -22.730 -17.816  0.00  0.00    +0.039 C 
ATOM     16  C   UNL     1      35.091 -22.238 -18.284  0.00  0.00    +0.140 C 
ATOM     17  C   UNL     1      33.756 -22.231 -18.675  0.00  0.00    +0.033 C 
ATOM     18  H   UNL     1      35.569 -21.928 -13.859  0.00  0.00    +0.152 HD
ATOM     19  H   UNL     1      37.622 -25.444 -14.090  0.00  0.00    +0.159 HD
ENDROOT
BRANCH  10  22
ATOM     20  O   UNL     1      31.127 -24.241 -12.836  0.00  0.00    -0.271 OA
ATOM     21  N   UNL     1      30.324 -25.583 -14.524  0.00  0.00    -0.326 N 
ATOM     22  C   UNL     1      31.265 -24.771 -13.936  0.00  0.00    +0.260 C 
ATOM     23  H   UNL     1      29.472 -25.761 -14.065  0.00  0.00    +0.145 HD
ATOM     24  H   UNL     1      30.503 -25.986 -15.404  0.00  0.00    +0.145 HD
ENDBRANCH  10  22
TORSDOF 1
ENDMDL
MODEL 2
REMARK VINA RESULT:      -9.0      3.117      5.123
REMARK  Name = 160024
REMARK  1 active torsions:
REMARK  status: ('A' for Active; 'I' for Inactive)
REMARK    1  A    between atoms: C_10  and  C_22
REMARK                            x       y       z     vdW  Elec       q    Type
REMARK                         _______ _______ _______ _____ _____    ______ ____
ROOT
ATOM      1  F   UNL     1      32.202 -22.550 -14.481  0.00  0.00    -0.204 F 
ATOM      2  O   UNL     1      37.033 -24.976 -15.479  0.00  0.00    -0.470 OA
ATOM      3  O   UNL     1      37.509 -22.353 -12.411  0.00  0.00    -0.273 OA
ATOM      4  O   UNL     1      35.210 -24.821  -9.310  0.00  0.00    -0.252 OA
ATOM      5  N   UNL     1      35.608 -25.145 -11.591  0.00  0.00    -0.281 N 
ATOM      6  N   UNL     1      36.469 -23.351 -10.598  0.00  0.00    -0.238 N 
ATOM      7  C   UNL     1      36.332 -24.490 -12.669  0.00  0.00    +0.153 C 
ATOM      8  C   UNL     1      37.497 -25.378 -13.116  0.00  0.00    +0.084 C 
ATOM      9  C   UNL     1      35.444 -24.109 -13.831  0.00  0.00    +0.038 C 
ATOM     10  C   UNL     1      38.027 -24.900 -14.460  0.00  0.00    +0.243 C 
ATOM     11  C   UNL     1      36.854 -23.259 -11.915  0.00  0.00    +0.249 C 
ATOM     12  C   UNL     1      35.844 -24.373 -15.150  0.00  0.00    +0.137 C 
ATOM     13  C   UNL     1      35.710 -24.476 -10.371  0.00  0.00    +0.307 C 
ATOM     14  C   UNL     1      34.205 -23.477 -13.624  0.00  0.00    +0.030 C 
ATOM     15  C   UNL     1      35.009 -24.057 -16.227  0.00  0.00    +0.039 C 
ATOM     16  C   UNL     1      33.381 -23.145 -14.701  0.00  0.00    +0.140 C 
ATOM     17  C   UNL     1      33.780 -23.440 -16.001  0.00  0.00    +0.033 C 
ATOM     18  H   UNL     1      35.096 -25.977 -11.711  0.00  0.00    +0.152 HD
ATOM     19  H   UNL     1      36.706 -22.695  -9.904  0.00  0.00    +0.159 HD
ENDROOT
BRANCH  10  22
ATOM     20  O   UNL     1      39.113 -27.010 -14.702  0.00  0.00    -0.271 OA
ATOM     21  N   UNL     1      40.088 -25.163 -15.669  0.00  0.00    -0.326 N 
ATOM     22  C   UNL     1      39.110 -25.806 -14.948  0.00  0.00    +0.260 C 
ATOM     23  H   UNL     1      40.845 -25.674 -16.035  0.00  0.00    +0.145 HD
ATOM     24  H   UNL     1      40.031 -24.192 -15.820  0.00  0.00    +0.145 HD
ENDBRANCH  10  22
TORSDOF 1
ENDMDL
MODEL 3
REMARK VINA RESULT:      -8.6      7.241      9.207
REMARK  Name = 160024
REMARK  1 active torsions:
REMARK  status: ('A' for Active; 'I' for Inactive)
REMARK    1  A    between atoms: C_10  and  C_22
REMARK                            x       y       z     vdW  Elec       q    Type
REMARK                         _______ _______ _______ _____ _____    ______ ____
ROOT
ATOM      1  F   UNL     1      34.947 -20.537 -25.755  0.00  0.00    -0.204 F 
ATOM      2  O   UNL     1      34.288 -16.049 -22.649  0.00  0.00    -0.470 OA
ATOM      3  O   UNL     1      32.693 -19.231 -20.685  0.00  0.00    -0.273 OA
ATOM      4  O   UNL     1      36.694 -21.200 -19.635  0.00  0.00    -0.252 OA
ATOM      5  N   UNL     1      36.162 -19.300 -20.889  0.00  0.00    -0.281 N 
ATOM      6  N   UNL     1      34.513 -20.457 -19.947  0.00  0.00    -0.238 N 
ATOM      7  C   UNL     1      34.977 -18.547 -21.267  0.00  0.00    +0.153 C 
ATOM      8  C   UNL     1      35.013 -17.167 -20.603  0.00  0.00    +0.084 C 
ATOM      9  C   UNL     1      34.796 -18.441 -22.763  0.00  0.00    +0.038 C 
ATOM     10  C   UNL     1      34.000 -16.246 -21.266  0.00  0.00    +0.243 C 
ATOM     11  C   UNL     1      33.899 -19.426 -20.617  0.00  0.00    +0.249 C 
ATOM     12  C   UNL     1      34.468 -17.212 -23.357  0.00  0.00    +0.137 C 
ATOM     13  C   UNL     1      35.880 -20.413 -20.096  0.00  0.00    +0.307 C 
ATOM     14  C   UNL     1      34.945 -19.564 -23.596  0.00  0.00    +0.030 C 
ATOM     15  C   UNL     1      34.337 -17.101 -24.745  0.00  0.00    +0.039 C 
ATOM     16  C   UNL     1      34.796 -19.456 -24.980  0.00  0.00    +0.140 C 
ATOM     17  C   UNL     1      34.498 -18.223 -25.554  0.00  0.00    +0.033 C 
ATOM     18  H   UNL     1      37.073 -19.049 -21.165  0.00  0.00    +0.152 HD
ATOM     19  H   UNL     1      34.036 -21.142 -19.426  0.00  0.00    +0.159 HD
ENDROOT
BRANCH  10  22
ATOM     20  O   UNL     1      35.133 -14.412 -20.245  0.00  0.00    -0.271 OA
ATOM     21  N   UNL     1      32.882 -14.201 -20.676  0.00  0.00    -0.326 N 
ATOM     22  C   UNL     1      34.082 -14.873 -20.685  0.00  0.00    +0.260 C 
ATOM     23  H   UNL     1      32.833 -13.288 -20.314  0.00  0.00    +0.145 HD
ATOM     24  H   UNL     1      32.074 -14.634 -21.034  0.00  0.00    +0.145 HD
ENDBRANCH  10  22
TORSDOF 1
ENDMDL
MODEL 4
REMARK VINA RESULT:      -8.1      2.808      3.704
REMARK  Name = 160024
REMARK  1 active torsions:
REMARK  status: ('A' for Active; 'I' for Inactive)
REMARK    1  A    between atoms: C_10  and  C_22
REMARK                            x       y       z     vdW  Elec       q    Type
REMARK                         _______ _______ _______ _____ _____    ______ ____
ROOT
ATOM      1  F   UNL     1      33.593 -23.622 -17.704  0.00  0.00    -0.204 F 
ATOM      2  O   UNL     1      34.480 -23.949 -12.289  0.00  0.00    -0.470 OA
ATOM      3  O   UNL     1      36.709 -26.799 -14.143  0.00  0.00    -0.273 OA
ATOM      4  O   UNL     1      39.749 -23.906 -15.983  0.00  0.00    -0.252 OA
ATOM      5  N   UNL     1      37.811 -23.554 -14.723  0.00  0.00    -0.281 N 
ATOM      6  N   UNL     1      38.432 -25.642 -15.170  0.00  0.00    -0.238 N 
ATOM      7  C   UNL     1      36.794 -24.348 -14.054  0.00  0.00    +0.153 C 
ATOM      8  C   UNL     1      36.901 -24.145 -12.539  0.00  0.00    +0.084 C 
ATOM      9  C   UNL     1      35.397 -24.065 -14.556  0.00  0.00    +0.038 C 
ATOM     10  C   UNL     1      35.641 -24.657 -11.858  0.00  0.00    +0.243 C 
ATOM     11  C   UNL     1      37.272 -25.755 -14.441  0.00  0.00    +0.249 C 
ATOM     12  C   UNL     1      34.338 -23.883 -13.654  0.00  0.00    +0.137 C 
ATOM     13  C   UNL     1      38.782 -24.325 -15.363  0.00  0.00    +0.307 C 
ATOM     14  C   UNL     1      35.121 -23.983 -15.933  0.00  0.00    +0.030 C 
ATOM     15  C   UNL     1      33.051 -23.584 -14.113  0.00  0.00    +0.039 C 
ATOM     16  C   UNL     1      33.833 -23.701 -16.390  0.00  0.00    +0.140 C 
ATOM     17  C   UNL     1      32.799 -23.496 -15.480  0.00  0.00    +0.033 C 
ATOM     18  H   UNL     1      37.814 -22.569 -14.726  0.00  0.00    +0.152 HD
ATOM     19  H   UNL     1      38.949 -26.407 -15.512  0.00  0.00    +0.159 HD
ENDROOT
BRANCH  10  22
ATOM     20  O   UNL     1      35.064 -25.065  -9.579  0.00  0.00    -0.271 OA
ATOM     21  N   UNL     1      36.494 -23.325 -10.047  0.00  0.00    -0.326 N 
ATOM     22  C   UNL     1      35.696 -24.390 -10.389  0.00  0.00    +0.260 C 
ATOM     23  H   UNL     1      36.597 -23.070  -9.102  0.00  0.00    +0.145 HD
ATOM     24  H   UNL     1      36.965 -22.818 -10.748  0.00  0.00    +0.145 HD
ENDBRANCH  10  22
TORSDOF 1
ENDMDL
MODEL 5
REMARK VINA RESULT:      -7.9     15.592     17.368
REMARK  Name = 160024
REMARK  1 active torsions:
REMARK  status: ('A' for Active; 'I' for Inactive)
REMARK    1  A    between atoms: C_10  and  C_22
REMARK                            x       y       z     vdW  Elec       q    Type
REMARK                         _______ _______ _______ _____ _____    ______ ____
ROOT
ATOM      1  F   UNL     1      35.404  -6.208 -25.133  0.00  0.00    -0.204 F 
ATOM      2  O   UNL     1      32.706 -10.440 -22.890  0.00  0.00    -0.470 OA
ATOM      3  O   UNL     1      33.034  -7.492 -20.110  0.00  0.00    -0.273 OA
ATOM      4  O   UNL     1      30.009  -4.657 -22.061  0.00  0.00    -0.252 OA
ATOM      5  N   UNL     1      30.867  -6.730 -22.719  0.00  0.00    -0.281 N 
ATOM      6  N   UNL     1      31.541  -5.856 -20.788  0.00  0.00    -0.238 N 
ATOM      7  C   UNL     1      31.775  -7.740 -22.202  0.00  0.00    +0.153 C 
ATOM      8  C   UNL     1      30.993  -9.018 -21.886  0.00  0.00    +0.084 C 
ATOM      9  C   UNL     1      32.941  -8.014 -23.124  0.00  0.00    +0.038 C 
ATOM     10  C   UNL     1      31.955 -10.183 -21.705  0.00  0.00    +0.243 C 
ATOM     11  C   UNL     1      32.217  -7.047 -20.905  0.00  0.00    +0.249 C 
ATOM     12  C   UNL     1      33.330  -9.332 -23.410  0.00  0.00    +0.137 C 
ATOM     13  C   UNL     1      30.721  -5.632 -21.870  0.00  0.00    +0.307 C 
ATOM     14  C   UNL     1      33.667  -6.963 -23.713  0.00  0.00    +0.030 C 
ATOM     15  C   UNL     1      34.383  -9.591 -24.293  0.00  0.00    +0.039 C 
ATOM     16  C   UNL     1      34.730  -7.223 -24.580  0.00  0.00    +0.140 C 
ATOM     17  C   UNL     1      35.084  -8.537 -24.874  0.00  0.00    +0.033 C 
ATOM     18  H   UNL     1      30.401  -6.812 -23.583  0.00  0.00    +0.152 HD
ATOM     19  H   UNL     1      31.631  -5.240 -20.026  0.00  0.00    +0.159 HD
ENDROOT
BRANCH  10  22
ATOM     20  O   UNL     1      30.224 -11.508 -20.736  0.00  0.00    -0.271 OA
ATOM     21  N   UNL     1      31.717 -12.533 -22.155  0.00  0.00    -0.326 N 
ATOM     22  C   UNL     1      31.202 -11.453 -21.478  0.00  0.00    +0.260 C 
ATOM     23  H   UNL     1      31.290 -13.416 -22.072  0.00  0.00    +0.145 HD
ATOM     24  H   UNL     1      32.512 -12.423 -22.725  0.00  0.00    +0.145 HD
ENDBRANCH  10  22
TORSDOF 1
ENDMDL
MODEL 6
REMARK VINA RESULT:      -7.6      3.444      4.111
REMARK  Name = 160024
REMARK  1 active torsions:
REMARK  status: ('A' for Active; 'I' for Inactive)
REMARK    1  A    between atoms: C_10  and  C_22
REMARK                            x       y       z     vdW  Elec       q    Type
REMARK                         _______ _______ _______ _____ _____    ______ ____
ROOT
ATOM      1  F   UNL     1      37.129 -22.396 -17.862  0.00  0.00    -0.204 F 
ATOM      2  O   UNL     1      35.722 -23.463 -12.656  0.00  0.00    -0.470 OA
ATOM      3  O   UNL     1      36.783 -26.951 -14.453  0.00  0.00    -0.273 OA
ATOM      4  O   UNL     1      41.272 -26.049 -14.633  0.00  0.00    -0.252 OA
ATOM      5  N   UNL     1      39.445 -24.783 -13.909  0.00  0.00    -0.281 N 
ATOM      6  N   UNL     1      39.088 -26.847 -14.657  0.00  0.00    -0.238 N 
ATOM      7  C   UNL     1      38.008 -24.942 -13.757  0.00  0.00    +0.153 C 
ATOM      8  C   UNL     1      37.645 -24.917 -12.270  0.00  0.00    +0.084 C 
ATOM      9  C   UNL     1      37.214 -23.923 -14.541  0.00  0.00    +0.038 C 
ATOM     10  C   UNL     1      36.147 -24.707 -12.105  0.00  0.00    +0.243 C 
ATOM     11  C   UNL     1      37.846 -26.359 -14.325  0.00  0.00    +0.249 C 
ATOM     12  C   UNL     1      36.133 -23.252 -13.949  0.00  0.00    +0.137 C 
ATOM     13  C   UNL     1      40.074 -25.917 -14.423  0.00  0.00    +0.307 C 
ATOM     14  C   UNL     1      37.531 -23.625 -15.879  0.00  0.00    +0.030 C 
ATOM     15  C   UNL     1      35.419 -22.280 -14.659  0.00  0.00    +0.039 C 
ATOM     16  C   UNL     1      36.806 -22.668 -16.591  0.00  0.00    +0.140 C 
ATOM     17  C   UNL     1      35.755 -21.992 -15.980  0.00  0.00    +0.033 C 
ATOM     18  H   UNL     1      39.926 -23.956 -13.674  0.00  0.00    +0.152 HD
ATOM     19  H   UNL     1      39.251 -27.748 -15.016  0.00  0.00    +0.159 HD
ENDROOT
BRANCH  10  22
ATOM     20  O   UNL     1      34.983 -25.358 -10.127  0.00  0.00    -0.271 OA
ATOM     21  N   UNL     1      36.429 -23.572 -10.005  0.00  0.00    -0.326 N 
ATOM     22  C   UNL     1      35.789 -24.599 -10.659  0.00  0.00    +0.260 C 
ATOM     23  H   UNL     1      36.260 -23.418  -9.048  0.00  0.00    +0.145 HD
ATOM     24  H   UNL     1      37.055 -22.992 -10.494  0.00  0.00    +0.145 HD
ENDBRANCH  10  22
TORSDOF 1
ENDMDL
MODEL 7
REMARK VINA RESULT:      -7.5     11.118     13.202
REMARK  Name = 160024
REMARK  1 active torsions:
REMARK  status: ('A' for Active; 'I' for Inactive)
REMARK    1  A    between atoms: C_10  and  C_22
REMARK                            x       y       z     vdW  Elec       q    Type
REMARK                         _______ _______ _______ _____ _____    ______ ____
ROOT
ATOM      1  F   UNL     1      35.912 -17.364 -23.110  0.00  0.00    -0.204 F 
ATOM      2  O   UNL     1      32.659 -13.613 -20.750  0.00  0.00    -0.470 OA
ATOM      3  O   UNL     1      34.654 -11.851 -23.822  0.00  0.00    -0.273 OA
ATOM      4  O   UNL     1      32.332 -13.950 -27.168  0.00  0.00    -0.252 OA
ATOM      5  N   UNL     1      32.255 -14.151 -24.840  0.00  0.00    -0.281 N 
ATOM      6  N   UNL     1      33.660 -12.682 -25.742  0.00  0.00    -0.238 N 
ATOM      7  C   UNL     1      32.882 -13.543 -23.678  0.00  0.00    +0.153 C 
ATOM      8  C   UNL     1      31.835 -12.757 -22.884  0.00  0.00    +0.084 C 
ATOM      9  C   UNL     1      33.608 -14.542 -22.807  0.00  0.00    +0.038 C 
ATOM     10  C   UNL     1      32.372 -12.433 -21.497  0.00  0.00    +0.243 C 
ATOM     11  C   UNL     1      33.851 -12.583 -24.384  0.00  0.00    +0.249 C 
ATOM     12  C   UNL     1      33.453 -14.517 -21.412  0.00  0.00    +0.137 C 
ATOM     13  C   UNL     1      32.707 -13.625 -26.050  0.00  0.00    +0.307 C 
ATOM     14  C   UNL     1      34.459 -15.513 -23.365  0.00  0.00    +0.030 C 
ATOM     15  C   UNL     1      34.093 -15.463 -20.605  0.00  0.00    +0.039 C 
ATOM     16  C   UNL     1      35.111 -16.445 -22.557  0.00  0.00    +0.140 C 
ATOM     17  C   UNL     1      34.923 -16.424 -21.178  0.00  0.00    +0.033 C 
ATOM     18  H   UNL     1      31.580 -14.865 -24.779  0.00  0.00    +0.152 HD
ATOM     19  H   UNL     1      34.144 -12.146 -26.410  0.00  0.00    +0.159 HD
ENDROOT
BRANCH  10  22
ATOM     20  O   UNL     1      31.485 -11.508 -19.485  0.00  0.00    -0.271 OA
ATOM     21  N   UNL     1      30.199 -11.409 -21.391  0.00  0.00    -0.326 N 
ATOM     22  C   UNL     1      31.330 -11.739 -20.682  0.00  0.00    +0.260 C 
ATOM     23  H   UNL     1      29.455 -10.948 -20.942  0.00  0.00    +0.145 HD
ATOM     24  H   UNL     1      30.135 -11.634 -22.347  0.00  0.00    +0.145 HD
ENDBRANCH  10  22
TORSDOF 1
ENDMDL
MODEL 8
REMARK VINA RESULT:      -7.2     11.789     13.797
REMARK  Name = 160024
REMARK  1 active torsions:
REMARK  status: ('A' for Active; 'I' for Inactive)
REMARK    1  A    between atoms: C_10  and  C_22
REMARK                            x       y       z     vdW  Elec       q    Type
REMARK                         _______ _______ _______ _____ _____    ______ ____
ROOT
ATOM      1  F   UNL     1      30.298  -9.604 -22.270  0.00  0.00    -0.204 F 
ATOM      2  O   UNL     1      33.155 -14.153 -21.103  0.00  0.00    -0.470 OA
ATOM      3  O   UNL     1      32.154 -14.225 -25.043  0.00  0.00    -0.273 OA
ATOM      4  O   UNL     1      35.059 -10.926 -26.335  0.00  0.00    -0.252 OA
ATOM      5  N   UNL     1      34.529 -11.818 -24.240  0.00  0.00    -0.281 N 
ATOM      6  N   UNL     1      33.526 -12.649 -26.042  0.00  0.00    -0.238 N 
ATOM      7  C   UNL     1      33.683 -12.864 -23.689  0.00  0.00    +0.153 C 
ATOM      8  C   UNL     1      34.558 -13.970 -23.093  0.00  0.00    +0.084 C 
ATOM      9  C   UNL     1      32.679 -12.346 -22.685  0.00  0.00    +0.038 C 
ATOM     10  C   UNL     1      33.719 -14.871 -22.199  0.00  0.00    +0.243 C 
ATOM     11  C   UNL     1      33.008 -13.352 -24.979  0.00  0.00    +0.249 C 
ATOM     12  C   UNL     1      32.480 -13.013 -21.467  0.00  0.00    +0.137 C 
ATOM     13  C   UNL     1      34.443 -11.711 -25.628  0.00  0.00    +0.307 C 
ATOM     14  C   UNL     1      31.919 -11.192 -22.945  0.00  0.00    +0.030 C 
ATOM     15  C   UNL     1      31.580 -12.516 -20.518  0.00  0.00    +0.039 C 
ATOM     16  C   UNL     1      31.008 -10.707 -22.005  0.00  0.00    +0.140 C 
ATOM     17  C   UNL     1      30.843 -11.366 -20.790  0.00  0.00    +0.033 C 
ATOM     18  H   UNL     1      35.105 -11.241 -23.687  0.00  0.00    +0.152 HD
ATOM     19  H   UNL     1      33.272 -12.798 -26.981  0.00  0.00    +0.159 HD
ENDROOT
BRANCH  10  22
ATOM     20  O   UNL     1      34.956 -15.797 -20.382  0.00  0.00    -0.271 OA
ATOM     21  N   UNL     1      34.903 -16.956 -22.369  0.00  0.00    -0.326 N 
ATOM     22  C   UNL     1      34.576 -15.905 -21.545  0.00  0.00    +0.260 C 
ATOM     23  H   UNL     1      35.464 -17.690 -22.030  0.00  0.00    +0.145 HD
ATOM     24  H   UNL     1      34.574 -16.975 -23.296  0.00  0.00    +0.145 HD
ENDBRANCH  10  22
TORSDOF 1
ENDMDL
MODEL 9
REMARK VINA RESULT:      -7.1     12.200     14.322
REMARK  Name = 160024
REMARK  1 active torsions:
REMARK  status: ('A' for Active; 'I' for Inactive)
REMARK    1  A    between atoms: C_10  and  C_22
REMARK                            x       y       z     vdW  Elec       q    Type
REMARK                         _______ _______ _______ _____ _____    ______ ____
ROOT
ATOM      1  F   UNL     1      32.687 -16.430 -26.633  0.00  0.00    -0.204 F 
ATOM      2  O   UNL     1      33.739 -11.196 -25.322  0.00  0.00    -0.470 OA
ATOM      3  O   UNL     1      31.421 -12.822 -22.405  0.00  0.00    -0.273 OA
ATOM      4  O   UNL     1      34.693 -15.494 -20.629  0.00  0.00    -0.252 OA
ATOM      5  N   UNL     1      34.664 -14.071 -22.484  0.00  0.00    -0.281 N 
ATOM      6  N   UNL     1      32.831 -14.241 -21.237  0.00  0.00    -0.238 N 
ATOM      7  C   UNL     1      33.742 -13.153 -23.132  0.00  0.00    +0.153 C 
ATOM      8  C   UNL     1      34.265 -11.720 -22.996  0.00  0.00    +0.084 C 
ATOM      9  C   UNL     1      33.467 -13.511 -24.574  0.00  0.00    +0.038 C 
ATOM     10  C   UNL     1      33.531 -10.806 -23.966  0.00  0.00    +0.243 C 
ATOM     11  C   UNL     1      32.508 -13.360 -22.242  0.00  0.00    +0.249 C 
ATOM     12  C   UNL     1      33.484 -12.522 -25.570  0.00  0.00    +0.137 C 
ATOM     13  C   UNL     1      34.124 -14.693 -21.358  0.00  0.00    +0.307 C 
ATOM     14  C   UNL     1      33.183 -14.835 -24.955  0.00  0.00    +0.030 C 
ATOM     15  C   UNL     1      33.268 -12.854 -26.912  0.00  0.00    +0.039 C 
ATOM     16  C   UNL     1      32.950 -15.162 -26.292  0.00  0.00    +0.140 C 
ATOM     17  C   UNL     1      32.998 -14.173 -27.270  0.00  0.00    +0.033 C 
ATOM     18  H   UNL     1      35.579 -14.238 -22.808  0.00  0.00    +0.152 HD
ATOM     19  H   UNL     1      32.214 -14.515 -20.521  0.00  0.00    +0.159 HD
ENDROOT
BRANCH  10  22
ATOM     20  O   UNL     1      35.290  -9.195 -24.021  0.00  0.00    -0.271 OA
ATOM     21  N   UNL     1      33.139  -8.450 -23.686  0.00  0.00    -0.326 N 
ATOM     22  C   UNL     1      34.088  -9.421 -23.903  0.00  0.00    +0.260 C 
ATOM     23  H   UNL     1      33.406  -7.505 -23.630  0.00  0.00    +0.145 HD
ATOM     24  H   UNL     1      32.192  -8.702 -23.589  0.00  0.00    +0.145 HD
ENDBRANCH  10  22
TORSDOF 1
ENDMDL
