MODEL 1
REMARK VINA RESULT:      -8.7      0.000      0.000
REMARK  Name = 24860533
REMARK  8 active torsions:
REMARK  status: ('A' for Active; 'I' for Inactive)
REMARK    1  A    between atoms: C_1  and  C_4
REMARK    2  A    between atoms: C_1  and  C_19
REMARK    3  A    between atoms: C_7  and  O_12
REMARK    4  A    between atoms: C_9  and  O_10
REMARK    5  A    between atoms: O_12  and  C_13
REMARK    6  A    between atoms: N_18  and  C_22
REMARK    7  A    between atoms: C_22  and  C_24
REMARK    8  A    between atoms: C_24  and  O_25
REMARK                            x       y       z     vdW  Elec       q    Type
REMARK                         _______ _______ _______ _____ _____    ______ ____
ROOT
ATOM      1  C   UNL     1      34.012 -12.761 -24.710  0.00  0.00    +0.047 C 
ENDROOT
BRANCH   1   4
ATOM      2 BR   UNL     1      35.473 -10.084 -25.445  0.00  0.00    -0.049 Br
ATOM      3 BR   UNL     1      34.242  -7.415 -23.709  0.00  0.00    -0.045 Br
ATOM      4  C   UNL     1      33.514 -11.543 -23.976  0.00  0.00    -0.011 C 
ATOM      5  C   UNL     1      32.476 -11.722 -23.062  0.00  0.00    +0.036 C 
ATOM      6  C   UNL     1      34.051 -10.273 -24.181  0.00  0.00    +0.040 C 
ATOM      7  C   UNL     1      31.975 -10.631 -22.353  0.00  0.00    +0.172 C 
ATOM      8  C   UNL     1      33.550  -9.181 -23.472  0.00  0.00    +0.077 C 
ATOM      9  C   UNL     1      32.512  -9.360 -22.558  0.00  0.00    +0.174 C 
BRANCH   9  10
ATOM     10  O   UNL     1      32.001  -8.310 -21.849  0.00  0.00    -0.503 OA
ATOM     11  H   UNL     1      31.289  -8.449 -21.255  0.00  0.00    +0.292 HD
ENDBRANCH   9  10
BRANCH   7  12
ATOM     12  O   UNL     1      30.962 -10.821 -21.462  0.00  0.00    -0.472 OA
BRANCH  12  13
ATOM     13  C   UNL     1      31.273 -11.540 -20.271  0.00  0.00    +0.206 C 
ATOM     14  C   UNL     1      31.494 -10.554 -19.143  0.00  0.00    +0.051 C 
ENDBRANCH  12  13
ENDBRANCH   7  12
ENDBRANCH   1   4
BRANCH   1  19
ATOM     15  S   UNL     1      33.216 -15.274 -25.472  0.00  0.00    -0.083 S 
ATOM     16  S   UNL     1      34.408 -18.016 -25.283  0.00  0.00    -0.027 S 
ATOM     17  O   UNL     1      34.637 -14.057 -22.109  0.00  0.00    -0.274 OA
ATOM     18  N   UNL     1      34.632 -15.981 -23.439  0.00  0.00    -0.237 N 
ATOM     19  C   UNL     1      33.402 -14.041 -24.164  0.00  0.00    +0.135 C 
ATOM     20  C   UNL     1      34.290 -14.670 -23.115  0.00  0.00    +0.241 C 
ATOM     21  C   UNL     1      34.162 -16.492 -24.639  0.00  0.00    +0.118 C 
BRANCH  18  22
ATOM     22  C   UNL     1      35.471 -16.754 -22.525  0.00  0.00    +0.209 C 
BRANCH  22  24
ATOM     23  O   UNL     1      33.960 -18.064 -21.184  0.00  0.00    -0.248 OA
ATOM     24  C   UNL     1      34.757 -17.137 -21.254  0.00  0.00    +0.335 C 
BRANCH  24  25
ATOM     25  O   UNL     1      35.080 -16.356 -20.197  0.00  0.00    -0.479 OA
ATOM     26  H   UNL     1      35.889 -16.490 -19.745  0.00  0.00    +0.295 HD
ENDBRANCH  24  25
ENDBRANCH  22  24
ENDBRANCH  18  22
ENDBRANCH   1  19
TORSDOF 8
ENDMDL
MODEL 2
REMARK VINA RESULT:      -8.1      4.143      5.936
REMARK  Name = 24860533
REMARK  8 active torsions:
REMARK  status: ('A' for Active; 'I' for Inactive)
REMARK    1  A    between atoms: C_1  and  C_4
REMARK    2  A    between atoms: C_1  and  C_19
REMARK    3  A    between atoms: C_7  and  O_12
REMARK    4  A    between atoms: C_9  and  O_10
REMARK    5  A    between atoms: O_12  and  C_13
REMARK    6  A    between atoms: N_18  and  C_22
REMARK    7  A    between atoms: C_22  and  C_24
REMARK    8  A    between atoms: C_24  and  O_25
REMARK                            x       y       z     vdW  Elec       q    Type
REMARK                         _______ _______ _______ _____ _____    ______ ____
ROOT
ATOM      1  C   UNL     1      35.116 -18.454 -22.518  0.00  0.00    +0.047 C 
ENDROOT
BRANCH   1   4
ATOM      2 BR   UNL     1      34.394 -18.071 -25.547  0.00  0.00    -0.049 Br
ATOM      3 BR   UNL     1      33.217 -14.938 -26.215  0.00  0.00    -0.045 Br
ATOM      4  C   UNL     1      34.590 -17.088 -22.879  0.00  0.00    -0.011 C 
ATOM      5  C   UNL     1      34.480 -16.149 -21.853  0.00  0.00    +0.036 C 
ATOM      6  C   UNL     1      34.221 -16.747 -24.180  0.00  0.00    +0.040 C 
ATOM      7  C   UNL     1      34.000 -14.870 -22.128  0.00  0.00    +0.172 C 
ATOM      8  C   UNL     1      33.741 -15.467 -24.455  0.00  0.00    +0.077 C 
ATOM      9  C   UNL     1      33.631 -14.528 -23.429  0.00  0.00    +0.174 C 
BRANCH   9  10
ATOM     10  O   UNL     1      33.164 -13.267 -23.668  0.00  0.00    -0.503 OA
ATOM     11  H   UNL     1      32.326 -13.147 -24.070  0.00  0.00    +0.292 HD
ENDBRANCH   9  10
BRANCH   7  12
ATOM     12  O   UNL     1      33.899 -13.963 -21.117  0.00  0.00    -0.472 OA
BRANCH  12  13
ATOM     13  C   UNL     1      32.699 -13.983 -20.347  0.00  0.00    +0.206 C 
ATOM     14  C   UNL     1      31.981 -12.661 -20.516  0.00  0.00    +0.051 C 
ENDBRANCH  12  13
ENDBRANCH   7  12
ENDBRANCH   1   4
BRANCH   1  19
ATOM     15  S   UNL     1      33.480 -19.692 -20.697  0.00  0.00    -0.083 S 
ATOM     16  S   UNL     1      33.528 -22.318 -19.256  0.00  0.00    -0.027 S 
ATOM     17  O   UNL     1      37.298 -19.211 -20.646  0.00  0.00    -0.274 OA
ATOM     18  N   UNL     1      35.696 -20.753 -19.921  0.00  0.00    -0.237 N 
ATOM     19  C   UNL     1      34.979 -18.740 -21.033  0.00  0.00    +0.135 C 
ATOM     20  C   UNL     1      36.131 -19.575 -20.524  0.00  0.00    +0.241 C 
ATOM     21  C   UNL     1      34.332 -21.002 -19.903  0.00  0.00    +0.118 C 
BRANCH  18  22
ATOM     22  C   UNL     1      36.675 -21.675 -19.350  0.00  0.00    +0.209 C 
BRANCH  22  24
ATOM     23  O   UNL     1      36.307 -22.513 -17.124  0.00  0.00    -0.248 OA
ATOM     24  C   UNL     1      36.729 -21.618 -17.845  0.00  0.00    +0.335 C 
BRANCH  24  25
ATOM     25  O   UNL     1      37.287 -20.482 -17.367  0.00  0.00    -0.479 OA
ATOM     26  H   UNL     1      37.880 -20.520 -16.642  0.00  0.00    +0.295 HD
ENDBRANCH  24  25
ENDBRANCH  22  24
ENDBRANCH  18  22
ENDBRANCH   1  19
TORSDOF 8
ENDMDL
MODEL 3
REMARK VINA RESULT:      -8.0     11.319     14.347
REMARK  Name = 24860533
REMARK  8 active torsions:
REMARK  status: ('A' for Active; 'I' for Inactive)
REMARK    1  A    between atoms: C_1  and  C_4
REMARK    2  A    between atoms: C_1  and  C_19
REMARK    3  A    between atoms: C_7  and  O_12
REMARK    4  A    between atoms: C_9  and  O_10
REMARK    5  A    between atoms: O_12  and  C_13
REMARK    6  A    between atoms: N_18  and  C_22
REMARK    7  A    between atoms: C_22  and  C_24
REMARK    8  A    between atoms: C_24  and  O_25
REMARK                            x       y       z     vdW  Elec       q    Type
REMARK                         _______ _______ _______ _____ _____    ______ ____
ROOT
ATOM      1  C   UNL     1      34.312 -24.924 -14.661  0.00  0.00    +0.047 C 
ENDROOT
BRANCH   1   4
ATOM      2 BR   UNL     1      31.500 -25.063 -13.277  0.00  0.00    -0.049 Br
ATOM      3 BR   UNL     1      29.117 -23.333 -15.003  0.00  0.00    -0.045 Br
ATOM      4  C   UNL     1      33.214 -24.179 -15.375  0.00  0.00    -0.011 C 
ATOM      5  C   UNL     1      33.548 -23.516 -16.557  0.00  0.00    +0.036 C 
ATOM      6  C   UNL     1      31.904 -24.137 -14.899  0.00  0.00    +0.040 C 
ATOM      7  C   UNL     1      32.573 -22.812 -17.261  0.00  0.00    +0.172 C 
ATOM      8  C   UNL     1      30.928 -23.431 -15.603  0.00  0.00    +0.077 C 
ATOM      9  C   UNL     1      31.263 -22.769 -16.785  0.00  0.00    +0.174 C 
BRANCH   9  10
ATOM     10  O   UNL     1      30.329 -22.070 -17.496  0.00  0.00    -0.503 OA
ATOM     11  H   UNL     1      29.686 -21.558 -17.046  0.00  0.00    +0.292 HD
ENDBRANCH   9  10
BRANCH   7  12
ATOM     12  O   UNL     1      32.914 -22.171 -18.413  0.00  0.00    -0.472 OA
BRANCH  12  13
ATOM     13  C   UNL     1      34.248 -22.351 -18.884  0.00  0.00    +0.206 C 
ATOM     14  C   UNL     1      34.621 -21.181 -19.770  0.00  0.00    +0.051 C 
ENDBRANCH  12  13
ENDBRANCH   7  12
ENDBRANCH   1   4
BRANCH   1  19
ATOM     15  S   UNL     1      36.122 -23.226 -13.492  0.00  0.00    -0.083 S 
ATOM     16  S   UNL     1      38.670 -23.585 -11.956  0.00  0.00    -0.027 S 
ATOM     17  O   UNL     1      36.715 -26.223 -15.832  0.00  0.00    -0.274 OA
ATOM     18  N   UNL     1      37.771 -25.123 -14.058  0.00  0.00    -0.237 N 
ATOM     19  C   UNL     1      35.671 -24.283 -14.886  0.00  0.00    +0.135 C 
ATOM     20  C   UNL     1      36.759 -25.326 -14.995  0.00  0.00    +0.241 C 
ATOM     21  C   UNL     1      37.628 -24.065 -13.173  0.00  0.00    +0.118 C 
BRANCH  18  22
ATOM     22  C   UNL     1      38.920 -26.026 -14.031  0.00  0.00    +0.209 C 
BRANCH  22  24
ATOM     23  O   UNL     1      40.952 -24.757 -14.265  0.00  0.00    -0.248 OA
ATOM     24  C   UNL     1      40.111 -25.484 -14.778  0.00  0.00    +0.335 C 
BRANCH  24  25
ATOM     25  O   UNL     1      40.161 -25.877 -16.073  0.00  0.00    -0.479 OA
ATOM     26  H   UNL     1      39.385 -26.177 -16.502  0.00  0.00    +0.295 HD
ENDBRANCH  24  25
ENDBRANCH  22  24
ENDBRANCH  18  22
ENDBRANCH   1  19
TORSDOF 8
ENDMDL
MODEL 4
REMARK VINA RESULT:      -7.9     11.715     14.063
REMARK  Name = 24860533
REMARK  8 active torsions:
REMARK  status: ('A' for Active; 'I' for Inactive)
REMARK    1  A    between atoms: C_1  and  C_4
REMARK    2  A    between atoms: C_1  and  C_19
REMARK    3  A    between atoms: C_7  and  O_12
REMARK    4  A    between atoms: C_9  and  O_10
REMARK    5  A    between atoms: O_12  and  C_13
REMARK    6  A    between atoms: N_18  and  C_22
REMARK    7  A    between atoms: C_22  and  C_24
REMARK    8  A    between atoms: C_24  and  O_25
REMARK                            x       y       z     vdW  Elec       q    Type
REMARK                         _______ _______ _______ _____ _____    ______ ____
ROOT
ATOM      1  C   UNL     1      33.247 -22.954 -14.727  0.00  0.00    +0.047 C 
ENDROOT
BRANCH   1   4
ATOM      2 BR   UNL     1      34.910 -24.293 -12.428  0.00  0.00    -0.049 Br
ATOM      3 BR   UNL     1      38.235 -24.487 -13.175  0.00  0.00    -0.045 Br
ATOM      4  C   UNL     1      34.726 -23.069 -14.996  0.00  0.00    -0.011 C 
ATOM      5  C   UNL     1      35.199 -22.579 -16.213  0.00  0.00    +0.036 C 
ATOM      6  C   UNL     1      35.611 -23.638 -14.081  0.00  0.00    +0.040 C 
ATOM      7  C   UNL     1      36.557 -22.657 -16.515  0.00  0.00    +0.172 C 
ATOM      8  C   UNL     1      36.971 -23.717 -14.384  0.00  0.00    +0.077 C 
ATOM      9  C   UNL     1      37.444 -23.227 -15.601  0.00  0.00    +0.174 C 
BRANCH   9  10
ATOM     10  O   UNL     1      38.769 -23.290 -15.925  0.00  0.00    -0.503 OA
ATOM     11  H   UNL     1      39.387 -23.622 -15.303  0.00  0.00    +0.292 HD
ENDBRANCH   9  10
BRANCH   7  12
ATOM     12  O   UNL     1      37.005 -22.173 -17.707  0.00  0.00    -0.472 OA
BRANCH  12  13
ATOM     13  C   UNL     1      36.018 -21.782 -18.659  0.00  0.00    +0.206 C 
ATOM     14  C   UNL     1      36.693 -21.042 -19.794  0.00  0.00    +0.051 C 
ENDBRANCH  12  13
ENDBRANCH   7  12
ENDBRANCH   1   4
BRANCH   1  19
ATOM     15  S   UNL     1      31.595 -25.094 -14.255  0.00  0.00    -0.083 S 
ATOM     16  S   UNL     1      28.633 -25.536 -14.342  0.00  0.00    -0.027 S 
ATOM     17  O   UNL     1      31.656 -22.639 -17.219  0.00  0.00    -0.274 OA
ATOM     18  N   UNL     1      30.117 -23.919 -16.008  0.00  0.00    -0.237 N 
ATOM     19  C   UNL     1      32.455 -24.036 -15.441  0.00  0.00    +0.135 C 
ATOM     20  C   UNL     1      31.387 -23.442 -16.329  0.00  0.00    +0.241 C 
ATOM     21  C   UNL     1      30.010 -24.805 -14.947  0.00  0.00    +0.118 C 
BRANCH  18  22
ATOM     22  C   UNL     1      28.962 -23.467 -16.780  0.00  0.00    +0.209 C 
BRANCH  22  24
ATOM     23  O   UNL     1      28.500 -21.862 -15.046  0.00  0.00    -0.248 OA
ATOM     24  C   UNL     1      28.304 -22.246 -16.193  0.00  0.00    +0.335 C 
BRANCH  24  25
ATOM     25  O   UNL     1      27.472 -21.613 -17.053  0.00  0.00    -0.479 OA
ATOM     26  H   UNL     1      27.068 -22.090 -17.751  0.00  0.00    +0.295 HD
ENDBRANCH  24  25
ENDBRANCH  22  24
ENDBRANCH  18  22
ENDBRANCH   1  19
TORSDOF 8
ENDMDL
MODEL 5
REMARK VINA RESULT:      -7.9      3.996      7.404
REMARK  Name = 24860533
REMARK  8 active torsions:
REMARK  status: ('A' for Active; 'I' for Inactive)
REMARK    1  A    between atoms: C_1  and  C_4
REMARK    2  A    between atoms: C_1  and  C_19
REMARK    3  A    between atoms: C_7  and  O_12
REMARK    4  A    between atoms: C_9  and  O_10
REMARK    5  A    between atoms: O_12  and  C_13
REMARK    6  A    between atoms: N_18  and  C_22
REMARK    7  A    between atoms: C_22  and  C_24
REMARK    8  A    between atoms: C_24  and  O_25
REMARK                            x       y       z     vdW  Elec       q    Type
REMARK                         _______ _______ _______ _____ _____    ______ ____
ROOT
ATOM      1  C   UNL     1      33.953 -13.745 -22.123  0.00  0.00    +0.047 C 
ENDROOT
BRANCH   1   4
ATOM      2 BR   UNL     1      34.852 -16.415 -20.745  0.00  0.00    -0.049 Br
ATOM      3 BR   UNL     1      35.103 -18.999 -22.961  0.00  0.00    -0.045 Br
ATOM      4  C   UNL     1      34.083 -14.926 -23.050  0.00  0.00    -0.011 C 
ATOM      5  C   UNL     1      33.797 -14.720 -24.400  0.00  0.00    +0.036 C 
ATOM      6  C   UNL     1      34.472 -16.189 -22.604  0.00  0.00    +0.040 C 
ATOM      7  C   UNL     1      33.902 -15.777 -25.303  0.00  0.00    +0.172 C 
ATOM      8  C   UNL     1      34.576 -17.246 -23.508  0.00  0.00    +0.077 C 
ATOM      9  C   UNL     1      34.291 -17.040 -24.858  0.00  0.00    +0.174 C 
BRANCH   9  10
ATOM     10  O   UNL     1      34.384 -18.055 -25.766  0.00  0.00    -0.503 OA
ATOM     11  H   UNL     1      34.367 -18.946 -25.475  0.00  0.00    +0.292 HD
ENDBRANCH   9  10
BRANCH   7  12
ATOM     12  O   UNL     1      33.621 -15.560 -26.618  0.00  0.00    -0.472 OA
BRANCH  12  13
ATOM     13  C   UNL     1      32.738 -14.483 -26.924  0.00  0.00    +0.206 C 
ATOM     14  C   UNL     1      33.549 -13.306 -27.424  0.00  0.00    +0.051 C 
ENDBRANCH  12  13
ENDBRANCH   7  12
ENDBRANCH   1   4
BRANCH   1  19
ATOM     15  S   UNL     1      31.998 -13.045 -20.330  0.00  0.00    -0.083 S 
ATOM     16  S   UNL     1      30.955 -10.454 -19.245  0.00  0.00    -0.027 S 
ATOM     17  O   UNL     1      32.710 -11.672 -23.853  0.00  0.00    -0.274 OA
ATOM     18  N   UNL     1      31.863 -10.935 -21.802  0.00  0.00    -0.237 N 
ATOM     19  C   UNL     1      32.522 -13.238 -22.048  0.00  0.00    +0.135 C 
ATOM     20  C   UNL     1      32.387 -11.875 -22.686  0.00  0.00    +0.241 C 
ATOM     21  C   UNL     1      31.584 -11.351 -20.509  0.00  0.00    +0.118 C 
BRANCH  18  22
ATOM     22  C   UNL     1      31.642  -9.563 -22.255  0.00  0.00    +0.209 C 
BRANCH  22  24
ATOM     23  O   UNL     1      33.051  -7.977 -21.118  0.00  0.00    -0.248 OA
ATOM     24  C   UNL     1      32.858  -8.688 -22.096  0.00  0.00    +0.335 C 
BRANCH  24  25
ATOM     25  O   UNL     1      33.716  -8.761 -23.140  0.00  0.00    -0.479 OA
ATOM     26  H   UNL     1      33.413  -9.051 -23.978  0.00  0.00    +0.295 HD
ENDBRANCH  24  25
ENDBRANCH  22  24
ENDBRANCH  18  22
ENDBRANCH   1  19
TORSDOF 8
ENDMDL
MODEL 6
REMARK VINA RESULT:      -7.2     10.375     14.433
REMARK  Name = 24860533
REMARK  8 active torsions:
REMARK  status: ('A' for Active; 'I' for Inactive)
REMARK    1  A    between atoms: C_1  and  C_4
REMARK    2  A    between atoms: C_1  and  C_19
REMARK    3  A    between atoms: C_7  and  O_12
REMARK    4  A    between atoms: C_9  and  O_10
REMARK    5  A    between atoms: O_12  and  C_13
REMARK    6  A    between atoms: N_18  and  C_22
REMARK    7  A    between atoms: C_22  and  C_24
REMARK    8  A    between atoms: C_24  and  O_25
REMARK                            x       y       z     vdW  Elec       q    Type
REMARK                         _______ _______ _______ _____ _____    ______ ____
ROOT
ATOM      1  C   UNL     1      35.285 -24.296 -16.023  0.00  0.00    +0.047 C 
ENDROOT
BRANCH   1   4
ATOM      2 BR   UNL     1      33.491 -24.208 -13.451  0.00  0.00    -0.049 Br
ATOM      3 BR   UNL     1      35.330 -24.358 -10.580  0.00  0.00    -0.045 Br
ATOM      4  C   UNL     1      36.039 -24.359 -14.719  0.00  0.00    -0.011 C 
ATOM      5  C   UNL     1      37.430 -24.447 -14.783  0.00  0.00    +0.036 C 
ATOM      6  C   UNL     1      35.398 -24.330 -13.481  0.00  0.00    +0.040 C 
ATOM      7  C   UNL     1      38.179 -24.506 -13.609  0.00  0.00    +0.172 C 
ATOM      8  C   UNL     1      36.148 -24.390 -12.306  0.00  0.00    +0.077 C 
ATOM      9  C   UNL     1      37.539 -24.478 -12.370  0.00  0.00    +0.174 C 
BRANCH   9  10
ATOM     10  O   UNL     1      38.299 -24.539 -11.238  0.00  0.00    -0.503 OA
ATOM     11  H   UNL     1      38.420 -25.358 -10.799  0.00  0.00    +0.292 HD
ENDBRANCH   9  10
BRANCH   7  12
ATOM     12  O   UNL     1      39.536 -24.591 -13.688  0.00  0.00    -0.472 OA
BRANCH  12  13
ATOM     13  C   UNL     1      40.079 -25.290 -14.806  0.00  0.00    +0.206 C 
ATOM     14  C   UNL     1      40.797 -26.528 -14.313  0.00  0.00    +0.051 C 
ENDBRANCH  12  13
ENDBRANCH   7  12
ENDBRANCH   1   4
BRANCH   1  19
ATOM     15  S   UNL     1      36.604 -22.106 -17.019  0.00  0.00    -0.083 S 
ATOM     16  S   UNL     1      36.939 -20.900 -19.741  0.00  0.00    -0.027 S 
ATOM     17  O   UNL     1      32.989 -23.285 -17.618  0.00  0.00    -0.274 OA
ATOM     18  N   UNL     1      34.696 -22.156 -18.751  0.00  0.00    -0.237 N 
ATOM     19  C   UNL     1      35.055 -22.865 -16.477  0.00  0.00    +0.135 C 
ATOM     20  C   UNL     1      34.119 -22.806 -17.662  0.00  0.00    +0.241 C 
ATOM     21  C   UNL     1      36.000 -21.705 -18.616  0.00  0.00    +0.118 C 
BRANCH  18  22
ATOM     22  C   UNL     1      33.925 -21.987 -19.980  0.00  0.00    +0.209 C 
BRANCH  22  24
ATOM     23  O   UNL     1      33.668 -19.740 -20.805  0.00  0.00    -0.248 OA
ATOM     24  C   UNL     1      33.261 -20.638 -20.078  0.00  0.00    +0.335 C 
BRANCH  24  25
ATOM     25  O   UNL     1      32.174 -20.512 -19.282  0.00  0.00    -0.479 OA
ATOM     26  H   UNL     1      31.317 -20.655 -19.633  0.00  0.00    +0.295 HD
ENDBRANCH  24  25
ENDBRANCH  22  24
ENDBRANCH  18  22
ENDBRANCH   1  19
TORSDOF 8
ENDMDL
MODEL 7
REMARK VINA RESULT:      -7.2      3.475      7.024
REMARK  Name = 24860533
REMARK  8 active torsions:
REMARK  status: ('A' for Active; 'I' for Inactive)
REMARK    1  A    between atoms: C_1  and  C_4
REMARK    2  A    between atoms: C_1  and  C_19
REMARK    3  A    between atoms: C_7  and  O_12
REMARK    4  A    between atoms: C_9  and  O_10
REMARK    5  A    between atoms: O_12  and  C_13
REMARK    6  A    between atoms: N_18  and  C_22
REMARK    7  A    between atoms: C_22  and  C_24
REMARK    8  A    between atoms: C_24  and  O_25
REMARK                            x       y       z     vdW  Elec       q    Type
REMARK                         _______ _______ _______ _____ _____    ______ ____
ROOT
ATOM      1  C   UNL     1      33.301 -12.161 -24.482  0.00  0.00    +0.047 C 
ENDROOT
BRANCH   1   4
ATOM      2 BR   UNL     1      33.121 -14.390 -26.681  0.00  0.00    -0.049 Br
ATOM      3 BR   UNL     1      34.130 -17.439 -25.525  0.00  0.00    -0.045 Br
ATOM      4  C   UNL     1      33.733 -13.533 -24.033  0.00  0.00    -0.011 C 
ATOM      5  C   UNL     1      34.160 -13.674 -22.713  0.00  0.00    +0.036 C 
ATOM      6  C   UNL     1      33.716 -14.639 -24.883  0.00  0.00    +0.040 C 
ATOM      7  C   UNL     1      34.571 -14.921 -22.242  0.00  0.00    +0.172 C 
ATOM      8  C   UNL     1      34.127 -15.886 -24.412  0.00  0.00    +0.077 C 
ATOM      9  C   UNL     1      34.554 -16.027 -23.091  0.00  0.00    +0.174 C 
BRANCH   9  10
ATOM     10  O   UNL     1      34.963 -17.235 -22.602  0.00  0.00    -0.503 OA
ATOM     11  H   UNL     1      34.546 -17.597 -21.844  0.00  0.00    +0.292 HD
ENDBRANCH   9  10
BRANCH   7  12
ATOM     12  O   UNL     1      34.984 -15.043 -20.950  0.00  0.00    -0.472 OA
BRANCH  12  13
ATOM     13  C   UNL     1      34.091 -15.684 -20.042  0.00  0.00    +0.206 C 
ATOM     14  C   UNL     1      32.708 -15.091 -20.208  0.00  0.00    +0.051 C 
ENDBRANCH  12  13
ENDBRANCH   7  12
ENDBRANCH   1   4
BRANCH   1  19
ATOM     15  S   UNL     1      34.806  -9.870 -24.370  0.00  0.00    -0.083 S 
ATOM     16  S   UNL     1      34.193  -6.937 -24.375  0.00  0.00    -0.027 S 
ATOM     17  O   UNL     1      31.681 -10.862 -22.354  0.00  0.00    -0.274 OA
ATOM     18  N   UNL     1      32.705  -8.939 -23.205  0.00  0.00    -0.237 N 
ATOM     19  C   UNL     1      33.764 -11.079 -23.522  0.00  0.00    +0.135 C 
ATOM     20  C   UNL     1      32.595 -10.306 -22.957  0.00  0.00    +0.241 C 
ATOM     21  C   UNL     1      33.802  -8.501 -23.931  0.00  0.00    +0.118 C 
BRANCH  18  22
ATOM     22  C   UNL     1      31.671  -8.032 -22.711  0.00  0.00    +0.209 C 
BRANCH  22  24
ATOM     23  O   UNL     1      32.217  -6.274 -21.159  0.00  0.00    -0.248 OA
ATOM     24  C   UNL     1      31.989  -7.461 -21.353  0.00  0.00    +0.335 C 
BRANCH  24  25
ATOM     25  O   UNL     1      32.002  -8.388 -20.367  0.00  0.00    -0.479 OA
ATOM     26  H   UNL     1      31.225  -8.554 -19.869  0.00  0.00    +0.295 HD
ENDBRANCH  24  25
ENDBRANCH  22  24
ENDBRANCH  18  22
ENDBRANCH   1  19
TORSDOF 8
ENDMDL
MODEL 8
REMARK VINA RESULT:      -7.1     11.870     13.899
REMARK  Name = 24860533
REMARK  8 active torsions:
REMARK  status: ('A' for Active; 'I' for Inactive)
REMARK    1  A    between atoms: C_1  and  C_4
REMARK    2  A    between atoms: C_1  and  C_19
REMARK    3  A    between atoms: C_7  and  O_12
REMARK    4  A    between atoms: C_9  and  O_10
REMARK    5  A    between atoms: O_12  and  C_13
REMARK    6  A    between atoms: N_18  and  C_22
REMARK    7  A    between atoms: C_22  and  C_24
REMARK    8  A    between atoms: C_24  and  O_25
REMARK                            x       y       z     vdW  Elec       q    Type
REMARK                         _______ _______ _______ _____ _____    ______ ____
ROOT
ATOM      1  C   UNL     1      35.888 -22.812 -14.146  0.00  0.00    +0.047 C 
ENDROOT
BRANCH   1   4
ATOM      2 BR   UNL     1      37.520 -21.805 -16.628  0.00  0.00    -0.049 Br
ATOM      3 BR   UNL     1      35.657 -21.793 -19.488  0.00  0.00    -0.045 Br
ATOM      4  C   UNL     1      35.120 -22.783 -15.442  0.00  0.00    -0.011 C 
ATOM      5  C   UNL     1      33.788 -23.196 -15.411  0.00  0.00    +0.036 C 
ATOM      6  C   UNL     1      35.692 -22.362 -16.643  0.00  0.00    +0.040 C 
ATOM      7  C   UNL     1      33.028 -23.189 -16.580  0.00  0.00    +0.172 C 
ATOM      8  C   UNL     1      34.932 -22.355 -17.812  0.00  0.00    +0.077 C 
ATOM      9  C   UNL     1      33.600 -22.768 -17.781  0.00  0.00    +0.174 C 
BRANCH   9  10
ATOM     10  O   UNL     1      32.831 -22.773 -18.910  0.00  0.00    -0.503 OA
ATOM     11  H   UNL     1      33.239 -22.750 -19.753  0.00  0.00    +0.292 HD
ENDBRANCH   9  10
BRANCH   7  12
ATOM     12  O   UNL     1      31.729 -23.594 -16.534  0.00  0.00    -0.472 OA
BRANCH  12  13
ATOM     13  C   UNL     1      31.185 -23.881 -15.247  0.00  0.00    +0.206 C 
ATOM     14  C   UNL     1      30.046 -22.924 -14.968  0.00  0.00    +0.051 C 
ENDBRANCH  12  13
ENDBRANCH   7  12
ENDBRANCH   1   4
BRANCH   1  19
ATOM     15  S   UNL     1      35.524 -25.438 -14.853  0.00  0.00    -0.083 S 
ATOM     16  S   UNL     1      37.308 -27.620 -15.867  0.00  0.00    -0.027 S 
ATOM     17  O   UNL     1      38.193 -23.850 -12.581  0.00  0.00    -0.274 OA
ATOM     18  N   UNL     1      37.965 -25.649 -14.058  0.00  0.00    -0.237 N 
ATOM     19  C   UNL     1      36.069 -24.228 -13.626  0.00  0.00    +0.135 C 
ATOM     20  C   UNL     1      37.523 -24.533 -13.351  0.00  0.00    +0.241 C 
ATOM     21  C   UNL     1      37.063 -26.275 -14.904  0.00  0.00    +0.118 C 
BRANCH  18  22
ATOM     22  C   UNL     1      39.345 -26.104 -13.897  0.00  0.00    +0.209 C 
BRANCH  22  24
ATOM     23  O   UNL     1      41.034 -24.482 -14.455  0.00  0.00    -0.248 OA
ATOM     24  C   UNL     1      40.308 -25.399 -14.817  0.00  0.00    +0.335 C 
BRANCH  24  25
ATOM     25  O   UNL     1      40.291 -25.876 -16.084  0.00  0.00    -0.479 OA
ATOM     26  H   UNL     1      39.674 -26.536 -16.328  0.00  0.00    +0.295 HD
ENDBRANCH  24  25
ENDBRANCH  22  24
ENDBRANCH  18  22
ENDBRANCH   1  19
TORSDOF 8
ENDMDL
MODEL 9
REMARK VINA RESULT:      -7.0      3.842      7.302
REMARK  Name = 24860533
REMARK  8 active torsions:
REMARK  status: ('A' for Active; 'I' for Inactive)
REMARK    1  A    between atoms: C_1  and  C_4
REMARK    2  A    between atoms: C_1  and  C_19
REMARK    3  A    between atoms: C_7  and  O_12
REMARK    4  A    between atoms: C_9  and  O_10
REMARK    5  A    between atoms: O_12  and  C_13
REMARK    6  A    between atoms: N_18  and  C_22
REMARK    7  A    between atoms: C_22  and  C_24
REMARK    8  A    between atoms: C_24  and  O_25
REMARK                            x       y       z     vdW  Elec       q    Type
REMARK                         _______ _______ _______ _____ _____    ______ ____
ROOT
ATOM      1  C   UNL     1      31.972 -13.073 -22.739  0.00  0.00    +0.047 C 
ENDROOT
BRANCH   1   4
ATOM      2 BR   UNL     1      33.399 -15.190 -20.916  0.00  0.00    -0.049 Br
ATOM      3 BR   UNL     1      35.154 -17.490 -22.727  0.00  0.00    -0.045 Br
ATOM      4  C   UNL     1      32.766 -14.118 -23.480  0.00  0.00    -0.011 C 
ATOM      5  C   UNL     1      32.788 -14.043 -24.873  0.00  0.00    +0.036 C 
ATOM      6  C   UNL     1      33.462 -15.134 -22.825  0.00  0.00    +0.040 C 
ATOM      7  C   UNL     1      33.506 -14.983 -25.611  0.00  0.00    +0.172 C 
ATOM      8  C   UNL     1      34.181 -16.074 -23.563  0.00  0.00    +0.077 C 
ATOM      9  C   UNL     1      34.203 -15.999 -24.956  0.00  0.00    +0.174 C 
BRANCH   9  10
ATOM     10  O   UNL     1      34.897 -16.905 -25.705  0.00  0.00    -0.503 OA
ATOM     11  H   UNL     1      34.450 -17.631 -26.094  0.00  0.00    +0.292 HD
ENDBRANCH   9  10
BRANCH   7  12
ATOM     12  O   UNL     1      33.520 -14.895 -26.970  0.00  0.00    -0.472 OA
BRANCH  12  13
ATOM     13  C   UNL     1      33.155 -13.641 -27.542  0.00  0.00    +0.206 C 
ATOM     14  C   UNL     1      34.310 -12.674 -27.387  0.00  0.00    +0.051 C 
ENDBRANCH  12  13
ENDBRANCH   7  12
ENDBRANCH   1   4
BRANCH   1  19
ATOM     15  S   UNL     1      33.671 -11.097 -23.599  0.00  0.00    -0.083 S 
ATOM     16  S   UNL     1      33.426  -8.143 -24.035  0.00  0.00    -0.027 S 
ATOM     17  O   UNL     1      31.339 -11.178 -20.538  0.00  0.00    -0.274 OA
ATOM     18  N   UNL     1      32.216  -9.631 -22.057  0.00  0.00    -0.237 N 
ATOM     19  C   UNL     1      32.855 -11.947 -22.228  0.00  0.00    +0.135 C 
ATOM     20  C   UNL     1      32.046 -10.898 -21.503  0.00  0.00    +0.241 C 
ATOM     21  C   UNL     1      33.038  -9.519 -23.168  0.00  0.00    +0.118 C 
BRANCH  18  22
ATOM     22  C   UNL     1      31.524  -8.487 -21.468  0.00  0.00    +0.209 C 
BRANCH  22  24
ATOM     23  O   UNL     1      32.538  -6.601 -20.370  0.00  0.00    -0.248 OA
ATOM     24  C   UNL     1      32.326  -7.806 -20.390  0.00  0.00    +0.335 C 
BRANCH  24  25
ATOM     25  O   UNL     1      32.792  -8.656 -19.444  0.00  0.00    -0.479 OA
ATOM     26  H   UNL     1      33.584  -9.133 -19.593  0.00  0.00    +0.295 HD
ENDBRANCH  24  25
ENDBRANCH  22  24
ENDBRANCH  18  22
ENDBRANCH   1  19
TORSDOF 8
ENDMDL
