MODEL 1
REMARK VINA RESULT:      -8.5      0.000      0.000
REMARK  Name = 65058
REMARK  4 active torsions:
REMARK  status: ('A' for Active; 'I' for Inactive)
REMARK    1  A    between atoms: N9_2  and  C1*_13
REMARK    2  A    between atoms: C3*_15  and  O3*_17
REMARK    3  A    between atoms: C4*_16  and  C5*_19
REMARK    4  A    between atoms: C5*_19  and  O5*_20
REMARK                            x       y       z     vdW  Elec       q    Type
REMARK                         _______ _______ _______ _____ _____    ______ ____
ROOT
ATOM      1  O6  I   A   1      33.423 -23.206 -18.411  0.00  0.00    -0.221 OA
ATOM      2  N9  I   A   1      34.315 -19.503 -20.861  0.00  0.00    -0.212 NA
ATOM      3  N3  I   A   1      36.183 -20.487 -19.647  0.00  0.00    -0.259 NA
ATOM      4  N7  I   A   1      32.741 -20.973 -20.216  0.00  0.00    -0.242 NA
ATOM      5  N1  I   A   1      35.617 -22.451 -18.372  0.00  0.00    -0.183 NA
ATOM      6  C4  I   A   1      34.909 -20.407 -20.046  0.00  0.00    +0.172 C 
ATOM      7  C8  I   A   1      32.994 -19.891 -20.934  0.00  0.00    +0.205 C 
ATOM      8  C5  I   A   1      33.947 -21.296 -19.659  0.00  0.00    +0.167 C 
ATOM      9  C6  I   A   1      34.272 -22.400 -18.770  0.00  0.00    +0.168 C 
ATOM     10  C2  I   A   1      36.455 -21.548 -18.803  0.00  0.00    +0.211 C 
ATOM     11  H3  I   A   1      36.870 -19.843 -19.930  0.00  0.00    +0.127 HD
ENDROOT
BRANCH   2  13
ATOM     12  O4* I   A   1      34.951 -17.228 -20.644  0.00  0.00    -0.338 OA
ATOM     13  C1* I   A   1      34.922 -18.359 -21.532  0.00  0.00    +0.182 C 
ATOM     14  C2* I   A   1      34.191 -17.910 -22.789  0.00  0.00    +0.079 C 
ATOM     15  C3* I   A   1      34.587 -16.454 -22.868  0.00  0.00    +0.144 C 
ATOM     16  C4* I   A   1      34.667 -16.035 -21.404  0.00  0.00    +0.173 C 
BRANCH  15  17
ATOM     17  O3* I   A   1      35.881 -16.370 -23.460  0.00  0.00    -0.382 OA
ATOM     18  H3* I   A   1      36.366 -15.624 -23.074  0.00  0.00    +0.210 HD
ENDBRANCH  15  17
BRANCH  16  19
ATOM     19  C5* I   A   1      33.360 -15.448 -20.889  0.00  0.00    +0.169 C 
BRANCH  19  20
ATOM     20  O5* I   A   1      32.691 -14.814 -21.966  0.00  0.00    -0.379 OA
ATOM     21  H5* I   A   1      31.746 -14.739 -21.760  0.00  0.00    +0.211 HD
ENDBRANCH  19  20
ENDBRANCH  16  19
ENDBRANCH   2  13
TORSDOF 4
ENDMDL
MODEL 2
REMARK VINA RESULT:      -8.4      6.202      9.106
REMARK  Name = 65058
REMARK  4 active torsions:
REMARK  status: ('A' for Active; 'I' for Inactive)
REMARK    1  A    between atoms: N9_2  and  C1*_13
REMARK    2  A    between atoms: C3*_15  and  O3*_17
REMARK    3  A    between atoms: C4*_16  and  C5*_19
REMARK    4  A    between atoms: C5*_19  and  O5*_20
REMARK                            x       y       z     vdW  Elec       q    Type
REMARK                         _______ _______ _______ _____ _____    ______ ____
ROOT
ATOM      1  O6  I   A   1      30.503 -23.159 -16.366  0.00  0.00    -0.221 OA
ATOM      2  N9  I   A   1      34.625 -23.857 -14.625  0.00  0.00    -0.212 NA
ATOM      3  N3  I   A   1      34.526 -23.172 -16.960  0.00  0.00    -0.259 NA
ATOM      4  N7  I   A   1      32.413 -23.868 -14.230  0.00  0.00    -0.242 NA
ATOM      5  N1  I   A   1      32.296 -22.824 -17.801  0.00  0.00    -0.183 NA
ATOM      6  C4  I   A   1      34.004 -23.494 -15.772  0.00  0.00    +0.172 C 
ATOM      7  C8  I   A   1      33.614 -24.074 -13.715  0.00  0.00    +0.205 C 
ATOM      8  C5  I   A   1      32.660 -23.503 -15.524  0.00  0.00    +0.167 C 
ATOM      9  C6  I   A   1      31.711 -23.155 -16.569  0.00  0.00    +0.168 C 
ATOM     10  C2  I   A   1      33.595 -22.847 -17.929  0.00  0.00    +0.211 C 
ATOM     11  H3  I   A   1      35.495 -23.167 -17.131  0.00  0.00    +0.127 HD
ENDROOT
BRANCH   2  13
ATOM     12  O4* I   A   1      36.657 -24.802 -15.406  0.00  0.00    -0.338 OA
ATOM     13  C1* I   A   1      36.057 -23.992 -14.380  0.00  0.00    +0.182 C 
ATOM     14  C2* I   A   1      36.405 -24.643 -13.049  0.00  0.00    +0.079 C 
ATOM     15  C3* I   A   1      37.770 -25.224 -13.342  0.00  0.00    +0.144 C 
ATOM     16  C4* I   A   1      37.663 -25.642 -14.804  0.00  0.00    +0.173 C 
BRANCH  15  17
ATOM     17  O3* I   A   1      38.738 -24.186 -13.212  0.00  0.00    -0.382 OA
ATOM     18  H3* I   A   1      38.334 -23.335 -13.442  0.00  0.00    +0.210 HD
ENDBRANCH  15  17
BRANCH  16  19
ATOM     19  C5* I   A   1      37.228 -27.092 -14.970  0.00  0.00    +0.169 C 
BRANCH  19  20
ATOM     20  O5* I   A   1      36.804 -27.289 -16.308  0.00  0.00    -0.379 OA
ATOM     21  H5* I   A   1      36.058 -26.698 -16.499  0.00  0.00    +0.211 HD
ENDBRANCH  19  20
ENDBRANCH  16  19
ENDBRANCH   2  13
TORSDOF 4
ENDMDL
MODEL 3
REMARK VINA RESULT:      -8.4      6.250      8.296
REMARK  Name = 65058
REMARK  4 active torsions:
REMARK  status: ('A' for Active; 'I' for Inactive)
REMARK    1  A    between atoms: N9_2  and  C1*_13
REMARK    2  A    between atoms: C3*_15  and  O3*_17
REMARK    3  A    between atoms: C4*_16  and  C5*_19
REMARK    4  A    between atoms: C5*_19  and  O5*_20
REMARK                            x       y       z     vdW  Elec       q    Type
REMARK                         _______ _______ _______ _____ _____    ______ ____
ROOT
ATOM      1  O6  I   A   1      29.390 -22.401 -17.021  0.00  0.00    -0.221 OA
ATOM      2  N9  I   A   1      33.778 -23.406 -16.530  0.00  0.00    -0.212 NA
ATOM      3  N3  I   A   1      32.360 -23.713 -14.574  0.00  0.00    -0.259 NA
ATOM      4  N7  I   A   1      32.183 -22.676 -17.934  0.00  0.00    -0.242 NA
ATOM      5  N1  I   A   1      30.044 -23.154 -14.926  0.00  0.00    -0.183 NA
ATOM      6  C4  I   A   1      32.610 -23.382 -15.845  0.00  0.00    +0.172 C 
ATOM      7  C8  I   A   1      33.466 -22.967 -17.798  0.00  0.00    +0.205 C 
ATOM      8  C5  I   A   1      31.646 -22.938 -16.705  0.00  0.00    +0.167 C 
ATOM      9  C6  I   A   1      30.268 -22.799 -16.265  0.00  0.00    +0.168 C 
ATOM     10  C2  I   A   1      31.040 -23.569 -14.191  0.00  0.00    +0.211 C 
ATOM     11  H3  I   A   1      33.060 -24.033 -13.960  0.00  0.00    +0.127 HD
ENDROOT
BRANCH   2  13
ATOM     12  O4* I   A   1      34.959 -24.725 -14.950  0.00  0.00    -0.338 OA
ATOM     13  C1* I   A   1      35.096 -23.809 -16.051  0.00  0.00    +0.182 C 
ATOM     14  C2* I   A   1      35.962 -22.659 -15.559  0.00  0.00    +0.079 C 
ATOM     15  C3* I   A   1      36.882 -23.364 -14.588  0.00  0.00    +0.144 C 
ATOM     16  C4* I   A   1      35.987 -24.437 -13.978  0.00  0.00    +0.173 C 
BRANCH  15  17
ATOM     17  O3* I   A   1      37.931 -23.981 -15.329  0.00  0.00    -0.382 OA
ATOM     18  H3* I   A   1      37.758 -24.932 -15.405  0.00  0.00    +0.210 HD
ENDBRANCH  15  17
BRANCH  16  19
ATOM     19  C5* I   A   1      35.308 -23.976 -12.696  0.00  0.00    +0.169 C 
BRANCH  19  20
ATOM     20  O5* I   A   1      34.144 -24.758 -12.492  0.00  0.00    -0.379 OA
ATOM     21  H5* I   A   1      34.299 -25.386 -11.770  0.00  0.00    +0.211 HD
ENDBRANCH  19  20
ENDBRANCH  16  19
ENDBRANCH   2  13
TORSDOF 4
ENDMDL
MODEL 4
REMARK VINA RESULT:      -8.3      1.035      2.044
REMARK  Name = 65058
REMARK  4 active torsions:
REMARK  status: ('A' for Active; 'I' for Inactive)
REMARK    1  A    between atoms: N9_2  and  C1*_13
REMARK    2  A    between atoms: C3*_15  and  O3*_17
REMARK    3  A    between atoms: C4*_16  and  C5*_19
REMARK    4  A    between atoms: C5*_19  and  O5*_20
REMARK                            x       y       z     vdW  Elec       q    Type
REMARK                         _______ _______ _______ _____ _____    ______ ____
ROOT
ATOM      1  O6  I   A   1      34.799 -23.029 -18.623  0.00  0.00    -0.221 OA
ATOM      2  N9  I   A   1      35.720 -19.172 -20.810  0.00  0.00    -0.212 NA
ATOM      3  N3  I   A   1      33.372 -19.795 -20.634  0.00  0.00    -0.259 NA
ATOM      4  N7  I   A   1      36.573 -20.934 -19.707  0.00  0.00    -0.242 NA
ATOM      5  N1  I   A   1      32.976 -21.859 -19.457  0.00  0.00    -0.183 NA
ATOM      6  C4  I   A   1      34.684 -19.958 -20.433  0.00  0.00    +0.172 C 
ATOM      7  C8  I   A   1      36.850 -19.809 -20.345  0.00  0.00    +0.205 C 
ATOM      8  C5  I   A   1      35.211 -21.026 -19.763  0.00  0.00    +0.167 C 
ATOM      9  C6  I   A   1      34.345 -22.063 -19.226  0.00  0.00    +0.168 C 
ATOM     10  C2  I   A   1      32.581 -20.799 -20.110  0.00  0.00    +0.211 C 
ATOM     11  H3  I   A   1      33.001 -19.022 -21.118  0.00  0.00    +0.127 HD
ENDROOT
BRANCH   2  13
ATOM     12  O4* I   A   1      35.109 -16.881 -20.724  0.00  0.00    -0.338 OA
ATOM     13  C1* I   A   1      35.675 -17.915 -21.549  0.00  0.00    +0.182 C 
ATOM     14  C2* I   A   1      34.842 -17.965 -22.821  0.00  0.00    +0.079 C 
ATOM     15  C3* I   A   1      34.446 -16.515 -22.984  0.00  0.00    +0.144 C 
ATOM     16  C4* I   A   1      34.274 -16.038 -21.546  0.00  0.00    +0.173 C 
BRANCH  15  17
ATOM     17  O3* I   A   1      35.531 -15.818 -23.591  0.00  0.00    -0.382 OA
ATOM     18  H3* I   A   1      35.186 -15.080 -24.119  0.00  0.00    +0.210 HD
ENDBRANCH  15  17
BRANCH  16  19
ATOM     19  C5* I   A   1      32.840 -16.170 -21.051  0.00  0.00    +0.169 C 
BRANCH  19  20
ATOM     20  O5* I   A   1      32.099 -15.050 -21.503  0.00  0.00    -0.379 OA
ATOM     21  H5* I   A   1      32.018 -14.405 -20.783  0.00  0.00    +0.211 HD
ENDBRANCH  19  20
ENDBRANCH  16  19
ENDBRANCH   2  13
TORSDOF 4
ENDMDL
MODEL 5
REMARK VINA RESULT:      -8.2      5.671      8.377
REMARK  Name = 65058
REMARK  4 active torsions:
REMARK  status: ('A' for Active; 'I' for Inactive)
REMARK    1  A    between atoms: N9_2  and  C1*_13
REMARK    2  A    between atoms: C3*_15  and  O3*_17
REMARK    3  A    between atoms: C4*_16  and  C5*_19
REMARK    4  A    between atoms: C5*_19  and  O5*_20
REMARK                            x       y       z     vdW  Elec       q    Type
REMARK                         _______ _______ _______ _____ _____    ______ ____
ROOT
ATOM      1  O6  I   A   1      38.791 -23.129 -11.667  0.00  0.00    -0.221 OA
ATOM      2  N9  I   A   1      35.398 -23.682 -14.615  0.00  0.00    -0.212 NA
ATOM      3  N3  I   A   1      34.951 -24.307 -12.304  0.00  0.00    -0.259 NA
ATOM      4  N7  I   A   1      37.525 -23.015 -14.331  0.00  0.00    -0.242 NA
ATOM      5  N1  I   A   1      36.811 -23.980 -10.807  0.00  0.00    -0.183 NA
ATOM      6  C4  I   A   1      35.706 -23.845 -13.306  0.00  0.00    +0.172 C 
ATOM      7  C8  I   A   1      36.539 -23.174 -15.197  0.00  0.00    +0.205 C 
ATOM      8  C5  I   A   1      37.000 -23.437 -13.142  0.00  0.00    +0.167 C 
ATOM      9  C6  I   A   1      37.632 -23.490 -11.834  0.00  0.00    +0.168 C 
ATOM     10  C2  I   A   1      35.585 -24.343 -11.076  0.00  0.00    +0.211 C 
ATOM     11  H3  I   A   1      34.020 -24.599 -12.430  0.00  0.00    +0.127 HD
ENDROOT
BRANCH   2  13
ATOM     12  O4* I   A   1      34.363 -24.170 -16.693  0.00  0.00    -0.338 OA
ATOM     13  C1* I   A   1      34.136 -23.972 -15.286  0.00  0.00    +0.182 C 
ATOM     14  C2* I   A   1      33.092 -22.872 -15.161  0.00  0.00    +0.079 C 
ATOM     15  C3* I   A   1      32.249 -23.110 -16.393  0.00  0.00    +0.144 C 
ATOM     16  C4* I   A   1      33.268 -23.581 -17.426  0.00  0.00    +0.173 C 
BRANCH  15  17
ATOM     17  O3* I   A   1      31.331 -24.164 -16.114  0.00  0.00    -0.382 OA
ATOM     18  H3* I   A   1      30.863 -23.974 -15.285  0.00  0.00    +0.210 HD
ENDBRANCH  15  17
BRANCH  16  19
ATOM     19  C5* I   A   1      33.822 -22.439 -18.266  0.00  0.00    +0.169 C 
BRANCH  19  20
ATOM     20  O5* I   A   1      32.985 -22.257 -19.395  0.00  0.00    -0.379 OA
ATOM     21  H5* I   A   1      32.297 -21.607 -19.185  0.00  0.00    +0.211 HD
ENDBRANCH  19  20
ENDBRANCH  16  19
ENDBRANCH   2  13
TORSDOF 4
ENDMDL
MODEL 6
REMARK VINA RESULT:      -8.2      4.920      8.744
REMARK  Name = 65058
REMARK  4 active torsions:
REMARK  status: ('A' for Active; 'I' for Inactive)
REMARK    1  A    between atoms: N9_2  and  C1*_13
REMARK    2  A    between atoms: C3*_15  and  O3*_17
REMARK    3  A    between atoms: C4*_16  and  C5*_19
REMARK    4  A    between atoms: C5*_19  and  O5*_20
REMARK                            x       y       z     vdW  Elec       q    Type
REMARK                         _______ _______ _______ _____ _____    ______ ____
ROOT
ATOM      1  O6  I   A   1      33.140 -22.646 -18.868  0.00  0.00    -0.221 OA
ATOM      2  N9  I   A   1      35.709 -23.105 -15.167  0.00  0.00    -0.212 NA
ATOM      3  N3  I   A   1      36.758 -22.067 -17.104  0.00  0.00    -0.259 NA
ATOM      4  N7  I   A   1      33.686 -23.452 -16.082  0.00  0.00    -0.242 NA
ATOM      5  N1  I   A   1      35.320 -21.864 -19.026  0.00  0.00    -0.183 NA
ATOM      6  C4  I   A   1      35.750 -22.640 -16.438  0.00  0.00    +0.172 C 
ATOM      7  C8  I   A   1      34.430 -23.590 -14.997  0.00  0.00    +0.205 C 
ATOM      8  C5  I   A   1      34.517 -22.854 -16.987  0.00  0.00    +0.167 C 
ATOM      9  C6  I   A   1      34.239 -22.461 -18.359  0.00  0.00    +0.168 C 
ATOM     10  C2  I   A   1      36.457 -21.706 -18.404  0.00  0.00    +0.211 C 
ATOM     11  H3  I   A   1      37.643 -21.916 -16.701  0.00  0.00    +0.127 HD
ENDROOT
BRANCH   2  13
ATOM     12  O4* I   A   1      37.922 -23.806 -14.676  0.00  0.00    -0.338 OA
ATOM     13  C1* I   A   1      36.774 -23.101 -14.171  0.00  0.00    +0.182 C 
ATOM     14  C2* I   A   1      36.401 -23.762 -12.852  0.00  0.00    +0.079 C 
ATOM     15  C3* I   A   1      37.754 -24.187 -12.330  0.00  0.00    +0.144 C 
ATOM     16  C4* I   A   1      38.514 -24.560 -13.598  0.00  0.00    +0.173 C 
BRANCH  15  17
ATOM     17  O3* I   A   1      38.374 -23.060 -11.715  0.00  0.00    -0.382 OA
ATOM     18  H3* I   A   1      38.309 -22.293 -12.305  0.00  0.00    +0.210 HD
ENDBRANCH  15  17
BRANCH  16  19
ATOM     19  C5* I   A   1      38.399 -26.039 -13.938  0.00  0.00    +0.169 C 
BRANCH  19  20
ATOM     20  O5* I   A   1      38.301 -26.176 -15.345  0.00  0.00    -0.379 OA
ATOM     21  H5* I   A   1      37.751 -26.946 -15.557  0.00  0.00    +0.211 HD
ENDBRANCH  19  20
ENDBRANCH  16  19
ENDBRANCH   2  13
TORSDOF 4
ENDMDL
MODEL 7
REMARK VINA RESULT:      -8.1      7.113      9.612
REMARK  Name = 65058
REMARK  4 active torsions:
REMARK  status: ('A' for Active; 'I' for Inactive)
REMARK    1  A    between atoms: N9_2  and  C1*_13
REMARK    2  A    between atoms: C3*_15  and  O3*_17
REMARK    3  A    between atoms: C4*_16  and  C5*_19
REMARK    4  A    between atoms: C5*_19  and  O5*_20
REMARK                            x       y       z     vdW  Elec       q    Type
REMARK                         _______ _______ _______ _____ _____    ______ ____
ROOT
ATOM      1  O6  I   A   1      30.905 -22.802 -16.375  0.00  0.00    -0.221 OA
ATOM      2  N9  I   A   1      34.845 -24.342 -14.760  0.00  0.00    -0.212 NA
ATOM      3  N3  I   A   1      32.834 -25.016 -13.563  0.00  0.00    -0.259 NA
ATOM      4  N7  I   A   1      33.840 -23.103 -16.344  0.00  0.00    -0.242 NA
ATOM      5  N1  I   A   1      30.786 -24.151 -14.491  0.00  0.00    -0.183 NA
ATOM      6  C4  I   A   1      33.512 -24.384 -14.527  0.00  0.00    +0.172 C 
ATOM      7  C8  I   A   1      34.995 -23.549 -15.877  0.00  0.00    +0.205 C 
ATOM      8  C5  I   A   1      32.908 -23.629 -15.494  0.00  0.00    +0.167 C 
ATOM      9  C6  I   A   1      31.463 -23.474 -15.517  0.00  0.00    +0.168 C 
ATOM     10  C2  I   A   1      31.464 -24.847 -13.618  0.00  0.00    +0.211 C 
ATOM     11  H3  I   A   1      33.276 -25.558 -12.870  0.00  0.00    +0.127 HD
ENDROOT
BRANCH   2  13
ATOM     12  O4* I   A   1      35.746 -24.735 -12.600  0.00  0.00    -0.338 OA
ATOM     13  C1* I   A   1      35.913 -24.990 -14.006  0.00  0.00    +0.182 C 
ATOM     14  C2* I   A   1      37.313 -24.520 -14.374  0.00  0.00    +0.079 C 
ATOM     15  C3* I   A   1      38.075 -24.809 -13.101  0.00  0.00    +0.144 C 
ATOM     16  C4* I   A   1      37.047 -24.532 -12.009  0.00  0.00    +0.173 C 
BRANCH  15  17
ATOM     17  O3* I   A   1      38.424 -26.191 -13.089  0.00  0.00    -0.382 OA
ATOM     18  H3* I   A   1      38.016 -26.635 -13.849  0.00  0.00    +0.210 HD
ENDBRANCH  15  17
BRANCH  16  19
ATOM     19  C5* I   A   1      37.112 -23.102 -11.491  0.00  0.00    +0.169 C 
BRANCH  19  20
ATOM     20  O5* I   A   1      38.440 -22.629 -11.629  0.00  0.00    -0.379 OA
ATOM     21  H5* I   A   1      38.875 -22.630 -10.763  0.00  0.00    +0.211 HD
ENDBRANCH  19  20
ENDBRANCH  16  19
ENDBRANCH   2  13
TORSDOF 4
ENDMDL
MODEL 8
REMARK VINA RESULT:      -8.1      4.554      8.807
REMARK  Name = 65058
REMARK  4 active torsions:
REMARK  status: ('A' for Active; 'I' for Inactive)
REMARK    1  A    between atoms: N9_2  and  C1*_13
REMARK    2  A    between atoms: C3*_15  and  O3*_17
REMARK    3  A    between atoms: C4*_16  and  C5*_19
REMARK    4  A    between atoms: C5*_19  and  O5*_20
REMARK                            x       y       z     vdW  Elec       q    Type
REMARK                         _______ _______ _______ _____ _____    ______ ____
ROOT
ATOM      1  O6  I   A   1      34.764 -21.099 -19.839  0.00  0.00    -0.221 OA
ATOM      2  N9  I   A   1      36.336 -23.101 -16.094  0.00  0.00    -0.212 NA
ATOM      3  N3  I   A   1      34.021 -23.562 -16.690  0.00  0.00    -0.259 NA
ATOM      4  N7  I   A   1      36.813 -21.732 -17.812  0.00  0.00    -0.242 NA
ATOM      5  N1  I   A   1      33.270 -22.456 -18.694  0.00  0.00    -0.183 NA
ATOM      6  C4  I   A   1      35.221 -22.995 -16.854  0.00  0.00    +0.172 C 
ATOM      7  C8  I   A   1      37.279 -22.314 -16.719  0.00  0.00    +0.205 C 
ATOM      8  C5  I   A   1      35.518 -22.163 -17.895  0.00  0.00    +0.167 C 
ATOM      9  C6  I   A   1      34.516 -21.844 -18.899  0.00  0.00    +0.168 C 
ATOM     10  C2  I   A   1      33.094 -23.237 -17.662  0.00  0.00    +0.211 C 
ATOM     11  H3  I   A   1      33.814 -24.161 -15.937  0.00  0.00    +0.127 HD
ENDROOT
BRANCH   2  13
ATOM     12  O4* I   A   1      37.862 -23.690 -14.374  0.00  0.00    -0.338 OA
ATOM     13  C1* I   A   1      36.526 -23.878 -14.874  0.00  0.00    +0.182 C 
ATOM     14  C2* I   A   1      36.330 -25.377 -15.048  0.00  0.00    +0.079 C 
ATOM     15  C3* I   A   1      37.177 -25.928 -13.924  0.00  0.00    +0.144 C 
ATOM     16  C4* I   A   1      38.342 -24.947 -13.853  0.00  0.00    +0.173 C 
BRANCH  15  17
ATOM     17  O3* I   A   1      36.422 -25.860 -12.717  0.00  0.00    -0.382 OA
ATOM     18  H3* I   A   1      36.892 -25.309 -12.072  0.00  0.00    +0.210 HD
ENDBRANCH  15  17
BRANCH  16  19
ATOM     19  C5* I   A   1      39.530 -25.385 -14.699  0.00  0.00    +0.169 C 
BRANCH  19  20
ATOM     20  O5* I   A   1      40.684 -24.694 -14.253  0.00  0.00    -0.379 OA
ATOM     21  H5* I   A   1      41.478 -25.168 -14.546  0.00  0.00    +0.211 HD
ENDBRANCH  19  20
ENDBRANCH  16  19
ENDBRANCH   2  13
TORSDOF 4
ENDMDL
MODEL 9
REMARK VINA RESULT:      -8.0      4.266      7.745
REMARK  Name = 65058
REMARK  4 active torsions:
REMARK  status: ('A' for Active; 'I' for Inactive)
REMARK    1  A    between atoms: N9_2  and  C1*_13
REMARK    2  A    between atoms: C3*_15  and  O3*_17
REMARK    3  A    between atoms: C4*_16  and  C5*_19
REMARK    4  A    between atoms: C5*_19  and  O5*_20
REMARK                            x       y       z     vdW  Elec       q    Type
REMARK                         _______ _______ _______ _____ _____    ______ ____
ROOT
ATOM      1  O6  I   A   1      32.698 -21.638 -20.204  0.00  0.00    -0.221 OA
ATOM      2  N9  I   A   1      33.875 -23.355 -16.182  0.00  0.00    -0.212 NA
ATOM      3  N3  I   A   1      35.673 -22.454 -17.554  0.00  0.00    -0.259 NA
ATOM      4  N7  I   A   1      32.184 -22.931 -17.601  0.00  0.00    -0.242 NA
ATOM      5  N1  I   A   1      34.956 -21.563 -19.675  0.00  0.00    -0.183 NA
ATOM      6  C4  I   A   1      34.402 -22.765 -17.281  0.00  0.00    +0.172 C 
ATOM      7  C8  I   A   1      32.521 -23.435 -16.425  0.00  0.00    +0.205 C 
ATOM      8  C5  I   A   1      33.369 -22.510 -18.138  0.00  0.00    +0.167 C 
ATOM      9  C6  I   A   1      33.611 -21.874 -19.422  0.00  0.00    +0.168 C 
ATOM     10  C2  I   A   1      35.866 -21.850 -18.783  0.00  0.00    +0.211 C 
ATOM     11  H3  I   A   1      36.412 -22.640 -16.932  0.00  0.00    +0.127 HD
ENDROOT
BRANCH   2  13
ATOM     12  O4* I   A   1      35.676 -22.942 -14.694  0.00  0.00    -0.338 OA
ATOM     13  C1* I   A   1      34.570 -23.815 -14.985  0.00  0.00    +0.182 C 
ATOM     14  C2* I   A   1      35.138 -25.222 -15.092  0.00  0.00    +0.079 C 
ATOM     15  C3* I   A   1      36.270 -25.170 -14.092  0.00  0.00    +0.144 C 
ATOM     16  C4* I   A   1      36.781 -23.739 -14.219  0.00  0.00    +0.173 C 
BRANCH  15  17
ATOM     17  O3* I   A   1      35.730 -25.371 -12.788  0.00  0.00    -0.382 OA
ATOM     18  H3* I   A   1      36.321 -25.945 -12.277  0.00  0.00    +0.210 HD
ENDBRANCH  15  17
BRANCH  16  19
ATOM     19  C5* I   A   1      37.921 -23.609 -15.220  0.00  0.00    +0.169 C 
BRANCH  19  20
ATOM     20  O5* I   A   1      37.878 -22.313 -15.791  0.00  0.00    -0.379 OA
ATOM     21  H5* I   A   1      37.154 -21.807 -15.389  0.00  0.00    +0.211 HD
ENDBRANCH  19  20
ENDBRANCH  16  19
ENDBRANCH   2  13
TORSDOF 4
ENDMDL
