MODEL 1
REMARK VINA RESULT:      -6.1      0.000      0.000
REMARK  Name = 448267
REMARK  6 active torsions:
REMARK  status: ('A' for Active; 'I' for Inactive)
REMARK    1  A    between atoms: C_2  and  O_11
REMARK    2  A    between atoms: C_3  and  O_13
REMARK    3  A    between atoms: C_4  and  O_15
REMARK    4  A    between atoms: C_5  and  C_17
REMARK    5  A    between atoms: C_6  and  N_7
REMARK    6  A    between atoms: C_17  and  O_18
REMARK                            x       y       z     vdW  Elec       q    Type
REMARK                         _______ _______ _______ _____ _____    ______ ____
ROOT
ATOM      1  S   UNL     1      36.619 -25.422 -13.996  0.00  0.00    -0.157 S 
ATOM      2  C   UNL     1      36.881 -23.181 -11.693  0.00  0.00    +0.163 C 
ATOM      3  C   UNL     1      38.067 -24.102 -12.001  0.00  0.00    +0.152 C 
ATOM      4  C   UNL     1      35.518 -23.803 -12.014  0.00  0.00    +0.130 C 
ATOM      5  C   UNL     1      38.129 -24.535 -13.472  0.00  0.00    +0.104 C 
ATOM      6  C   UNL     1      35.339 -24.223 -13.478  0.00  0.00    +0.015 C 
ENDROOT
BRANCH   6   7
ATOM      7  N   UNL     1      35.290 -23.077 -14.382  0.00  0.00    +0.390 N 
ATOM      8  H   UNL     1      34.402 -22.589 -14.266  0.00  0.00    -0.088 HD
ATOM      9  H   UNL     1      35.378 -23.400 -15.346  0.00  0.00    -0.088 HD
ATOM     10  H   UNL     1      36.058 -22.441 -14.166  0.00  0.00    -0.088 HD
ENDBRANCH   6   7
BRANCH   2  11
ATOM     11  O   UNL     1      36.920 -22.861 -10.298  0.00  0.00    -0.380 OA
ATOM     12  H   UNL     1      36.832 -21.902 -10.183  0.00  0.00    +0.211 HD
ENDBRANCH   2  11
BRANCH   3  13
ATOM     13  O   UNL     1      39.269 -23.379 -11.708  0.00  0.00    -0.381 OA
ATOM     14  H   UNL     1      39.043 -22.495 -11.379  0.00  0.00    +0.210 HD
ENDBRANCH   3  13
BRANCH   4  15
ATOM     15  O   UNL     1      35.298 -24.953 -11.187  0.00  0.00    -0.383 OA
ATOM     16  H   UNL     1      34.490 -25.408 -11.473  0.00  0.00    +0.210 HD
ENDBRANCH   4  15
BRANCH   5  17
ATOM     17  C   UNL     1      39.327 -25.449 -13.740  0.00  0.00    +0.150 C 
BRANCH  17  18
ATOM     18  O   UNL     1      40.455 -24.638 -14.009  0.00  0.00    -0.381 OA
ATOM     19  H   UNL     1      41.154 -25.180 -14.407  0.00  0.00    +0.210 HD
ENDBRANCH  17  18
ENDBRANCH   5  17
TORSDOF 6
ENDMDL
MODEL 2
REMARK VINA RESULT:      -6.1      1.914      3.800
REMARK  Name = 448267
REMARK  6 active torsions:
REMARK  status: ('A' for Active; 'I' for Inactive)
REMARK    1  A    between atoms: C_2  and  O_11
REMARK    2  A    between atoms: C_3  and  O_13
REMARK    3  A    between atoms: C_4  and  O_15
REMARK    4  A    between atoms: C_5  and  C_17
REMARK    5  A    between atoms: C_6  and  N_7
REMARK    6  A    between atoms: C_17  and  O_18
REMARK                            x       y       z     vdW  Elec       q    Type
REMARK                         _______ _______ _______ _____ _____    ______ ____
ROOT
ATOM      1  S   UNL     1      35.380 -24.563 -14.093  0.00  0.00    -0.157 S 
ATOM      2  C   UNL     1      38.478 -25.292 -13.574  0.00  0.00    +0.163 C 
ATOM      3  C   UNL     1      37.686 -24.522 -12.511  0.00  0.00    +0.152 C 
ATOM      4  C   UNL     1      37.964 -25.078 -15.002  0.00  0.00    +0.130 C 
ATOM      5  C   UNL     1      36.195 -24.885 -12.489  0.00  0.00    +0.104 C 
ATOM      6  C   UNL     1      36.498 -25.477 -15.217  0.00  0.00    +0.015 C 
ENDROOT
BRANCH   6   7
ATOM      7  N   UNL     1      36.294 -26.918 -15.109  0.00  0.00    +0.390 N 
ATOM      8  H   UNL     1      36.837 -27.282 -14.326  0.00  0.00    -0.088 HD
ATOM      9  H   UNL     1      36.595 -27.371 -15.973  0.00  0.00    -0.088 HD
ATOM     10  H   UNL     1      35.304 -27.110 -14.953  0.00  0.00    -0.088 HD
ENDBRANCH   6   7
BRANCH   2  11
ATOM     11  O   UNL     1      39.841 -24.859 -13.510  0.00  0.00    -0.380 OA
ATOM     12  H   UNL     1      40.327 -25.413 -12.879  0.00  0.00    +0.211 HD
ENDBRANCH   2  11
BRANCH   3  13
ATOM     13  O   UNL     1      38.235 -24.855 -11.230  0.00  0.00    -0.381 OA
ATOM     14  H   UNL     1      37.539 -25.230 -10.667  0.00  0.00    +0.210 HD
ENDBRANCH   3  13
BRANCH   4  15
ATOM     15  O   UNL     1      38.115 -23.703 -15.375  0.00  0.00    -0.383 OA
ATOM     16  H   UNL     1      37.801 -23.135 -14.653  0.00  0.00    +0.210 HD
ENDBRANCH   4  15
BRANCH   5  17
ATOM     17  C   UNL     1      35.440 -24.099 -11.414  0.00  0.00    +0.150 C 
BRANCH  17  18
ATOM     18  O   UNL     1      35.300 -24.925 -10.274  0.00  0.00    -0.381 OA
ATOM     19  H   UNL     1      35.417 -24.392  -9.472  0.00  0.00    +0.210 HD
ENDBRANCH  17  18
ENDBRANCH   5  17
TORSDOF 6
ENDMDL
MODEL 3
REMARK VINA RESULT:      -6.0      2.569      3.498
REMARK  Name = 448267
REMARK  6 active torsions:
REMARK  status: ('A' for Active; 'I' for Inactive)
REMARK    1  A    between atoms: C_2  and  O_11
REMARK    2  A    between atoms: C_3  and  O_13
REMARK    3  A    between atoms: C_4  and  O_15
REMARK    4  A    between atoms: C_5  and  C_17
REMARK    5  A    between atoms: C_6  and  N_7
REMARK    6  A    between atoms: C_17  and  O_18
REMARK                            x       y       z     vdW  Elec       q    Type
REMARK                         _______ _______ _______ _____ _____    ______ ____
ROOT
ATOM      1  S   UNL     1      35.707 -23.902 -13.395  0.00  0.00    -0.157 S 
ATOM      2  C   UNL     1      38.656 -25.205 -13.437  0.00  0.00    +0.163 C 
ATOM      3  C   UNL     1      38.068 -24.602 -14.718  0.00  0.00    +0.152 C 
ATOM      4  C   UNL     1      37.596 -25.722 -12.457  0.00  0.00    +0.130 C 
ATOM      5  C   UNL     1      37.120 -23.426 -14.452  0.00  0.00    +0.104 C 
ATOM      6  C   UNL     1      36.593 -24.662 -11.987  0.00  0.00    +0.015 C 
ENDROOT
BRANCH   6   7
ATOM      7  N   UNL     1      37.215 -23.646 -11.143  0.00  0.00    +0.390 N 
ATOM      8  H   UNL     1      37.400 -24.037 -10.219  0.00  0.00    -0.088 HD
ATOM      9  H   UNL     1      36.587 -22.846 -11.054  0.00  0.00    -0.088 HD
ATOM     10  H   UNL     1      38.092 -23.343 -11.565  0.00  0.00    -0.088 HD
ENDBRANCH   6   7
BRANCH   2  11
ATOM     11  O   UNL     1      39.504 -26.297 -13.810  0.00  0.00    -0.380 OA
ATOM     12  H   UNL     1      40.013 -26.055 -14.599  0.00  0.00    +0.211 HD
ENDBRANCH   2  11
BRANCH   3  13
ATOM     13  O   UNL     1      39.158 -24.114 -15.510  0.00  0.00    -0.381 OA
ATOM     14  H   UNL     1      39.995 -24.449 -15.151  0.00  0.00    +0.210 HD
ENDBRANCH   3  13
BRANCH   4  15
ATOM     15  O   UNL     1      36.864 -26.800 -13.053  0.00  0.00    -0.383 OA
ATOM     16  H   UNL     1      37.299 -27.071 -13.877  0.00  0.00    +0.210 HD
ENDBRANCH   4  15
BRANCH   5  17
ATOM     17  C   UNL     1      36.558 -22.850 -15.754  0.00  0.00    +0.150 C 
BRANCH  17  18
ATOM     18  O   UNL     1      37.429 -21.828 -16.202  0.00  0.00    -0.381 OA
ATOM     19  H   UNL     1      37.262 -21.651 -17.141  0.00  0.00    +0.210 HD
ENDBRANCH  17  18
ENDBRANCH   5  17
TORSDOF 6
ENDMDL
MODEL 4
REMARK VINA RESULT:      -5.9      2.136      3.697
REMARK  Name = 448267
REMARK  6 active torsions:
REMARK  status: ('A' for Active; 'I' for Inactive)
REMARK    1  A    between atoms: C_2  and  O_11
REMARK    2  A    between atoms: C_3  and  O_13
REMARK    3  A    between atoms: C_4  and  O_15
REMARK    4  A    between atoms: C_5  and  C_17
REMARK    5  A    between atoms: C_6  and  N_7
REMARK    6  A    between atoms: C_17  and  O_18
REMARK                            x       y       z     vdW  Elec       q    Type
REMARK                         _______ _______ _______ _____ _____    ______ ____
ROOT
ATOM      1  S   UNL     1      37.496 -24.064 -14.719  0.00  0.00    -0.157 S 
ATOM      2  C   UNL     1      36.640 -24.652 -11.666  0.00  0.00    +0.163 C 
ATOM      3  C   UNL     1      35.594 -24.156 -12.671  0.00  0.00    +0.152 C 
ATOM      4  C   UNL     1      38.070 -24.210 -11.996  0.00  0.00    +0.130 C 
ATOM      5  C   UNL     1      35.867 -24.624 -14.107  0.00  0.00    +0.104 C 
ATOM      6  C   UNL     1      38.576 -24.666 -13.370  0.00  0.00    +0.015 C 
ENDROOT
BRANCH   6   7
ATOM      7  N   UNL     1      38.757 -26.113 -13.443  0.00  0.00    +0.390 N 
ATOM      8  H   UNL     1      37.973 -26.577 -12.984  0.00  0.00    -0.088 HD
ATOM      9  H   UNL     1      39.626 -26.372 -12.977  0.00  0.00    -0.088 HD
ATOM     10  H   UNL     1      38.797 -26.402 -14.421  0.00  0.00    -0.088 HD
ENDBRANCH   6   7
BRANCH   2  11
ATOM     11  O   UNL     1      36.290 -24.142 -10.375  0.00  0.00    -0.380 OA
ATOM     12  H   UNL     1      36.433 -24.829  -9.706  0.00  0.00    +0.211 HD
ENDBRANCH   2  11
BRANCH   3  13
ATOM     13  O   UNL     1      34.322 -24.684 -12.274  0.00  0.00    -0.381 OA
ATOM     14  H   UNL     1      34.153 -24.458 -11.346  0.00  0.00    +0.210 HD
ENDBRANCH   3  13
BRANCH   4  15
ATOM     15  O   UNL     1      38.167 -22.782 -11.933  0.00  0.00    -0.383 OA
ATOM     16  H   UNL     1      37.308 -22.389 -12.153  0.00  0.00    +0.210 HD
ENDBRANCH   4  15
BRANCH   5  17
ATOM     17  C   UNL     1      34.800 -24.111 -15.078  0.00  0.00    +0.150 C 
BRANCH  17  18
ATOM     18  O   UNL     1      34.338 -22.858 -14.611  0.00  0.00    -0.381 OA
ATOM     19  H   UNL     1      34.415 -22.201 -15.320  0.00  0.00    +0.210 HD
ENDBRANCH  17  18
ENDBRANCH   5  17
TORSDOF 6
ENDMDL
MODEL 5
REMARK VINA RESULT:      -5.8      2.721      3.253
REMARK  Name = 448267
REMARK  6 active torsions:
REMARK  status: ('A' for Active; 'I' for Inactive)
REMARK    1  A    between atoms: C_2  and  O_11
REMARK    2  A    between atoms: C_3  and  O_13
REMARK    3  A    between atoms: C_4  and  O_15
REMARK    4  A    between atoms: C_5  and  C_17
REMARK    5  A    between atoms: C_6  and  N_7
REMARK    6  A    between atoms: C_17  and  O_18
REMARK                            x       y       z     vdW  Elec       q    Type
REMARK                         _______ _______ _______ _____ _____    ______ ____
ROOT
ATOM      1  S   UNL     1      38.408 -24.871 -14.069  0.00  0.00    -0.157 S 
ATOM      2  C   UNL     1      35.458 -24.344 -12.879  0.00  0.00    +0.163 C 
ATOM      3  C   UNL     1      36.091 -23.324 -13.832  0.00  0.00    +0.152 C 
ATOM      4  C   UNL     1      36.481 -25.156 -12.077  0.00  0.00    +0.130 C 
ATOM      5  C   UNL     1      37.034 -23.963 -14.860  0.00  0.00    +0.104 C 
ATOM      6  C   UNL     1      37.471 -25.956 -12.932  0.00  0.00    +0.015 C 
ENDROOT
BRANCH   6   7
ATOM      7  N   UNL     1      36.824 -27.047 -13.656  0.00  0.00    +0.390 N 
ATOM      8  H   UNL     1      35.811 -26.948 -13.586  0.00  0.00    -0.088 HD
ATOM      9  H   UNL     1      37.108 -27.940 -13.252  0.00  0.00    -0.088 HD
ATOM     10  H   UNL     1      37.101 -27.015 -14.637  0.00  0.00    -0.088 HD
ENDBRANCH   6   7
BRANCH   2  11
ATOM     11  O   UNL     1      34.619 -23.633 -11.963  0.00  0.00    -0.380 OA
ATOM     12  H   UNL     1      35.050 -22.802 -11.709  0.00  0.00    +0.211 HD
ENDBRANCH   2  11
BRANCH   3  13
ATOM     13  O   UNL     1      35.031 -22.682 -14.551  0.00  0.00    -0.381 OA
ATOM     14  H   UNL     1      34.297 -23.305 -14.672  0.00  0.00    +0.210 HD
ENDBRANCH   3  13
BRANCH   4  15
ATOM     15  O   UNL     1      37.230 -24.287 -11.218  0.00  0.00    -0.383 OA
ATOM     16  H   UNL     1      36.819 -23.408 -11.209  0.00  0.00    +0.210 HD
ENDBRANCH   4  15
BRANCH   5  17
ATOM     17  C   UNL     1      37.643 -22.913 -15.794  0.00  0.00    +0.150 C 
BRANCH  17  18
ATOM     18  O   UNL     1      36.809 -22.791 -16.931  0.00  0.00    -0.381 OA
ATOM     19  H   UNL     1      36.677 -21.852 -17.136  0.00  0.00    +0.210 HD
ENDBRANCH  17  18
ENDBRANCH   5  17
TORSDOF 6
ENDMDL
MODEL 6
REMARK VINA RESULT:      -5.8      2.774      3.992
REMARK  Name = 448267
REMARK  6 active torsions:
REMARK  status: ('A' for Active; 'I' for Inactive)
REMARK    1  A    between atoms: C_2  and  O_11
REMARK    2  A    between atoms: C_3  and  O_13
REMARK    3  A    between atoms: C_4  and  O_15
REMARK    4  A    between atoms: C_5  and  C_17
REMARK    5  A    between atoms: C_6  and  N_7
REMARK    6  A    between atoms: C_17  and  O_18
REMARK                            x       y       z     vdW  Elec       q    Type
REMARK                         _______ _______ _______ _____ _____    ______ ____
ROOT
ATOM      1  S   UNL     1      38.100 -25.737 -12.705  0.00  0.00    -0.157 S 
ATOM      2  C   UNL     1      36.299 -24.631 -15.140  0.00  0.00    +0.163 C 
ATOM      3  C   UNL     1      35.995 -24.191 -13.704  0.00  0.00    +0.152 C 
ATOM      4  C   UNL     1      36.964 -26.009 -15.235  0.00  0.00    +0.130 C 
ATOM      5  C   UNL     1      37.245 -24.126 -12.815  0.00  0.00    +0.104 C 
ATOM      6  C   UNL     1      38.296 -26.126 -14.482  0.00  0.00    +0.015 C 
ENDROOT
BRANCH   6   7
ATOM      7  N   UNL     1      39.349 -25.316 -15.088  0.00  0.00    +0.390 N 
ATOM      8  H   UNL     1      38.928 -24.578 -15.653  0.00  0.00    -0.088 HD
ATOM      9  H   UNL     1      39.935 -25.906 -15.679  0.00  0.00    -0.088 HD
ATOM     10  H   UNL     1      39.920 -24.897 -14.354  0.00  0.00    -0.088 HD
ENDBRANCH   6   7
BRANCH   2  11
ATOM     11  O   UNL     1      35.063 -24.671 -15.862  0.00  0.00    -0.380 OA
ATOM     12  H   UNL     1      35.146 -25.281 -16.611  0.00  0.00    +0.211 HD
ENDBRANCH   2  11
BRANCH   3  13
ATOM     13  O   UNL     1      35.430 -22.875 -13.761  0.00  0.00    -0.381 OA
ATOM     14  H   UNL     1      35.712 -22.368 -12.982  0.00  0.00    +0.210 HD
ENDBRANCH   3  13
BRANCH   4  15
ATOM     15  O   UNL     1      36.076 -27.016 -14.736  0.00  0.00    -0.383 OA
ATOM     16  H   UNL     1      36.588 -27.698 -14.271  0.00  0.00    +0.210 HD
ENDBRANCH   4  15
BRANCH   5  17
ATOM     17  C   UNL     1      36.900 -23.679 -11.392  0.00  0.00    +0.150 C 
BRANCH  17  18
ATOM     18  O   UNL     1      37.329 -22.340 -11.229  0.00  0.00    -0.381 OA
ATOM     19  H   UNL     1      37.749 -22.240 -10.361  0.00  0.00    +0.210 HD
ENDBRANCH  17  18
ENDBRANCH   5  17
TORSDOF 6
ENDMDL
MODEL 7
REMARK VINA RESULT:      -5.7      2.063      4.097
REMARK  Name = 448267
REMARK  6 active torsions:
REMARK  status: ('A' for Active; 'I' for Inactive)
REMARK    1  A    between atoms: C_2  and  O_11
REMARK    2  A    between atoms: C_3  and  O_13
REMARK    3  A    between atoms: C_4  and  O_15
REMARK    4  A    between atoms: C_5  and  C_17
REMARK    5  A    between atoms: C_6  and  N_7
REMARK    6  A    between atoms: C_17  and  O_18
REMARK                            x       y       z     vdW  Elec       q    Type
REMARK                         _______ _______ _______ _____ _____    ______ ____
ROOT
ATOM      1  S   UNL     1      35.535 -23.898 -15.195  0.00  0.00    -0.157 S 
ATOM      2  C   UNL     1      36.871 -24.898 -12.436  0.00  0.00    +0.163 C 
ATOM      3  C   UNL     1      35.423 -24.394 -12.445  0.00  0.00    +0.152 C 
ATOM      4  C   UNL     1      37.742 -24.289 -13.541  0.00  0.00    +0.130 C 
ATOM      5  C   UNL     1      34.696 -24.673 -13.768  0.00  0.00    +0.104 C 
ATOM      6  C   UNL     1      37.232 -24.540 -14.965  0.00  0.00    +0.015 C 
ENDROOT
BRANCH   6   7
ATOM      7  N   UNL     1      37.321 -25.947 -15.347  0.00  0.00    +0.390 N 
ATOM      8  H   UNL     1      36.382 -26.332 -15.449  0.00  0.00    -0.088 HD
ATOM      9  H   UNL     1      37.824 -26.465 -14.625  0.00  0.00    -0.088 HD
ATOM     10  H   UNL     1      37.820 -26.028 -16.233  0.00  0.00    -0.088 HD
ENDBRANCH   6   7
BRANCH   2  11
ATOM     11  O   UNL     1      37.446 -24.569 -11.167  0.00  0.00    -0.380 OA
ATOM     12  H   UNL     1      37.228 -23.651 -10.942  0.00  0.00    +0.211 HD
ENDBRANCH   2  11
BRANCH   3  13
ATOM     13  O   UNL     1      34.715 -25.081 -11.406  0.00  0.00    -0.381 OA
ATOM     14  H   UNL     1      34.955 -24.701 -10.545  0.00  0.00    +0.210 HD
ENDBRANCH   3  13
BRANCH   4  15
ATOM     15  O   UNL     1      37.858 -22.874 -13.348  0.00  0.00    -0.383 OA
ATOM     16  H   UNL     1      38.139 -22.456 -14.177  0.00  0.00    +0.210 HD
ENDBRANCH   4  15
BRANCH   5  17
ATOM     17  C   UNL     1      33.254 -24.159 -13.736  0.00  0.00    +0.150 C 
BRANCH  17  18
ATOM     18  O   UNL     1      32.428 -25.181 -13.211  0.00  0.00    -0.381 OA
ATOM     19  H   UNL     1      31.497 -24.939 -13.334  0.00  0.00    +0.210 HD
ENDBRANCH  17  18
ENDBRANCH   5  17
TORSDOF 6
ENDMDL
MODEL 8
REMARK VINA RESULT:      -5.6      2.813      3.617
REMARK  Name = 448267
REMARK  6 active torsions:
REMARK  status: ('A' for Active; 'I' for Inactive)
REMARK    1  A    between atoms: C_2  and  O_11
REMARK    2  A    between atoms: C_3  and  O_13
REMARK    3  A    between atoms: C_4  and  O_15
REMARK    4  A    between atoms: C_5  and  C_17
REMARK    5  A    between atoms: C_6  and  N_7
REMARK    6  A    between atoms: C_17  and  O_18
REMARK                            x       y       z     vdW  Elec       q    Type
REMARK                         _______ _______ _______ _____ _____    ______ ____
ROOT
ATOM      1  S   UNL     1      37.215 -23.610 -13.408  0.00  0.00    -0.157 S 
ATOM      2  C   UNL     1      36.283 -26.261 -14.989  0.00  0.00    +0.163 C 
ATOM      3  C   UNL     1      37.776 -25.960 -14.815  0.00  0.00    +0.152 C 
ATOM      4  C   UNL     1      35.398 -25.009 -14.990  0.00  0.00    +0.130 C 
ATOM      5  C   UNL     1      38.092 -25.209 -13.515  0.00  0.00    +0.104 C 
ATOM      6  C   UNL     1      35.497 -24.158 -13.718  0.00  0.00    +0.015 C 
ENDROOT
BRANCH   6   7
ATOM      7  N   UNL     1      34.940 -24.836 -12.552  0.00  0.00    +0.390 N 
ATOM      8  H   UNL     1      34.291 -24.211 -12.072  0.00  0.00    -0.088 HD
ATOM      9  H   UNL     1      35.694 -25.097 -11.916  0.00  0.00    -0.088 HD
ATOM     10  H   UNL     1      34.443 -25.675 -12.851  0.00  0.00    -0.088 HD
ENDBRANCH   6   7
BRANCH   2  11
ATOM     11  O   UNL     1      36.111 -26.943 -16.236  0.00  0.00    -0.380 OA
ATOM     12  H   UNL     1      36.976 -27.072 -16.656  0.00  0.00    +0.211 HD
ENDBRANCH   2  11
BRANCH   3  13
ATOM     13  O   UNL     1      38.472 -27.212 -14.777  0.00  0.00    -0.381 OA
ATOM     14  H   UNL     1      38.102 -27.767 -14.071  0.00  0.00    +0.210 HD
ENDBRANCH   3  13
BRANCH   4  15
ATOM     15  O   UNL     1      35.725 -24.180 -16.112  0.00  0.00    -0.383 OA
ATOM     16  H   UNL     1      36.360 -24.642 -16.682  0.00  0.00    +0.210 HD
ENDBRANCH   4  15
BRANCH   5  17
ATOM     17  C   UNL     1      39.592 -24.931 -13.377  0.00  0.00    +0.150 C 
BRANCH  17  18
ATOM     18  O   UNL     1      40.129 -24.732 -14.671  0.00  0.00    -0.381 OA
ATOM     19  H   UNL     1      41.084 -24.579 -14.604  0.00  0.00    +0.210 HD
ENDBRANCH  17  18
ENDBRANCH   5  17
TORSDOF 6
ENDMDL
MODEL 9
REMARK VINA RESULT:      -5.6      2.937      4.612
REMARK  Name = 448267
REMARK  6 active torsions:
REMARK  status: ('A' for Active; 'I' for Inactive)
REMARK    1  A    between atoms: C_2  and  O_11
REMARK    2  A    between atoms: C_3  and  O_13
REMARK    3  A    between atoms: C_4  and  O_15
REMARK    4  A    between atoms: C_5  and  C_17
REMARK    5  A    between atoms: C_6  and  N_7
REMARK    6  A    between atoms: C_17  and  O_18
REMARK                            x       y       z     vdW  Elec       q    Type
REMARK                         _______ _______ _______ _____ _____    ______ ____
ROOT
ATOM      1  S   UNL     1      35.451 -24.599 -12.033  0.00  0.00    -0.157 S 
ATOM      2  C   UNL     1      37.081 -25.338 -14.716  0.00  0.00    +0.163 C 
ATOM      3  C   UNL     1      35.568 -25.097 -14.782  0.00  0.00    +0.152 C 
ATOM      4  C   UNL     1      37.564 -25.847 -13.353  0.00  0.00    +0.130 C 
ATOM      5  C   UNL     1      35.073 -24.081 -13.744  0.00  0.00    +0.104 C 
ATOM      6  C   UNL     1      37.247 -24.915 -12.176  0.00  0.00    +0.015 C 
ENDROOT
BRANCH   6   7
ATOM      7  N   UNL     1      38.000 -23.666 -12.239  0.00  0.00    +0.390 N 
ATOM      8  H   UNL     1      38.980 -23.868 -12.439  0.00  0.00    -0.088 HD
ATOM      9  H   UNL     1      37.928 -23.179 -11.345  0.00  0.00    -0.088 HD
ATOM     10  H   UNL     1      37.618 -23.075 -12.978  0.00  0.00    -0.088 HD
ENDBRANCH   6   7
BRANCH   2  11
ATOM     11  O   UNL     1      37.418 -26.309 -15.712  0.00  0.00    -0.380 OA
ATOM     12  H   UNL     1      37.952 -25.889 -16.405  0.00  0.00    +0.211 HD
ENDBRANCH   2  11
BRANCH   3  13
ATOM     13  O   UNL     1      35.266 -24.575 -16.082  0.00  0.00    -0.381 OA
ATOM     14  H   UNL     1      35.591 -23.663 -16.149  0.00  0.00    +0.210 HD
ENDBRANCH   3  13
BRANCH   4  15
ATOM     15  O   UNL     1      36.989 -27.129 -13.078  0.00  0.00    -0.383 OA
ATOM     16  H   UNL     1      37.101 -27.340 -12.137  0.00  0.00    +0.210 HD
ENDBRANCH   4  15
BRANCH   5  17
ATOM     17  C   UNL     1      33.560 -23.865 -13.846  0.00  0.00    +0.150 C 
BRANCH  17  18
ATOM     18  O   UNL     1      32.912 -24.935 -13.183  0.00  0.00    -0.381 OA
ATOM     19  H   UNL     1      33.015 -25.747 -13.703  0.00  0.00    +0.210 HD
ENDBRANCH  17  18
ENDBRANCH   5  17
TORSDOF 6
ENDMDL
