MODEL 1
REMARK VINA RESULT:     -10.0      0.000      0.000
REMARK  Name = 56841552
REMARK  5 active torsions:
REMARK  status: ('A' for Active; 'I' for Inactive)
REMARK    1  A    between atoms: N_2  and  C_21
REMARK    2  A    between atoms: C_21  and  C_24
REMARK    3  A    between atoms: N_23  and  C_26
REMARK    4  A    between atoms: C_26  and  C_27
REMARK    5  A    between atoms: C_27  and  N_28
REMARK                            x       y       z     vdW  Elec       q    Type
REMARK                         _______ _______ _______ _____ _____    ______ ____
ROOT
ATOM      1 CL   UNL     1      40.352 -25.066 -13.490  0.00  0.00    -0.082 Cl
ATOM      2  N   UNL     1      34.760 -24.474 -15.093  0.00  0.00    -0.292 N 
ATOM      3  N   UNL     1      33.881 -23.170 -16.929  0.00  0.00    -0.379 NA
ATOM      4  N   UNL     1      36.631 -22.544 -17.344  0.00  0.00    -0.395 NA
ATOM      5  C   UNL     1      36.006 -24.737 -14.564  0.00  0.00    +0.065 A 
ATOM      6  C   UNL     1      34.879 -23.639 -16.168  0.00  0.00    +0.225 A 
ATOM      7  C   UNL     1      36.945 -24.042 -15.335  0.00  0.00    +0.050 A 
ATOM      8  C   UNL     1      36.217 -23.355 -16.343  0.00  0.00    +0.179 A 
ATOM      9  C   UNL     1      34.293 -22.367 -17.921  0.00  0.00    +0.162 C 
ATOM     10  C   UNL     1      35.658 -22.056 -18.127  0.00  0.00    +0.161 C 
ATOM     11  C   UNL     1      36.371 -25.530 -13.470  0.00  0.00    +0.018 C 
ATOM     12  C   UNL     1      38.309 -24.145 -14.998  0.00  0.00    +0.016 C 
ATOM     13  C   UNL     1      33.343 -21.820 -18.778  0.00  0.00    +0.030 C 
ATOM     14  C   UNL     1      36.005 -21.215 -19.179  0.00  0.00    +0.030 C 
ATOM     15  C   UNL     1      33.705 -20.977 -19.827  0.00  0.00    -0.023 C 
ATOM     16  C   UNL     1      35.042 -20.673 -20.029  0.00  0.00    -0.023 C 
ATOM     17  C   UNL     1      37.731 -25.617 -13.156  0.00  0.00    +0.013 C 
ATOM     18  C   UNL     1      38.686 -24.935 -13.907  0.00  0.00    +0.058 C 
ATOM     19  C   UNL     1      32.642 -20.418 -20.713  0.00  0.00    +0.031 C 
ATOM     20  C   UNL     1      35.471 -19.776 -21.141  0.00  0.00    +0.031 C 
ENDROOT
BRANCH   2  21
ATOM     21  C   UNL     1      33.510 -25.000 -14.588  0.00  0.00    +0.194 C 
BRANCH  21  24
ATOM     22  O   UNL     1      32.751 -23.320 -13.019  0.00  0.00    -0.273 OA
ATOM     23  N   UNL     1      31.505 -23.723 -14.938  0.00  0.00    -0.305 N 
ATOM     24  C   UNL     1      32.570 -23.927 -14.072  0.00  0.00    +0.246 C 
ATOM     25  H   UNL     1      31.457 -24.267 -15.757  0.00  0.00    +0.149 HD
BRANCH  23  26
ATOM     26  C   UNL     1      30.465 -22.751 -14.693  0.00  0.00    +0.067 C 
BRANCH  26  27
ATOM     27  C   UNL     1      29.624 -22.520 -15.940  0.00  0.00    -0.056 C 
BRANCH  27  28
ATOM     28  N   UNL     1      28.362 -23.243 -15.841  0.00  0.00    +0.385 N 
ATOM     29  C   UNL     1      28.230 -24.206 -16.936  0.00  0.00    -0.101 C 
ATOM     30  C   UNL     1      27.232 -22.311 -15.848  0.00  0.00    -0.101 C 
ATOM     31  H   UNL     1      28.356 -23.752 -14.957  0.00  0.00    -0.080 HD
ENDBRANCH  27  28
ENDBRANCH  26  27
ENDBRANCH  23  26
ENDBRANCH  21  24
ENDBRANCH   2  21
TORSDOF 5
ENDMDL
MODEL 2
REMARK VINA RESULT:      -9.8      3.042      6.069
REMARK  Name = 56841552
REMARK  5 active torsions:
REMARK  status: ('A' for Active; 'I' for Inactive)
REMARK    1  A    between atoms: N_2  and  C_21
REMARK    2  A    between atoms: C_21  and  C_24
REMARK    3  A    between atoms: N_23  and  C_26
REMARK    4  A    between atoms: C_26  and  C_27
REMARK    5  A    between atoms: C_27  and  N_28
REMARK                            x       y       z     vdW  Elec       q    Type
REMARK                         _______ _______ _______ _____ _____    ______ ____
ROOT
ATOM      1 CL   UNL     1      27.822 -23.599 -15.663  0.00  0.00    -0.082 Cl
ATOM      2  N   UNL     1      33.634 -23.799 -16.282  0.00  0.00    -0.292 N 
ATOM      3  N   UNL     1      34.990 -22.589 -17.876  0.00  0.00    -0.379 NA
ATOM      4  N   UNL     1      32.469 -21.548 -18.707  0.00  0.00    -0.395 NA
ATOM      5  C   UNL     1      32.290 -23.889 -15.982  0.00  0.00    +0.065 A 
ATOM      6  C   UNL     1      33.820 -22.925 -17.316  0.00  0.00    +0.225 A 
ATOM      7  C   UNL     1      31.606 -23.040 -16.861  0.00  0.00    +0.050 A 
ATOM      8  C   UNL     1      32.586 -22.440 -17.695  0.00  0.00    +0.179 A 
ATOM      9  C   UNL     1      34.872 -21.705 -18.878  0.00  0.00    +0.162 C 
ATOM     10  C   UNL     1      33.621 -21.188 -19.290  0.00  0.00    +0.161 C 
ATOM     11  C   UNL     1      31.634 -24.650 -15.009  0.00  0.00    +0.018 C 
ATOM     12  C   UNL     1      30.203 -22.949 -16.761  0.00  0.00    +0.016 C 
ATOM     13  C   UNL     1      36.024 -21.281 -19.535  0.00  0.00    +0.030 C 
ATOM     14  C   UNL     1      33.583 -20.274 -20.338  0.00  0.00    +0.030 C 
ATOM     15  C   UNL     1      35.970 -20.365 -20.584  0.00  0.00    -0.023 C 
ATOM     16  C   UNL     1      34.745 -19.859 -20.987  0.00  0.00    -0.023 C 
ATOM     17  C   UNL     1      30.243 -24.542 -14.929  0.00  0.00    +0.013 C 
ATOM     18  C   UNL     1      29.537 -23.706 -15.791  0.00  0.00    +0.058 C 
ATOM     19  C   UNL     1      37.238 -19.948 -21.253  0.00  0.00    +0.031 C 
ATOM     20  C   UNL     1      34.644 -18.876 -22.105  0.00  0.00    +0.031 C 
ENDROOT
BRANCH   2  21
ATOM     21  C   UNL     1      34.691 -24.519 -15.606  0.00  0.00    +0.194 C 
BRANCH  21  24
ATOM     22  O   UNL     1      35.879 -22.732 -14.486  0.00  0.00    -0.273 OA
ATOM     23  N   UNL     1      34.942 -24.438 -13.218  0.00  0.00    -0.305 N 
ATOM     24  C   UNL     1      35.247 -23.781 -14.403  0.00  0.00    +0.246 C 
ATOM     25  H   UNL     1      34.429 -25.277 -13.266  0.00  0.00    +0.149 HD
BRANCH  23  26
ATOM     26  C   UNL     1      35.344 -23.949 -11.920  0.00  0.00    +0.067 C 
BRANCH  26  27
ATOM     27  C   UNL     1      36.450 -24.809 -11.327  0.00  0.00    -0.056 C 
BRANCH  27  28
ATOM     28  N   UNL     1      37.745 -24.163 -11.507  0.00  0.00    +0.385 N 
ATOM     29  C   UNL     1      37.584 -22.716 -11.659  0.00  0.00    -0.101 C 
ATOM     30  C   UNL     1      38.442 -24.720 -12.668  0.00  0.00    -0.101 C 
ATOM     31  H   UNL     1      38.307 -24.343 -10.675  0.00  0.00    -0.080 HD
ENDBRANCH  27  28
ENDBRANCH  26  27
ENDBRANCH  23  26
ENDBRANCH  21  24
ENDBRANCH   2  21
TORSDOF 5
ENDMDL
MODEL 3
REMARK VINA RESULT:      -9.8      2.996      6.368
REMARK  Name = 56841552
REMARK  5 active torsions:
REMARK  status: ('A' for Active; 'I' for Inactive)
REMARK    1  A    between atoms: N_2  and  C_21
REMARK    2  A    between atoms: C_21  and  C_24
REMARK    3  A    between atoms: N_23  and  C_26
REMARK    4  A    between atoms: C_26  and  C_27
REMARK    5  A    between atoms: C_27  and  N_28
REMARK                            x       y       z     vdW  Elec       q    Type
REMARK                         _______ _______ _______ _____ _____    ______ ____
ROOT
ATOM      1 CL   UNL     1      28.197 -24.887 -15.125  0.00  0.00    -0.082 Cl
ATOM      2  N   UNL     1      33.932 -23.752 -15.264  0.00  0.00    -0.292 N 
ATOM      3  N   UNL     1      35.159 -22.557 -16.970  0.00  0.00    -0.379 NA
ATOM      4  N   UNL     1      32.586 -22.343 -18.179  0.00  0.00    -0.395 NA
ATOM      5  C   UNL     1      32.619 -24.116 -15.050  0.00  0.00    +0.065 A 
ATOM      6  C   UNL     1      34.038 -23.065 -16.440  0.00  0.00    +0.225 A 
ATOM      7  C   UNL     1      31.870 -23.638 -16.133  0.00  0.00    +0.050 A 
ATOM      8  C   UNL     1      32.780 -22.977 -16.999  0.00  0.00    +0.179 A 
ATOM      9  C   UNL     1      34.964 -21.929 -18.139  0.00  0.00    +0.162 C 
ATOM     10  C   UNL     1      33.687 -21.822 -18.739  0.00  0.00    +0.161 C 
ATOM     11  C   UNL     1      32.041 -24.824 -13.991  0.00  0.00    +0.018 C 
ATOM     12  C   UNL     1      30.482 -23.881 -16.156  0.00  0.00    +0.016 C 
ATOM     13  C   UNL     1      36.059 -21.361 -18.784  0.00  0.00    +0.030 C 
ATOM     14  C   UNL     1      33.568 -21.153 -19.952  0.00  0.00    +0.030 C 
ATOM     15  C   UNL     1      35.925 -20.694 -20.000  0.00  0.00    -0.023 C 
ATOM     16  C   UNL     1      34.674 -20.590 -20.587  0.00  0.00    -0.023 C 
ATOM     17  C   UNL     1      30.663 -25.052 -14.037  0.00  0.00    +0.013 C 
ATOM     18  C   UNL     1      29.894 -24.588 -15.102  0.00  0.00    +0.058 C 
ATOM     19  C   UNL     1      37.135 -20.106 -20.647  0.00  0.00    +0.031 C 
ATOM     20  C   UNL     1      34.487 -19.883 -21.888  0.00  0.00    +0.031 C 
ENDROOT
BRANCH   2  21
ATOM     21  C   UNL     1      35.036 -24.053 -14.379  0.00  0.00    +0.194 C 
BRANCH  21  24
ATOM     22  O   UNL     1      35.708 -25.841 -15.866  0.00  0.00    -0.273 OA
ATOM     23  N   UNL     1      36.556 -25.788 -13.704  0.00  0.00    -0.305 N 
ATOM     24  C   UNL     1      35.784 -25.317 -14.758  0.00  0.00    +0.246 C 
ATOM     25  H   UNL     1      36.543 -25.290 -12.855  0.00  0.00    +0.149 HD
BRANCH  23  26
ATOM     26  C   UNL     1      37.376 -26.973 -13.795  0.00  0.00    +0.067 C 
BRANCH  26  27
ATOM     27  C   UNL     1      38.505 -26.785 -14.796  0.00  0.00    -0.056 C 
BRANCH  27  28
ATOM     28  N   UNL     1      39.409 -25.732 -14.349  0.00  0.00    +0.385 N 
ATOM     29  C   UNL     1      39.388 -24.603 -15.280  0.00  0.00    -0.101 C 
ATOM     30  C   UNL     1      40.773 -26.248 -14.209  0.00  0.00    -0.101 C 
ATOM     31  H   UNL     1      39.090 -25.408 -13.436  0.00  0.00    -0.080 HD
ENDBRANCH  27  28
ENDBRANCH  26  27
ENDBRANCH  23  26
ENDBRANCH  21  24
ENDBRANCH   2  21
TORSDOF 5
ENDMDL
MODEL 4
REMARK VINA RESULT:      -9.6      2.884      7.139
REMARK  Name = 56841552
REMARK  5 active torsions:
REMARK  status: ('A' for Active; 'I' for Inactive)
REMARK    1  A    between atoms: N_2  and  C_21
REMARK    2  A    between atoms: C_21  and  C_24
REMARK    3  A    between atoms: N_23  and  C_26
REMARK    4  A    between atoms: C_26  and  C_27
REMARK    5  A    between atoms: C_27  and  N_28
REMARK                            x       y       z     vdW  Elec       q    Type
REMARK                         _______ _______ _______ _____ _____    ______ ____
ROOT
ATOM      1 CL   UNL     1      34.849 -19.711 -22.481  0.00  0.00    -0.082 Cl
ATOM      2  N   UNL     1      35.807 -22.271 -17.311  0.00  0.00    -0.292 N 
ATOM      3  N   UNL     1      34.174 -23.270 -15.834  0.00  0.00    -0.379 NA
ATOM      4  N   UNL     1      32.351 -22.465 -17.872  0.00  0.00    -0.395 NA
ATOM      5  C   UNL     1      35.787 -21.636 -18.535  0.00  0.00    +0.065 A 
ATOM      6  C   UNL     1      34.539 -22.635 -16.956  0.00  0.00    +0.225 A 
ATOM      7  C   UNL     1      34.455 -21.598 -18.966  0.00  0.00    +0.050 A 
ATOM      8  C   UNL     1      33.681 -22.233 -17.960  0.00  0.00    +0.179 A 
ATOM      9  C   UNL     1      32.855 -23.500 -15.750  0.00  0.00    +0.162 C 
ATOM     10  C   UNL     1      31.951 -23.100 -16.762  0.00  0.00    +0.161 C 
ATOM     11  C   UNL     1      36.836 -21.096 -19.287  0.00  0.00    +0.018 C 
ATOM     12  C   UNL     1      34.161 -20.994 -20.205  0.00  0.00    +0.016 C 
ATOM     13  C   UNL     1      32.361 -24.155 -14.627  0.00  0.00    +0.030 C 
ATOM     14  C   UNL     1      30.597 -23.376 -16.600  0.00  0.00    +0.030 C 
ATOM     15  C   UNL     1      31.002 -24.424 -14.477  0.00  0.00    -0.023 C 
ATOM     16  C   UNL     1      30.116 -24.033 -15.469  0.00  0.00    -0.023 C 
ATOM     17  C   UNL     1      36.519 -20.502 -20.512  0.00  0.00    +0.013 C 
ATOM     18  C   UNL     1      35.202 -20.451 -20.965  0.00  0.00    +0.058 C 
ATOM     19  C   UNL     1      30.528 -25.129 -13.250  0.00  0.00    +0.031 C 
ATOM     20  C   UNL     1      28.653 -24.302 -15.348  0.00  0.00    +0.031 C 
ENDROOT
BRANCH   2  21
ATOM     21  C   UNL     1      36.991 -22.518 -16.517  0.00  0.00    +0.194 C 
BRANCH  21  24
ATOM     22  O   UNL     1      36.713 -24.783 -15.708  0.00  0.00    -0.273 OA
ATOM     23  N   UNL     1      36.721 -23.029 -14.186  0.00  0.00    -0.305 N 
ATOM     24  C   UNL     1      36.792 -23.583 -15.456  0.00  0.00    +0.246 C 
ATOM     25  H   UNL     1      36.795 -22.051 -14.096  0.00  0.00    +0.149 HD
BRANCH  23  26
ATOM     26  C   UNL     1      36.541 -23.819 -12.989  0.00  0.00    +0.067 C 
BRANCH  26  27
ATOM     27  C   UNL     1      37.861 -24.018 -12.259  0.00  0.00    -0.056 C 
BRANCH  27  28
ATOM     28  N   UNL     1      38.323 -25.391 -12.414  0.00  0.00    +0.385 N 
ATOM     29  C   UNL     1      39.301 -25.488 -13.500  0.00  0.00    -0.101 C 
ATOM     30  C   UNL     1      37.195 -26.291 -12.667  0.00  0.00    -0.101 C 
ATOM     31  H   UNL     1      38.775 -25.674 -11.545  0.00  0.00    -0.080 HD
ENDBRANCH  27  28
ENDBRANCH  26  27
ENDBRANCH  23  26
ENDBRANCH  21  24
ENDBRANCH   2  21
TORSDOF 5
ENDMDL
MODEL 5
REMARK VINA RESULT:      -9.1      8.641     12.435
REMARK  Name = 56841552
REMARK  5 active torsions:
REMARK  status: ('A' for Active; 'I' for Inactive)
REMARK    1  A    between atoms: N_2  and  C_21
REMARK    2  A    between atoms: C_21  and  C_24
REMARK    3  A    between atoms: N_23  and  C_26
REMARK    4  A    between atoms: C_26  and  C_27
REMARK    5  A    between atoms: C_27  and  N_28
REMARK                            x       y       z     vdW  Elec       q    Type
REMARK                         _______ _______ _______ _____ _____    ______ ____
ROOT
ATOM      1 CL   UNL     1      35.226 -20.525 -20.256  0.00  0.00    -0.082 Cl
ATOM      2  N   UNL     1      34.189 -16.151 -23.996  0.00  0.00    -0.292 N 
ATOM      3  N   UNL     1      33.217 -13.992 -23.509  0.00  0.00    -0.379 NA
ATOM      4  N   UNL     1      33.115 -15.025 -20.854  0.00  0.00    -0.395 NA
ATOM      5  C   UNL     1      34.508 -17.285 -23.280  0.00  0.00    +0.065 A 
ATOM      6  C   UNL     1      33.645 -15.214 -23.164  0.00  0.00    +0.225 A 
ATOM      7  C   UNL     1      34.151 -17.053 -21.946  0.00  0.00    +0.050 A 
ATOM      8  C   UNL     1      33.609 -15.742 -21.890  0.00  0.00    +0.179 A 
ATOM      9  C   UNL     1      32.728 -13.284 -22.480  0.00  0.00    +0.162 C 
ATOM     10  C   UNL     1      32.677 -13.796 -21.163  0.00  0.00    +0.161 C 
ATOM     11  C   UNL     1      35.080 -18.489 -23.706  0.00  0.00    +0.018 C 
ATOM     12  C   UNL     1      34.376 -18.070 -20.997  0.00  0.00    +0.016 C 
ATOM     13  C   UNL     1      32.253 -11.997 -22.719  0.00  0.00    +0.030 C 
ATOM     14  C   UNL     1      32.155 -12.998 -20.150  0.00  0.00    +0.030 C 
ATOM     15  C   UNL     1      31.732 -11.209 -21.695  0.00  0.00    -0.023 C 
ATOM     16  C   UNL     1      31.683 -11.712 -20.405  0.00  0.00    -0.023 C 
ATOM     17  C   UNL     1      35.294 -19.482 -22.746  0.00  0.00    +0.013 C 
ATOM     18  C   UNL     1      34.948 -19.278 -21.412  0.00  0.00    +0.058 C 
ATOM     19  C   UNL     1      31.236  -9.837 -22.011  0.00  0.00    +0.031 C 
ATOM     20  C   UNL     1      31.133 -10.900 -19.279  0.00  0.00    +0.031 C 
ENDROOT
BRANCH   2  21
ATOM     21  C   UNL     1      34.397 -15.975 -25.418  0.00  0.00    +0.194 C 
BRANCH  21  24
ATOM     22  O   UNL     1      32.312 -15.129 -26.312  0.00  0.00    -0.273 OA
ATOM     23  N   UNL     1      34.160 -13.724 -26.224  0.00  0.00    -0.305 N 
ATOM     24  C   UNL     1      33.491 -14.925 -26.032  0.00  0.00    +0.246 C 
ATOM     25  H   UNL     1      35.108 -13.669 -25.964  0.00  0.00    +0.149 HD
BRANCH  23  26
ATOM     26  C   UNL     1      33.531 -12.552 -26.787  0.00  0.00    +0.067 C 
BRANCH  26  27
ATOM     27  C   UNL     1      33.511 -11.405 -25.787  0.00  0.00    -0.056 C 
BRANCH  27  28
ATOM     28  N   UNL     1      34.869 -11.056 -25.389  0.00  0.00    +0.385 N 
ATOM     29  C   UNL     1      34.852 -10.100 -24.281  0.00  0.00    -0.101 C 
ATOM     30  C   UNL     1      35.614 -10.505 -26.523  0.00  0.00    -0.101 C 
ATOM     31  H   UNL     1      35.336 -11.907 -25.077  0.00  0.00    -0.080 HD
ENDBRANCH  27  28
ENDBRANCH  26  27
ENDBRANCH  23  26
ENDBRANCH  21  24
ENDBRANCH   2  21
TORSDOF 5
ENDMDL
MODEL 6
REMARK VINA RESULT:      -9.1      2.212      5.808
REMARK  Name = 56841552
REMARK  5 active torsions:
REMARK  status: ('A' for Active; 'I' for Inactive)
REMARK    1  A    between atoms: N_2  and  C_21
REMARK    2  A    between atoms: C_21  and  C_24
REMARK    3  A    between atoms: N_23  and  C_26
REMARK    4  A    between atoms: C_26  and  C_27
REMARK    5  A    between atoms: C_27  and  N_28
REMARK                            x       y       z     vdW  Elec       q    Type
REMARK                         _______ _______ _______ _____ _____    ______ ____
ROOT
ATOM      1 CL   UNL     1      38.904 -25.779 -12.850  0.00  0.00    -0.082 Cl
ATOM      2  N   UNL     1      35.635 -22.773 -16.655  0.00  0.00    -0.292 N 
ATOM      3  N   UNL     1      33.224 -22.743 -16.828  0.00  0.00    -0.379 NA
ATOM      4  N   UNL     1      33.391 -24.555 -14.633  0.00  0.00    -0.395 NA
ATOM      5  C   UNL     1      36.569 -23.395 -15.853  0.00  0.00    +0.065 A 
ATOM      6  C   UNL     1      34.376 -23.146 -16.276  0.00  0.00    +0.225 A 
ATOM      7  C   UNL     1      35.872 -24.190 -14.935  0.00  0.00    +0.050 A 
ATOM      8  C   UNL     1      34.490 -24.021 -15.215  0.00  0.00    +0.179 A 
ATOM      9  C   UNL     1      32.136 -23.273 -16.249  0.00  0.00    +0.162 C 
ATOM     10  C   UNL     1      32.219 -24.173 -15.160  0.00  0.00    +0.161 C 
ATOM     11  C   UNL     1      37.966 -23.316 -15.870  0.00  0.00    +0.018 C 
ATOM     12  C   UNL     1      36.604 -24.938 -13.992  0.00  0.00    +0.016 C 
ATOM     13  C   UNL     1      30.881 -22.925 -16.739  0.00  0.00    +0.030 C 
ATOM     14  C   UNL     1      31.044 -24.679 -14.615  0.00  0.00    +0.030 C 
ATOM     15  C   UNL     1      29.712 -23.441 -16.183  0.00  0.00    -0.023 C 
ATOM     16  C   UNL     1      29.794 -24.322 -15.116  0.00  0.00    -0.023 C 
ATOM     17  C   UNL     1      38.670 -24.067 -14.925  0.00  0.00    +0.013 C 
ATOM     18  C   UNL     1      38.002 -24.866 -14.000  0.00  0.00    +0.058 C 
ATOM     19  C   UNL     1      28.393 -23.034 -16.751  0.00  0.00    +0.031 C 
ATOM     20  C   UNL     1      28.566 -24.896 -14.492  0.00  0.00    +0.031 C 
ENDROOT
BRANCH   2  21
ATOM     21  C   UNL     1      35.938 -21.861 -17.737  0.00  0.00    +0.194 C 
BRANCH  21  24
ATOM     22  O   UNL     1      34.893 -23.104 -19.533  0.00  0.00    -0.273 OA
ATOM     23  N   UNL     1      34.389 -20.851 -19.271  0.00  0.00    -0.305 N 
ATOM     24  C   UNL     1      35.032 -22.036 -18.941  0.00  0.00    +0.246 C 
ATOM     25  H   UNL     1      34.574 -20.051 -18.729  0.00  0.00    +0.149 HD
BRANCH  23  26
ATOM     26  C   UNL     1      33.462 -20.737 -20.374  0.00  0.00    +0.067 C 
BRANCH  26  27
ATOM     27  C   UNL     1      33.408 -19.311 -20.901  0.00  0.00    -0.056 C 
BRANCH  27  28
ATOM     28  N   UNL     1      34.694 -18.933 -21.473  0.00  0.00    +0.385 N 
ATOM     29  C   UNL     1      34.978 -17.520 -21.216  0.00  0.00    -0.101 C 
ATOM     30  C   UNL     1      34.717 -19.200 -22.913  0.00  0.00    -0.101 C 
ATOM     31  H   UNL     1      35.417 -19.497 -21.028  0.00  0.00    -0.080 HD
ENDBRANCH  27  28
ENDBRANCH  26  27
ENDBRANCH  23  26
ENDBRANCH  21  24
ENDBRANCH   2  21
TORSDOF 5
ENDMDL
MODEL 7
REMARK VINA RESULT:      -9.0     10.129     13.990
REMARK  Name = 56841552
REMARK  5 active torsions:
REMARK  status: ('A' for Active; 'I' for Inactive)
REMARK    1  A    between atoms: N_2  and  C_21
REMARK    2  A    between atoms: C_21  and  C_24
REMARK    3  A    between atoms: N_23  and  C_26
REMARK    4  A    between atoms: C_26  and  C_27
REMARK    5  A    between atoms: C_27  and  N_28
REMARK                            x       y       z     vdW  Elec       q    Type
REMARK                         _______ _______ _______ _____ _____    ______ ____
ROOT
ATOM      1 CL   UNL     1      30.853 -10.403 -18.620  0.00  0.00    -0.082 Cl
ATOM      2  N   UNL     1      32.906 -12.620 -23.626  0.00  0.00    -0.292 N 
ATOM      3  N   UNL     1      33.792 -14.838 -24.005  0.00  0.00    -0.379 NA
ATOM      4  N   UNL     1      33.209 -15.166 -21.234  0.00  0.00    -0.395 NA
ATOM      5  C   UNL     1      32.388 -11.924 -22.555  0.00  0.00    +0.065 A 
ATOM      6  C   UNL     1      33.256 -13.881 -23.234  0.00  0.00    +0.225 A 
ATOM      7  C   UNL     1      32.413 -12.779 -21.447  0.00  0.00    +0.050 A 
ATOM      8  C   UNL     1      32.963 -14.009 -21.892  0.00  0.00    +0.179 A 
ATOM      9  C   UNL     1      34.035 -15.983 -23.350  0.00  0.00    +0.162 C 
ATOM     10  C   UNL     1      33.745 -16.146 -21.975  0.00  0.00    +0.161 C 
ATOM     11  C   UNL     1      31.903 -10.613 -22.483  0.00  0.00    +0.018 C 
ATOM     12  C   UNL     1      31.931 -12.302 -20.211  0.00  0.00    +0.016 C 
ATOM     13  C   UNL     1      34.591 -17.049 -24.050  0.00  0.00    +0.030 C 
ATOM     14  C   UNL     1      34.026 -17.366 -21.368  0.00  0.00    +0.030 C 
ATOM     15  C   UNL     1      34.868 -18.265 -23.429  0.00  0.00    -0.023 C 
ATOM     16  C   UNL     1      34.584 -18.425 -22.082  0.00  0.00    -0.023 C 
ATOM     17  C   UNL     1      31.430 -10.163 -21.246  0.00  0.00    +0.013 C 
ATOM     18  C   UNL     1      31.443 -10.993 -20.127  0.00  0.00    +0.058 C 
ATOM     19  C   UNL     1      35.467 -19.374 -24.230  0.00  0.00    +0.031 C 
ATOM     20  C   UNL     1      34.864 -19.711 -21.380  0.00  0.00    +0.031 C 
ENDROOT
BRANCH   2  21
ATOM     21  C   UNL     1      33.059 -12.098 -24.967  0.00  0.00    +0.194 C 
BRANCH  21  24
ATOM     22  O   UNL     1      35.131 -11.244 -25.882  0.00  0.00    -0.273 OA
ATOM     23  N   UNL     1      34.035 -10.029 -24.235  0.00  0.00    -0.305 N 
ATOM     24  C   UNL     1      34.196 -11.103 -25.099  0.00  0.00    +0.246 C 
ATOM     25  H   UNL     1      33.246 -10.015 -23.646  0.00  0.00    +0.149 HD
BRANCH  23  26
ATOM     26  C   UNL     1      34.970  -8.930 -24.159  0.00  0.00    +0.067 C 
BRANCH  26  27
ATOM     27  C   UNL     1      34.476  -7.852 -23.207  0.00  0.00    -0.056 C 
BRANCH  27  28
ATOM     28  N   UNL     1      33.194  -7.324 -23.660  0.00  0.00    +0.385 N 
ATOM     29  C   UNL     1      33.392  -6.289 -24.676  0.00  0.00    -0.101 C 
ATOM     30  C   UNL     1      32.430  -6.787 -22.532  0.00  0.00    -0.101 C 
ATOM     31  H   UNL     1      32.665  -8.090 -24.075  0.00  0.00    -0.080 HD
ENDBRANCH  27  28
ENDBRANCH  26  27
ENDBRANCH  23  26
ENDBRANCH  21  24
ENDBRANCH   2  21
TORSDOF 5
ENDMDL
MODEL 8
REMARK VINA RESULT:      -9.0      2.477      5.815
REMARK  Name = 56841552
REMARK  5 active torsions:
REMARK  status: ('A' for Active; 'I' for Inactive)
REMARK    1  A    between atoms: N_2  and  C_21
REMARK    2  A    between atoms: C_21  and  C_24
REMARK    3  A    between atoms: N_23  and  C_26
REMARK    4  A    between atoms: C_26  and  C_27
REMARK    5  A    between atoms: C_27  and  N_28
REMARK                            x       y       z     vdW  Elec       q    Type
REMARK                         _______ _______ _______ _____ _____    ______ ____
ROOT
ATOM      1 CL   UNL     1      36.622 -18.890 -21.338  0.00  0.00    -0.082 Cl
ATOM      2  N   UNL     1      33.925 -22.843 -17.977  0.00  0.00    -0.292 N 
ATOM      3  N   UNL     1      34.854 -24.081 -16.120  0.00  0.00    -0.379 NA
ATOM      4  N   UNL     1      37.206 -22.604 -16.763  0.00  0.00    -0.395 NA
ATOM      5  C   UNL     1      34.379 -21.896 -18.870  0.00  0.00    +0.065 A 
ATOM      6  C   UNL     1      34.929 -23.190 -17.118  0.00  0.00    +0.225 A 
ATOM      7  C   UNL     1      35.720 -21.637 -18.562  0.00  0.00    +0.050 A 
ATOM      8  C   UNL     1      36.051 -22.461 -17.454  0.00  0.00    +0.179 A 
ATOM      9  C   UNL     1      36.000 -24.221 -15.437  0.00  0.00    +0.162 C 
ATOM     10  C   UNL     1      37.167 -23.488 -15.756  0.00  0.00    +0.161 C 
ATOM     11  C   UNL     1      33.712 -21.253 -19.919  0.00  0.00    +0.018 C 
ATOM     12  C   UNL     1      36.424 -20.693 -19.336  0.00  0.00    +0.016 C 
ATOM     13  C   UNL     1      36.040 -25.120 -14.375  0.00  0.00    +0.030 C 
ATOM     14  C   UNL     1      38.316 -23.690 -14.998  0.00  0.00    +0.030 C 
ATOM     15  C   UNL     1      37.198 -25.313 -13.625  0.00  0.00    -0.023 C 
ATOM     16  C   UNL     1      38.342 -24.594 -13.938  0.00  0.00    -0.023 C 
ATOM     17  C   UNL     1      34.432 -20.321 -20.673  0.00  0.00    +0.013 C 
ATOM     18  C   UNL     1      35.767 -20.045 -20.387  0.00  0.00    +0.058 C 
ATOM     19  C   UNL     1      37.184 -26.292 -12.499  0.00  0.00    +0.031 C 
ATOM     20  C   UNL     1      39.602 -24.770 -13.160  0.00  0.00    +0.031 C 
ENDROOT
BRANCH   2  21
ATOM     21  C   UNL     1      32.586 -23.391 -17.950  0.00  0.00    +0.194 C 
BRANCH  21  24
ATOM     22  O   UNL     1      30.731 -22.027 -17.203  0.00  0.00    -0.273 OA
ATOM     23  N   UNL     1      32.090 -23.054 -15.624  0.00  0.00    -0.305 N 
ATOM     24  C   UNL     1      31.690 -22.738 -16.915  0.00  0.00    +0.246 C 
ATOM     25  H   UNL     1      32.876 -23.634 -15.505  0.00  0.00    +0.149 HD
BRANCH  23  26
ATOM     26  C   UNL     1      31.407 -22.571 -14.446  0.00  0.00    +0.067 C 
BRANCH  26  27
ATOM     27  C   UNL     1      30.349 -23.559 -13.980  0.00  0.00    -0.056 C 
BRANCH  27  28
ATOM     28  N   UNL     1      29.770 -24.258 -15.121  0.00  0.00    +0.385 N 
ATOM     29  C   UNL     1      28.424 -23.758 -15.405  0.00  0.00    -0.101 C 
ATOM     30  C   UNL     1      29.733 -25.701 -14.876  0.00  0.00    -0.101 C 
ATOM     31  H   UNL     1      30.361 -24.082 -15.933  0.00  0.00    -0.080 HD
ENDBRANCH  27  28
ENDBRANCH  26  27
ENDBRANCH  23  26
ENDBRANCH  21  24
ENDBRANCH   2  21
TORSDOF 5
ENDMDL
MODEL 9
REMARK VINA RESULT:      -8.1      1.874      2.719
REMARK  Name = 56841552
REMARK  5 active torsions:
REMARK  status: ('A' for Active; 'I' for Inactive)
REMARK    1  A    between atoms: N_2  and  C_21
REMARK    2  A    between atoms: C_21  and  C_24
REMARK    3  A    between atoms: N_23  and  C_26
REMARK    4  A    between atoms: C_26  and  C_27
REMARK    5  A    between atoms: C_27  and  N_28
REMARK                            x       y       z     vdW  Elec       q    Type
REMARK                         _______ _______ _______ _____ _____    ______ ____
ROOT
ATOM      1 CL   UNL     1      38.448 -23.903 -13.447  0.00  0.00    -0.082 Cl
ATOM      2  N   UNL     1      34.060 -23.265 -17.260  0.00  0.00    -0.292 N 
ATOM      3  N   UNL     1      34.010 -21.867 -19.232  0.00  0.00    -0.379 NA
ATOM      4  N   UNL     1      36.654 -21.199 -18.400  0.00  0.00    -0.395 NA
ATOM      5  C   UNL     1      34.968 -23.547 -16.261  0.00  0.00    +0.065 A 
ATOM      6  C   UNL     1      34.601 -22.371 -18.140  0.00  0.00    +0.225 A 
ATOM      7  C   UNL     1      36.125 -22.803 -16.523  0.00  0.00    +0.050 A 
ATOM      8  C   UNL     1      35.877 -22.067 -17.712  0.00  0.00    +0.179 A 
ATOM      9  C   UNL     1      34.782 -21.007 -19.913  0.00  0.00    +0.162 C 
ATOM     10  C   UNL     1      36.094 -20.675 -19.500  0.00  0.00    +0.161 C 
ATOM     11  C   UNL     1      34.855 -24.398 -15.156  0.00  0.00    +0.018 C 
ATOM     12  C   UNL     1      37.217 -22.915 -15.640  0.00  0.00    +0.016 C 
ATOM     13  C   UNL     1      34.272 -20.420 -21.067  0.00  0.00    +0.030 C 
ATOM     14  C   UNL     1      36.831 -19.774 -20.261  0.00  0.00    +0.030 C 
ATOM     15  C   UNL     1      35.021 -19.518 -21.820  0.00  0.00    -0.023 C 
ATOM     16  C   UNL     1      36.307 -19.194 -21.415  0.00  0.00    -0.023 C 
ATOM     17  C   UNL     1      35.953 -24.492 -14.294  0.00  0.00    +0.013 C 
ATOM     18  C   UNL     1      37.116 -23.762 -14.531  0.00  0.00    +0.058 C 
ATOM     19  C   UNL     1      34.422 -18.919 -23.048  0.00  0.00    +0.031 C 
ATOM     20  C   UNL     1      37.143 -18.233 -22.193  0.00  0.00    +0.031 C 
ENDROOT
BRANCH   2  21
ATOM     21  C   UNL     1      32.731 -23.827 -17.364  0.00  0.00    +0.194 C 
BRANCH  21  24
ATOM     22  O   UNL     1      30.987 -22.149 -17.301  0.00  0.00    -0.273 OA
ATOM     23  N   UNL     1      31.557 -23.263 -15.345  0.00  0.00    -0.305 N 
ATOM     24  C   UNL     1      31.664 -22.977 -16.699  0.00  0.00    +0.246 C 
ATOM     25  H   UNL     1      32.152 -23.948 -14.962  0.00  0.00    +0.149 HD
BRANCH  23  26
ATOM     26  C   UNL     1      30.613 -22.604 -14.472  0.00  0.00    +0.067 C 
BRANCH  26  27
ATOM     27  C   UNL     1      30.508 -23.320 -13.135  0.00  0.00    -0.056 C 
BRANCH  27  28
ATOM     28  N   UNL     1      30.376 -24.758 -13.339  0.00  0.00    +0.385 N 
ATOM     29  C   UNL     1      31.685 -25.367 -13.581  0.00  0.00    -0.101 C 
ATOM     30  C   UNL     1      29.472 -25.040 -14.456  0.00  0.00    -0.101 C 
ATOM     31  H   UNL     1      29.980 -25.163 -12.491  0.00  0.00    -0.080 HD
ENDBRANCH  27  28
ENDBRANCH  26  27
ENDBRANCH  23  26
ENDBRANCH  21  24
ENDBRANCH   2  21
TORSDOF 5
ENDMDL
