MODEL 1
REMARK VINA RESULT:      -7.5      0.000      0.000
REMARK  Name = 2519
REMARK  0 active torsions:
REMARK  status: ('A' for Active; 'I' for Inactive)
REMARK                            x       y       z     vdW  Elec       q    Type
REMARK                         _______ _______ _______ _____ _____    ______ ____
ROOT
ATOM      1  O   UNL     1      34.278 -17.267 -25.704  0.00  0.00    -0.272 OA
ATOM      2  O   UNL     1      35.400 -17.608 -21.161  0.00  0.00    -0.252 OA
ATOM      3  N   UNL     1      34.496 -15.603 -21.919  0.00  0.00    -0.228 N 
ATOM      4  N   UNL     1      33.397 -14.483 -25.051  0.00  0.00    -0.239 NA
ATOM      5  N   UNL     1      34.848 -17.462 -23.433  0.00  0.00    -0.211 N 
ATOM      6  N   UNL     1      33.527 -13.616 -23.002  0.00  0.00    -0.240 NA
ATOM      7  C   UNL     1      33.931 -15.458 -24.258  0.00  0.00    +0.192 C 
ATOM      8  C   UNL     1      33.999 -14.902 -23.010  0.00  0.00    +0.136 C 
ATOM      9  C   UNL     1      34.349 -16.784 -24.577  0.00  0.00    +0.254 C 
ATOM     10  C   UNL     1      34.948 -16.936 -22.095  0.00  0.00    +0.318 C 
ATOM     11  C   UNL     1      33.172 -13.394 -24.250  0.00  0.00    +0.203 C 
ATOM     12  C   UNL     1      34.552 -14.976 -20.605  0.00  0.00    +0.123 C 
ATOM     13  C   UNL     1      33.115 -14.558 -26.465  0.00  0.00    +0.092 C 
ATOM     14  C   UNL     1      35.308 -18.832 -23.633  0.00  0.00    +0.124 C 
ENDROOT
TORSDOF 0
ENDMDL
MODEL 2
REMARK VINA RESULT:      -7.2      1.602      3.791
REMARK  Name = 2519
REMARK  0 active torsions:
REMARK  status: ('A' for Active; 'I' for Inactive)
REMARK                            x       y       z     vdW  Elec       q    Type
REMARK                         _______ _______ _______ _____ _____    ______ ____
ROOT
ATOM      1  O   UNL     1      32.517 -13.650 -23.894  0.00  0.00    -0.272 OA
ATOM      2  O   UNL     1      34.778 -17.245 -25.891  0.00  0.00    -0.252 OA
ATOM      3  N   UNL     1      34.864 -17.045 -23.574  0.00  0.00    -0.228 N 
ATOM      4  N   UNL     1      33.517 -14.749 -21.298  0.00  0.00    -0.239 NA
ATOM      5  N   UNL     1      33.641 -15.442 -24.918  0.00  0.00    -0.211 N 
ATOM      6  N   UNL     1      34.780 -16.581 -21.159  0.00  0.00    -0.240 NA
ATOM      7  C   UNL     1      33.695 -15.188 -22.578  0.00  0.00    +0.192 C 
ATOM      8  C   UNL     1      34.469 -16.310 -22.464  0.00  0.00    +0.136 C 
ATOM      9  C   UNL     1      33.214 -14.658 -23.813  0.00  0.00    +0.254 C 
ATOM     10  C   UNL     1      34.457 -16.630 -24.867  0.00  0.00    +0.318 C 
ATOM     11  C   UNL     1      34.190 -15.619 -20.479  0.00  0.00    +0.203 C 
ATOM     12  C   UNL     1      35.690 -18.235 -23.412  0.00  0.00    +0.123 C 
ATOM     13  C   UNL     1      32.771 -13.593 -20.860  0.00  0.00    +0.092 C 
ATOM     14  C   UNL     1      33.211 -15.000 -26.239  0.00  0.00    +0.124 C 
ENDROOT
TORSDOF 0
ENDMDL
MODEL 3
REMARK VINA RESULT:      -7.1      1.091      3.389
REMARK  Name = 2519
REMARK  0 active torsions:
REMARK  status: ('A' for Active; 'I' for Inactive)
REMARK                            x       y       z     vdW  Elec       q    Type
REMARK                         _______ _______ _______ _____ _____    ______ ____
ROOT
ATOM      1  O   UNL     1      34.487 -16.929 -21.285  0.00  0.00    -0.272 OA
ATOM      2  O   UNL     1      34.785 -17.197 -25.960  0.00  0.00    -0.252 OA
ATOM      3  N   UNL     1      33.643 -15.393 -25.036  0.00  0.00    -0.228 N 
ATOM      4  N   UNL     1      32.941 -14.410 -21.748  0.00  0.00    -0.239 NA
ATOM      5  N   UNL     1      34.649 -17.085 -23.624  0.00  0.00    -0.211 N 
ATOM      6  N   UNL     1      32.503 -13.609 -23.781  0.00  0.00    -0.240 NA
ATOM      7  C   UNL     1      33.505 -15.284 -22.632  0.00  0.00    +0.192 C 
ATOM      8  C   UNL     1      33.223 -14.769 -23.868  0.00  0.00    +0.136 C 
ATOM      9  C   UNL     1      34.241 -16.484 -22.403  0.00  0.00    +0.254 C 
ATOM     10  C   UNL     1      34.386 -16.598 -24.955  0.00  0.00    +0.318 C 
ATOM     11  C   UNL     1      32.348 -13.419 -22.487  0.00  0.00    +0.203 C 
ATOM     12  C   UNL     1      33.322 -14.814 -26.334  0.00  0.00    +0.123 C 
ATOM     13  C   UNL     1      32.949 -14.490 -20.306  0.00  0.00    +0.092 C 
ATOM     14  C   UNL     1      35.414 -18.324 -23.521  0.00  0.00    +0.124 C 
ENDROOT
TORSDOF 0
ENDMDL
MODEL 4
REMARK VINA RESULT:      -6.9      1.783      3.156
REMARK  Name = 2519
REMARK  0 active torsions:
REMARK  status: ('A' for Active; 'I' for Inactive)
REMARK                            x       y       z     vdW  Elec       q    Type
REMARK                         _______ _______ _______ _____ _____    ______ ____
ROOT
ATOM      1  O   UNL     1      32.675 -13.869 -23.490  0.00  0.00    -0.272 OA
ATOM      2  O   UNL     1      34.850 -16.087 -19.973  0.00  0.00    -0.252 OA
ATOM      3  N   UNL     1      35.059 -16.964 -22.118  0.00  0.00    -0.228 N 
ATOM      4  N   UNL     1      33.819 -16.002 -25.250  0.00  0.00    -0.239 NA
ATOM      5  N   UNL     1      33.755 -14.962 -21.712  0.00  0.00    -0.211 N 
ATOM      6  N   UNL     1      35.100 -17.655 -24.479  0.00  0.00    -0.240 NA
ATOM      7  C   UNL     1      33.930 -15.804 -23.903  0.00  0.00    +0.192 C 
ATOM      8  C   UNL     1      34.719 -16.828 -23.457  0.00  0.00    +0.136 C 
ATOM      9  C   UNL     1      33.380 -14.783 -23.071  0.00  0.00    +0.254 C 
ATOM     10  C   UNL     1      34.580 -16.017 -21.178  0.00  0.00    +0.318 C 
ATOM     11  C   UNL     1      34.540 -17.129 -25.549  0.00  0.00    +0.203 C 
ATOM     12  C   UNL     1      35.902 -18.069 -21.682  0.00  0.00    +0.123 C 
ATOM     13  C   UNL     1      33.089 -15.196 -26.200  0.00  0.00    +0.092 C 
ATOM     14  C   UNL     1      33.253 -13.978 -20.760  0.00  0.00    +0.124 C 
ENDROOT
TORSDOF 0
ENDMDL
MODEL 5
REMARK VINA RESULT:      -6.9      1.642      3.650
REMARK  Name = 2519
REMARK  0 active torsions:
REMARK  status: ('A' for Active; 'I' for Inactive)
REMARK                            x       y       z     vdW  Elec       q    Type
REMARK                         _______ _______ _______ _____ _____    ______ ____
ROOT
ATOM      1  O   UNL     1      33.897 -16.907 -25.858  0.00  0.00    -0.272 OA
ATOM      2  O   UNL     1      33.579 -13.231 -22.959  0.00  0.00    -0.252 OA
ATOM      3  N   UNL     1      34.396 -15.234 -22.104  0.00  0.00    -0.228 N 
ATOM      4  N   UNL     1      34.962 -18.400 -23.494  0.00  0.00    -0.239 NA
ATOM      5  N   UNL     1      33.728 -15.052 -24.425  0.00  0.00    -0.211 N 
ATOM      6  N   UNL     1      35.220 -17.470 -21.484  0.00  0.00    -0.240 NA
ATOM      7  C   UNL     1      34.547 -17.105 -23.616  0.00  0.00    +0.192 C 
ATOM      8  C   UNL     1      34.716 -16.559 -22.374  0.00  0.00    +0.136 C 
ATOM      9  C   UNL     1      34.039 -16.400 -24.748  0.00  0.00    +0.254 C 
ATOM     10  C   UNL     1      33.880 -14.417 -23.140  0.00  0.00    +0.318 C 
ATOM     11  C   UNL     1      35.357 -18.572 -22.192  0.00  0.00    +0.203 C 
ATOM     12  C   UNL     1      34.591 -14.690 -20.766  0.00  0.00    +0.123 C 
ATOM     13  C   UNL     1      34.990 -19.415 -24.520  0.00  0.00    +0.092 C 
ATOM     14  C   UNL     1      33.199 -14.226 -25.505  0.00  0.00    +0.124 C 
ENDROOT
TORSDOF 0
ENDMDL
MODEL 6
REMARK VINA RESULT:      -6.9     10.381     11.909
REMARK  Name = 2519
REMARK  0 active torsions:
REMARK  status: ('A' for Active; 'I' for Inactive)
REMARK                            x       y       z     vdW  Elec       q    Type
REMARK                         _______ _______ _______ _____ _____    ______ ____
ROOT
ATOM      1  O   UNL     1      33.068 -24.226 -13.127  0.00  0.00    -0.272 OA
ATOM      2  O   UNL     1      37.662 -23.311 -13.389  0.00  0.00    -0.252 OA
ATOM      3  N   UNL     1      36.384 -23.063 -15.317  0.00  0.00    -0.228 N 
ATOM      4  N   UNL     1      32.984 -23.513 -16.032  0.00  0.00    -0.239 NA
ATOM      5  N   UNL     1      35.371 -23.774 -13.234  0.00  0.00    -0.211 N 
ATOM      6  N   UNL     1      34.788 -22.890 -17.183  0.00  0.00    -0.240 NA
ATOM      7  C   UNL     1      34.027 -23.542 -15.152  0.00  0.00    +0.192 C 
ATOM      8  C   UNL     1      35.118 -23.156 -15.881  0.00  0.00    +0.136 C 
ATOM      9  C   UNL     1      34.059 -23.884 -13.767  0.00  0.00    +0.254 C 
ATOM     10  C   UNL     1      36.560 -23.375 -13.945  0.00  0.00    +0.318 C 
ATOM     11  C   UNL     1      33.492 -23.115 -17.241  0.00  0.00    +0.203 C 
ATOM     12  C   UNL     1      37.521 -22.648 -16.128  0.00  0.00    +0.123 C 
ATOM     13  C   UNL     1      31.602 -23.835 -15.768  0.00  0.00    +0.092 C 
ATOM     14  C   UNL     1      35.533 -24.098 -11.820  0.00  0.00    +0.124 C 
ENDROOT
TORSDOF 0
ENDMDL
MODEL 7
REMARK VINA RESULT:      -6.9      1.737      4.648
REMARK  Name = 2519
REMARK  0 active torsions:
REMARK  status: ('A' for Active; 'I' for Inactive)
REMARK                            x       y       z     vdW  Elec       q    Type
REMARK                         _______ _______ _______ _____ _____    ______ ____
ROOT
ATOM      1  O   UNL     1      34.894 -16.134 -20.243  0.00  0.00    -0.272 OA
ATOM      2  O   UNL     1      32.722 -13.726 -23.634  0.00  0.00    -0.252 OA
ATOM      3  N   UNL     1      33.801 -15.705 -24.213  0.00  0.00    -0.228 N 
ATOM      4  N   UNL     1      35.624 -18.080 -22.395  0.00  0.00    -0.239 NA
ATOM      5  N   UNL     1      33.800 -14.910 -21.924  0.00  0.00    -0.211 N 
ATOM      6  N   UNL     1      35.019 -17.821 -24.525  0.00  0.00    -0.240 NA
ATOM      7  C   UNL     1      34.909 -16.919 -22.450  0.00  0.00    +0.192 C 
ATOM      8  C   UNL     1      34.550 -16.784 -23.763  0.00  0.00    +0.136 C 
ATOM      9  C   UNL     1      34.565 -15.995 -21.418  0.00  0.00    +0.254 C 
ATOM     10  C   UNL     1      33.390 -14.709 -23.291  0.00  0.00    +0.318 C 
ATOM     11  C   UNL     1      35.663 -18.586 -23.669  0.00  0.00    +0.203 C 
ATOM     12  C   UNL     1      33.438 -15.597 -25.620  0.00  0.00    +0.123 C 
ATOM     13  C   UNL     1      36.234 -18.683 -21.234  0.00  0.00    +0.092 C 
ATOM     14  C   UNL     1      33.386 -13.896 -20.961  0.00  0.00    +0.124 C 
ENDROOT
TORSDOF 0
ENDMDL
MODEL 8
REMARK VINA RESULT:      -6.8      1.482      3.035
REMARK  Name = 2519
REMARK  0 active torsions:
REMARK  status: ('A' for Active; 'I' for Inactive)
REMARK                            x       y       z     vdW  Elec       q    Type
REMARK                         _______ _______ _______ _____ _____    ______ ____
ROOT
ATOM      1  O   UNL     1      34.238 -14.186 -22.020  0.00  0.00    -0.272 OA
ATOM      2  O   UNL     1      35.091 -18.781 -22.448  0.00  0.00    -0.252 OA
ATOM      3  N   UNL     1      34.400 -17.613 -24.338  0.00  0.00    -0.228 N 
ATOM      4  N   UNL     1      33.563 -14.264 -24.934  0.00  0.00    -0.239 NA
ATOM      5  N   UNL     1      34.671 -16.488 -22.209  0.00  0.00    -0.211 N 
ATOM      6  N   UNL     1      33.661 -16.126 -26.155  0.00  0.00    -0.240 NA
ATOM      7  C   UNL     1      33.969 -15.255 -24.087  0.00  0.00    +0.192 C 
ATOM      8  C   UNL     1      34.021 -16.383 -24.859  0.00  0.00    +0.136 C 
ATOM      9  C   UNL     1      34.289 -15.210 -22.697  0.00  0.00    +0.254 C 
ATOM     10  C   UNL     1      34.746 -17.712 -22.967  0.00  0.00    +0.318 C 
ATOM     11  C   UNL     1      33.390 -14.838 -26.167  0.00  0.00    +0.203 C 
ATOM     12  C   UNL     1      34.443 -18.792 -25.194  0.00  0.00    +0.123 C 
ATOM     13  C   UNL     1      33.348 -12.871 -24.619  0.00  0.00    +0.092 C 
ATOM     14  C   UNL     1      35.024 -16.571 -20.796  0.00  0.00    +0.124 C 
ENDROOT
TORSDOF 0
ENDMDL
MODEL 9
REMARK VINA RESULT:      -6.8     10.794     12.039
REMARK  Name = 2519
REMARK  0 active torsions:
REMARK  status: ('A' for Active; 'I' for Inactive)
REMARK                            x       y       z     vdW  Elec       q    Type
REMARK                         _______ _______ _______ _____ _____    ______ ____
ROOT
ATOM      1  O   UNL     1      35.020 -22.769 -17.090  0.00  0.00    -0.272 OA
ATOM      2  O   UNL     1      37.838 -23.466 -13.403  0.00  0.00    -0.252 OA
ATOM      3  N   UNL     1      35.565 -23.888 -13.141  0.00  0.00    -0.228 N 
ATOM      4  N   UNL     1      32.804 -23.652 -15.284  0.00  0.00    -0.239 NA
ATOM      5  N   UNL     1      36.452 -23.110 -15.258  0.00  0.00    -0.211 N 
ATOM      6  N   UNL     1      33.131 -24.249 -13.162  0.00  0.00    -0.240 NA
ATOM      7  C   UNL     1      34.143 -23.520 -15.052  0.00  0.00    +0.192 C 
ATOM      8  C   UNL     1      34.316 -23.892 -13.747  0.00  0.00    +0.136 C 
ATOM      9  C   UNL     1      35.195 -23.097 -15.919  0.00  0.00    +0.254 C 
ATOM     10  C   UNL     1      36.702 -23.489 -13.890  0.00  0.00    +0.318 C 
ATOM     11  C   UNL     1      32.238 -24.093 -14.116  0.00  0.00    +0.203 C 
ATOM     12  C   UNL     1      35.708 -24.292 -11.748  0.00  0.00    +0.123 C 
ATOM     13  C   UNL     1      32.095 -23.385 -16.513  0.00  0.00    +0.092 C 
ATOM     14  C   UNL     1      37.609 -22.697 -16.044  0.00  0.00    +0.124 C 
ENDROOT
TORSDOF 0
ENDMDL
