MODEL 1
REMARK VINA RESULT:      -5.8      0.000      0.000
REMARK  Name = 1174
REMARK  0 active torsions:
REMARK  status: ('A' for Active; 'I' for Inactive)
REMARK                            x       y       z     vdW  Elec       q    Type
REMARK                         _______ _______ _______ _____ _____    ______ ____
ROOT
ATOM      1  O   UNL     1      36.705 -27.278 -16.151  0.00  0.00    -0.252 OA
ATOM      2  O   UNL     1      36.842 -26.287 -11.637  0.00  0.00    -0.270 OA
ATOM      3  N   UNL     1      36.754 -26.801 -13.893  0.00  0.00    -0.236 N 
ATOM      4  N   UNL     1      38.243 -25.755 -15.367  0.00  0.00    -0.267 N 
ATOM      5  C   UNL     1      37.199 -26.657 -15.210  0.00  0.00    +0.310 C 
ATOM      6  C   UNL     1      37.258 -26.137 -12.781  0.00  0.00    +0.254 C 
ATOM      7  C   UNL     1      38.796 -25.062 -14.325  0.00  0.00    +0.070 C 
ATOM      8  C   UNL     1      38.370 -25.200 -13.067  0.00  0.00    +0.074 C 
ATOM      9  H   UNL     1      36.014 -27.431 -13.739  0.00  0.00    +0.159 HD
ATOM     10  H   UNL     1      38.603 -25.608 -16.271  0.00  0.00    +0.156 HD
ENDROOT
TORSDOF 0
ENDMDL
MODEL 2
REMARK VINA RESULT:      -5.5      1.597      2.317
REMARK  Name = 1174
REMARK  0 active torsions:
REMARK  status: ('A' for Active; 'I' for Inactive)
REMARK                            x       y       z     vdW  Elec       q    Type
REMARK                         _______ _______ _______ _____ _____    ______ ____
ROOT
ATOM      1  O   UNL     1      36.663 -27.197 -16.088  0.00  0.00    -0.252 OA
ATOM      2  O   UNL     1      40.091 -24.693 -14.257  0.00  0.00    -0.270 OA
ATOM      3  N   UNL     1      38.385 -25.944 -15.197  0.00  0.00    -0.236 N 
ATOM      4  N   UNL     1      36.673 -26.766 -13.827  0.00  0.00    -0.267 N 
ATOM      5  C   UNL     1      37.197 -26.676 -15.109  0.00  0.00    +0.310 C 
ATOM      6  C   UNL     1      39.048 -25.329 -14.143  0.00  0.00    +0.254 C 
ATOM      7  C   UNL     1      37.263 -26.189 -12.736  0.00  0.00    +0.070 C 
ATOM      8  C   UNL     1      38.398 -25.490 -12.821  0.00  0.00    +0.074 C 
ATOM      9  H   UNL     1      38.790 -25.857 -16.090  0.00  0.00    +0.159 HD
ATOM     10  H   UNL     1      35.837 -27.269 -13.697  0.00  0.00    +0.156 HD
ENDROOT
TORSDOF 0
ENDMDL
MODEL 3
REMARK VINA RESULT:      -5.4      3.828      4.195
REMARK  Name = 1174
REMARK  0 active torsions:
REMARK  status: ('A' for Active; 'I' for Inactive)
REMARK                            x       y       z     vdW  Elec       q    Type
REMARK                         _______ _______ _______ _____ _____    ______ ____
ROOT
ATOM      1  O   UNL     1      38.483 -22.294 -11.833  0.00  0.00    -0.252 OA
ATOM      2  O   UNL     1      35.203 -25.073 -10.131  0.00  0.00    -0.270 OA
ATOM      3  N   UNL     1      36.856 -23.680 -10.959  0.00  0.00    -0.236 N 
ATOM      4  N   UNL     1      36.827 -23.083 -13.223  0.00  0.00    -0.267 N 
ATOM      5  C   UNL     1      37.465 -22.967 -11.997  0.00  0.00    +0.310 C 
ATOM      6  C   UNL     1      35.710 -24.459 -11.064  0.00  0.00    +0.254 C 
ATOM      7  C   UNL     1      35.695 -23.830 -13.411  0.00  0.00    +0.070 C 
ATOM      8  C   UNL     1      35.114 -24.510 -12.420  0.00  0.00    +0.074 C 
ATOM      9  H   UNL     1      37.278 -23.624 -10.072  0.00  0.00    +0.159 HD
ATOM     10  H   UNL     1      37.206 -22.605 -13.996  0.00  0.00    +0.156 HD
ENDROOT
TORSDOF 0
ENDMDL
MODEL 4
REMARK VINA RESULT:      -5.3      2.201      2.359
REMARK  Name = 1174
REMARK  0 active torsions:
REMARK  status: ('A' for Active; 'I' for Inactive)
REMARK                            x       y       z     vdW  Elec       q    Type
REMARK                         _______ _______ _______ _____ _____    ______ ____
ROOT
ATOM      1  O   UNL     1      40.973 -25.911 -15.014  0.00  0.00    -0.252 OA
ATOM      2  O   UNL     1      37.580 -26.065 -11.878  0.00  0.00    -0.270 OA
ATOM      3  N   UNL     1      39.293 -26.004 -13.433  0.00  0.00    -0.236 N 
ATOM      4  N   UNL     1      39.057 -24.681 -15.351  0.00  0.00    -0.267 N 
ATOM      5  C   UNL     1      39.858 -25.556 -14.631  0.00  0.00    +0.310 C 
ATOM      6  C   UNL     1      38.046 -25.651 -12.935  0.00  0.00    +0.254 C 
ATOM      7  C   UNL     1      37.817 -24.283 -14.930  0.00  0.00    +0.070 C 
ATOM      8  C   UNL     1      37.279 -24.711 -13.786  0.00  0.00    +0.074 C 
ATOM      9  H   UNL     1      39.830 -26.627 -12.893  0.00  0.00    +0.159 HD
ATOM     10  H   UNL     1      39.397 -24.328 -16.205  0.00  0.00    +0.156 HD
ENDROOT
TORSDOF 0
ENDMDL
MODEL 5
REMARK VINA RESULT:      -5.3      1.081      2.916
REMARK  Name = 1174
REMARK  0 active torsions:
REMARK  status: ('A' for Active; 'I' for Inactive)
REMARK                            x       y       z     vdW  Elec       q    Type
REMARK                         _______ _______ _______ _____ _____    ______ ____
ROOT
ATOM      1  O   UNL     1      36.388 -25.755 -11.486  0.00  0.00    -0.252 OA
ATOM      2  O   UNL     1      36.848 -27.100 -15.886  0.00  0.00    -0.270 OA
ATOM      3  N   UNL     1      36.593 -26.436 -13.683  0.00  0.00    -0.236 N 
ATOM      4  N   UNL     1      38.365 -25.358 -12.596  0.00  0.00    -0.267 N 
ATOM      5  C   UNL     1      37.067 -25.841 -12.510  0.00  0.00    +0.310 C 
ATOM      6  C   UNL     1      37.296 -26.571 -14.874  0.00  0.00    +0.254 C 
ATOM      7  C   UNL     1      39.124 -25.451 -13.731  0.00  0.00    +0.070 C 
ATOM      8  C   UNL     1      38.671 -26.019 -14.851  0.00  0.00    +0.074 C 
ATOM      9  H   UNL     1      35.676 -26.792 -13.663  0.00  0.00    +0.159 HD
ATOM     10  H   UNL     1      38.759 -24.927 -11.803  0.00  0.00    +0.156 HD
ENDROOT
TORSDOF 0
ENDMDL
MODEL 6
REMARK VINA RESULT:      -5.2      7.490      8.356
REMARK  Name = 1174
REMARK  0 active torsions:
REMARK  status: ('A' for Active; 'I' for Inactive)
REMARK                            x       y       z     vdW  Elec       q    Type
REMARK                         _______ _______ _______ _____ _____    ______ ____
ROOT
ATOM      1  O   UNL     1      33.652 -23.654 -18.543  0.00  0.00    -0.252 OA
ATOM      2  O   UNL     1      36.672 -20.532 -20.128  0.00  0.00    -0.270 OA
ATOM      3  N   UNL     1      35.180 -22.110 -19.326  0.00  0.00    -0.236 N 
ATOM      4  N   UNL     1      32.882 -21.775 -19.626  0.00  0.00    -0.267 N 
ATOM      5  C   UNL     1      33.883 -22.592 -19.122  0.00  0.00    +0.310 C 
ATOM      6  C   UNL     1      35.521 -20.926 -19.967  0.00  0.00    +0.254 C 
ATOM      7  C   UNL     1      33.133 -20.594 -20.270  0.00  0.00    +0.070 C 
ATOM      8  C   UNL     1      34.371 -20.134 -20.465  0.00  0.00    +0.074 C 
ATOM      9  H   UNL     1      35.919 -22.661 -18.983  0.00  0.00    +0.159 HD
ATOM     10  H   UNL     1      31.945 -22.058 -19.515  0.00  0.00    +0.156 HD
ENDROOT
TORSDOF 0
ENDMDL
MODEL 7
REMARK VINA RESULT:      -5.2      2.417      3.164
REMARK  Name = 1174
REMARK  0 active torsions:
REMARK  status: ('A' for Active; 'I' for Inactive)
REMARK                            x       y       z     vdW  Elec       q    Type
REMARK                         _______ _______ _______ _____ _____    ______ ____
ROOT
ATOM      1  O   UNL     1      40.931 -25.490 -14.902  0.00  0.00    -0.252 OA
ATOM      2  O   UNL     1      36.594 -24.090 -15.678  0.00  0.00    -0.270 OA
ATOM      3  N   UNL     1      38.773 -24.781 -15.312  0.00  0.00    -0.236 N 
ATOM      4  N   UNL     1      39.291 -25.960 -13.357  0.00  0.00    -0.267 N 
ATOM      5  C   UNL     1      39.754 -25.417 -14.547  0.00  0.00    +0.310 C 
ATOM      6  C   UNL     1      37.429 -24.658 -14.981  0.00  0.00    +0.254 C 
ATOM      7  C   UNL     1      37.985 -25.882 -12.958  0.00  0.00    +0.070 C 
ATOM      8  C   UNL     1      37.048 -25.274 -13.689  0.00  0.00    +0.074 C 
ATOM      9  H   UNL     1      39.061 -24.382 -16.165  0.00  0.00    +0.159 HD
ATOM     10  H   UNL     1      39.933 -26.423 -12.771  0.00  0.00    +0.156 HD
ENDROOT
TORSDOF 0
ENDMDL
MODEL 8
REMARK VINA RESULT:      -5.1      7.585      8.404
REMARK  Name = 1174
REMARK  0 active torsions:
REMARK  status: ('A' for Active; 'I' for Inactive)
REMARK                            x       y       z     vdW  Elec       q    Type
REMARK                         _______ _______ _______ _____ _____    ______ ____
ROOT
ATOM      1  O   UNL     1      33.855 -23.516 -18.098  0.00  0.00    -0.252 OA
ATOM      2  O   UNL     1      32.320 -20.103 -20.812  0.00  0.00    -0.270 OA
ATOM      3  N   UNL     1      33.064 -21.820 -19.449  0.00  0.00    -0.236 N 
ATOM      4  N   UNL     1      35.359 -22.059 -19.053  0.00  0.00    -0.267 N 
ATOM      5  C   UNL     1      34.079 -22.539 -18.812  0.00  0.00    +0.310 C 
ATOM      6  C   UNL     1      33.236 -20.711 -20.268  0.00  0.00    +0.254 C 
ATOM      7  C   UNL     1      35.614 -20.974 -19.846  0.00  0.00    +0.070 C 
ATOM      8  C   UNL     1      34.644 -20.287 -20.454  0.00  0.00    +0.074 C 
ATOM      9  H   UNL     1      32.141 -22.128 -19.304  0.00  0.00    +0.159 HD
ATOM     10  H   UNL     1      36.120 -22.522 -18.633  0.00  0.00    +0.156 HD
ENDROOT
TORSDOF 0
ENDMDL
MODEL 9
REMARK VINA RESULT:      -5.1      7.719      8.394
REMARK  Name = 1174
REMARK  0 active torsions:
REMARK  status: ('A' for Active; 'I' for Inactive)
REMARK                            x       y       z     vdW  Elec       q    Type
REMARK                         _______ _______ _______ _____ _____    ______ ____
ROOT
ATOM      1  O   UNL     1      32.240 -19.894 -20.766  0.00  0.00    -0.252 OA
ATOM      2  O   UNL     1      33.763 -23.674 -18.583  0.00  0.00    -0.270 OA
ATOM      3  N   UNL     1      32.976 -21.790 -19.674  0.00  0.00    -0.236 N 
ATOM      4  N   UNL     1      34.496 -20.166 -20.403  0.00  0.00    -0.267 N 
ATOM      5  C   UNL     1      33.170 -20.563 -20.316  0.00  0.00    +0.310 C 
ATOM      6  C   UNL     1      33.970 -22.601 -19.141  0.00  0.00    +0.254 C 
ATOM      7  C   UNL     1      35.534 -20.906 -19.905  0.00  0.00    +0.070 C 
ATOM      8  C   UNL     1      35.348 -22.077 -19.292  0.00  0.00    +0.074 C 
ATOM      9  H   UNL     1      32.048 -22.108 -19.591  0.00  0.00    +0.159 HD
ATOM     10  H   UNL     1      34.701 -19.310 -20.845  0.00  0.00    +0.156 HD
ENDROOT
TORSDOF 0
ENDMDL
