MODEL 1
REMARK VINA RESULT:      -7.7      0.000      0.000
REMARK  Name = 4849
REMARK  7 active torsions:
REMARK  status: ('A' for Active; 'I' for Inactive)
REMARK    1  A    between atoms: C_1  and  N_7
REMARK    2  A    between atoms: C_2  and  O_22
REMARK    3  A    between atoms: C_4  and  S_12
REMARK    4  A    between atoms: C_5  and  C_19
REMARK    5  A    between atoms: S_12  and  N_15
REMARK    6  A    between atoms: C_19  and  O_20
REMARK    7  A    between atoms: O_22  and  C_23
REMARK                            x       y       z     vdW  Elec       q    Type
REMARK                         _______ _______ _______ _____ _____    ______ ____
ROOT
ATOM      1  C   UNL     1      34.048 -24.180 -13.593  0.00  0.00    +0.084 C 
ATOM      2  C   UNL     1      35.098 -24.703 -14.402  0.00  0.00    +0.177 C 
ATOM      3  C   UNL     1      34.382 -23.907 -12.236  0.00  0.00    +0.024 C 
ATOM      4  C   UNL     1      36.377 -24.932 -13.895  0.00  0.00    +0.157 C 
ATOM      5  C   UNL     1      35.662 -24.135 -11.729  0.00  0.00    +0.078 C 
ATOM      6  C   UNL     1      36.659 -24.648 -12.559  0.00  0.00    +0.030 C 
ENDROOT
BRANCH   1   7
ATOM      7  N   UNL     1      32.779 -23.948 -14.078  0.00  0.00    -0.305 N 
ATOM      8  C   UNL     1      31.757 -24.981 -14.230  0.00  0.00    +0.091 C 
ATOM      9  C   UNL     1      32.289 -22.638 -14.501  0.00  0.00    +0.091 C 
ATOM     10  C   UNL     1      30.477 -24.191 -14.498  0.00  0.00    +0.023 C 
ATOM     11  C   UNL     1      30.980 -22.955 -15.222  0.00  0.00    +0.023 C 
ENDBRANCH   1   7
BRANCH   4  12
ATOM     12  S   UNL     1      37.646 -25.575 -14.913  0.00  0.00    +0.060 S 
ATOM     13  O   UNL     1      37.070 -26.601 -15.770  0.00  0.00    -0.153 OA
ATOM     14  O   UNL     1      38.371 -24.459 -15.504  0.00  0.00    -0.153 OA
BRANCH  12  15
ATOM     15  N   UNL     1      38.645 -26.325 -13.748  0.00  0.00    -0.203 NA
ATOM     16  H   UNL     1      38.221 -26.230 -12.824  0.00  0.00    +0.144 HD
ATOM     17  H   UNL     1      39.562 -25.879 -13.749  0.00  0.00    +0.144 HD
ENDBRANCH  12  15
ENDBRANCH   4  12
BRANCH   5  19
ATOM     18  O   UNL     1      36.740 -22.973  -9.938  0.00  0.00    -0.245 OA
ATOM     19  C   UNL     1      35.956 -23.840 -10.335  0.00  0.00    +0.338 C 
BRANCH  19  20
ATOM     20  O   UNL     1      35.261 -24.635  -9.477  0.00  0.00    -0.477 OA
ATOM     21  H   UNL     1      34.324 -24.614  -9.474  0.00  0.00    +0.295 HD
ENDBRANCH  19  20
ENDBRANCH   5  19
BRANCH   2  22
ATOM     22  O   UNL     1      34.820 -24.980 -15.709  0.00  0.00    -0.451 OA
BRANCH  22  23
ATOM     23  C   UNL     1      34.820 -23.922 -16.601  0.00  0.00    +0.145 C 
ATOM     24  C   UNL     1      35.859 -23.008 -16.565  0.00  0.00    +0.037 C 
ATOM     25  C   UNL     1      33.780 -23.804 -17.508  0.00  0.00    +0.037 C 
ATOM     26  C   UNL     1      35.857 -21.942 -17.464  0.00  0.00    +0.003 C 
ATOM     27  C   UNL     1      33.780 -22.738 -18.407  0.00  0.00    +0.003 C 
ATOM     28  C   UNL     1      34.818 -21.807 -18.385  0.00  0.00    +0.000 C 
ENDBRANCH  22  23
ENDBRANCH   2  22
TORSDOF 7
ENDMDL
MODEL 2
REMARK VINA RESULT:      -7.7      2.624      4.982
REMARK  Name = 4849
REMARK  7 active torsions:
REMARK  status: ('A' for Active; 'I' for Inactive)
REMARK    1  A    between atoms: C_1  and  N_7
REMARK    2  A    between atoms: C_2  and  O_22
REMARK    3  A    between atoms: C_4  and  S_12
REMARK    4  A    between atoms: C_5  and  C_19
REMARK    5  A    between atoms: S_12  and  N_15
REMARK    6  A    between atoms: C_19  and  O_20
REMARK    7  A    between atoms: O_22  and  C_23
REMARK                            x       y       z     vdW  Elec       q    Type
REMARK                         _______ _______ _______ _____ _____    ______ ____
ROOT
ATOM      1  C   UNL     1      34.932 -23.265 -14.981  0.00  0.00    +0.084 C 
ATOM      2  C   UNL     1      35.769 -23.558 -13.865  0.00  0.00    +0.177 C 
ATOM      3  C   UNL     1      33.547 -23.552 -14.814  0.00  0.00    +0.024 C 
ATOM      4  C   UNL     1      35.262 -24.093 -12.681  0.00  0.00    +0.157 C 
ATOM      5  C   UNL     1      33.039 -24.086 -13.630  0.00  0.00    +0.078 C 
ATOM      6  C   UNL     1      33.897 -24.356 -12.563  0.00  0.00    +0.030 C 
ENDROOT
BRANCH   1   7
ATOM      7  N   UNL     1      35.418 -22.738 -16.158  0.00  0.00    -0.305 N 
ATOM      8  C   UNL     1      34.796 -22.936 -17.464  0.00  0.00    +0.091 C 
ATOM      9  C   UNL     1      36.616 -21.908 -16.251  0.00  0.00    +0.091 C 
ATOM     10  C   UNL     1      35.508 -21.927 -18.364  0.00  0.00    +0.023 C 
ATOM     11  C   UNL     1      36.894 -21.837 -17.752  0.00  0.00    +0.023 C 
ENDBRANCH   1   7
BRANCH   4  12
ATOM     12  S   UNL     1      36.314 -24.442 -11.328  0.00  0.00    +0.060 S 
ATOM     13  O   UNL     1      36.967 -25.719 -11.574  0.00  0.00    -0.153 OA
ATOM     14  O   UNL     1      37.115 -23.259 -11.052  0.00  0.00    -0.153 OA
BRANCH  12  15
ATOM     15  N   UNL     1      35.171 -24.638 -10.074  0.00  0.00    -0.203 NA
ATOM     16  H   UNL     1      34.867 -25.612 -10.039  0.00  0.00    +0.144 HD
ATOM     17  H   UNL     1      34.366 -24.037 -10.250  0.00  0.00    +0.144 HD
ENDBRANCH  12  15
ENDBRANCH   4  12
BRANCH   5  19
ATOM     18  O   UNL     1      30.818 -23.710 -12.826  0.00  0.00    -0.245 OA
ATOM     19  C   UNL     1      31.616 -24.361 -13.507  0.00  0.00    +0.338 C 
BRANCH  19  20
ATOM     20  O   UNL     1      31.230 -25.441 -14.240  0.00  0.00    -0.477 OA
ATOM     21  H   UNL     1      30.472 -25.932 -13.988  0.00  0.00    +0.295 HD
ENDBRANCH  19  20
ENDBRANCH   5  19
BRANCH   2  22
ATOM     22  O   UNL     1      37.103 -23.299 -13.983  0.00  0.00    -0.451 OA
BRANCH  22  23
ATOM     23  C   UNL     1      37.945 -24.372 -14.217  0.00  0.00    +0.145 C 
ATOM     24  C   UNL     1      37.456 -25.481 -14.885  0.00  0.00    +0.037 C 
ATOM     25  C   UNL     1      39.256 -24.310 -13.777  0.00  0.00    +0.037 C 
ATOM     26  C   UNL     1      38.305 -26.563 -15.120  0.00  0.00    +0.003 C 
ATOM     27  C   UNL     1      40.104 -25.392 -14.013  0.00  0.00    +0.003 C 
ATOM     28  C   UNL     1      39.629 -26.518 -14.684  0.00  0.00    +0.000 C 
ENDBRANCH  22  23
ENDBRANCH   2  22
TORSDOF 7
ENDMDL
MODEL 3
REMARK VINA RESULT:      -7.2      2.784      5.289
REMARK  Name = 4849
REMARK  7 active torsions:
REMARK  status: ('A' for Active; 'I' for Inactive)
REMARK    1  A    between atoms: C_1  and  N_7
REMARK    2  A    between atoms: C_2  and  O_22
REMARK    3  A    between atoms: C_4  and  S_12
REMARK    4  A    between atoms: C_5  and  C_19
REMARK    5  A    between atoms: S_12  and  N_15
REMARK    6  A    between atoms: C_19  and  O_20
REMARK    7  A    between atoms: O_22  and  C_23
REMARK                            x       y       z     vdW  Elec       q    Type
REMARK                         _______ _______ _______ _____ _____    ______ ____
ROOT
ATOM      1  C   UNL     1      34.358 -23.679 -13.943  0.00  0.00    +0.084 C 
ATOM      2  C   UNL     1      34.598 -23.505 -15.337  0.00  0.00    +0.177 C 
ATOM      3  C   UNL     1      32.992 -23.726 -13.546  0.00  0.00    +0.024 C 
ATOM      4  C   UNL     1      33.556 -23.388 -16.257  0.00  0.00    +0.157 C 
ATOM      5  C   UNL     1      31.949 -23.609 -14.466  0.00  0.00    +0.078 C 
ATOM      6  C   UNL     1      32.232 -23.440 -15.822  0.00  0.00    +0.030 C 
ENDROOT
BRANCH   1   7
ATOM      7  N   UNL     1      35.376 -23.796 -13.022  0.00  0.00    -0.305 N 
ATOM      8  C   UNL     1      36.427 -22.800 -12.829  0.00  0.00    +0.091 C 
ATOM      9  C   UNL     1      35.535 -24.930 -12.114  0.00  0.00    +0.091 C 
ATOM     10  C   UNL     1      37.103 -23.229 -11.528  0.00  0.00    +0.023 C 
ATOM     11  C   UNL     1      36.935 -24.738 -11.533  0.00  0.00    +0.023 C 
ENDBRANCH   1   7
BRANCH   4  12
ATOM     12  S   UNL     1      33.882 -23.175 -17.963  0.00  0.00    +0.060 S 
ATOM     13  O   UNL     1      35.127 -22.435 -18.101  0.00  0.00    -0.153 OA
ATOM     14  O   UNL     1      33.725 -24.462 -18.624  0.00  0.00    -0.153 OA
BRANCH  12  15
ATOM     15  N   UNL     1      32.584 -22.162 -18.414  0.00  0.00    -0.203 NA
ATOM     16  H   UNL     1      32.070 -21.874 -17.581  0.00  0.00    +0.144 HD
ATOM     17  H   UNL     1      31.958 -22.669 -19.040  0.00  0.00    +0.144 HD
ENDBRANCH  12  15
ENDBRANCH   4  12
BRANCH   5  19
ATOM     18  O   UNL     1      29.614 -23.099 -14.557  0.00  0.00    -0.245 OA
ATOM     19  C   UNL     1      30.568 -23.663 -14.012  0.00  0.00    +0.338 C 
BRANCH  19  20
ATOM     20  O   UNL     1      30.418 -24.419 -12.891  0.00  0.00    -0.477 OA
ATOM     21  H   UNL     1      31.091 -25.021 -12.638  0.00  0.00    +0.295 HD
ENDBRANCH  19  20
ENDBRANCH   5  19
BRANCH   2  22
ATOM     22  O   UNL     1      35.894 -23.455 -15.761  0.00  0.00    -0.451 OA
BRANCH  22  23
ATOM     23  C   UNL     1      36.717 -24.515 -15.428  0.00  0.00    +0.145 C 
ATOM     24  C   UNL     1      38.038 -24.267 -15.096  0.00  0.00    +0.037 C 
ATOM     25  C   UNL     1      36.199 -25.799 -15.434  0.00  0.00    +0.037 C 
ATOM     26  C   UNL     1      38.867 -25.338 -14.761  0.00  0.00    +0.003 C 
ATOM     27  C   UNL     1      37.029 -26.869 -15.098  0.00  0.00    +0.003 C 
ATOM     28  C   UNL     1      38.363 -26.638 -14.762  0.00  0.00    +0.000 C 
ENDBRANCH  22  23
ENDBRANCH   2  22
TORSDOF 7
ENDMDL
MODEL 4
REMARK VINA RESULT:      -6.8     12.346     15.390
REMARK  Name = 4849
REMARK  7 active torsions:
REMARK  status: ('A' for Active; 'I' for Inactive)
REMARK    1  A    between atoms: C_1  and  N_7
REMARK    2  A    between atoms: C_2  and  O_22
REMARK    3  A    between atoms: C_4  and  S_12
REMARK    4  A    between atoms: C_5  and  C_19
REMARK    5  A    between atoms: S_12  and  N_15
REMARK    6  A    between atoms: C_19  and  O_20
REMARK    7  A    between atoms: O_22  and  C_23
REMARK                            x       y       z     vdW  Elec       q    Type
REMARK                         _______ _______ _______ _____ _____    ______ ____
ROOT
ATOM      1  C   UNL     1      33.466 -12.695 -24.091  0.00  0.00    +0.084 C 
ATOM      2  C   UNL     1      32.686 -12.403 -22.934  0.00  0.00    +0.177 C 
ATOM      3  C   UNL     1      34.138 -11.589 -24.685  0.00  0.00    +0.024 C 
ATOM      4  C   UNL     1      32.586 -11.113 -22.416  0.00  0.00    +0.157 C 
ATOM      5  C   UNL     1      34.040 -10.297 -24.166  0.00  0.00    +0.078 C 
ATOM      6  C   UNL     1      33.264 -10.060 -23.031  0.00  0.00    +0.030 C 
ENDROOT
BRANCH   1   7
ATOM      7  N   UNL     1      33.573 -13.965 -24.616  0.00  0.00    -0.305 N 
ATOM      8  C   UNL     1      32.678 -14.510 -25.633  0.00  0.00    +0.091 C 
ATOM      9  C   UNL     1      34.599 -14.929 -24.227  0.00  0.00    +0.091 C 
ATOM     10  C   UNL     1      33.381 -15.787 -26.090  0.00  0.00    +0.023 C 
ATOM     11  C   UNL     1      34.118 -16.241 -24.843  0.00  0.00    +0.023 C 
ENDBRANCH   1   7
BRANCH   4  12
ATOM     12  S   UNL     1      31.621 -10.786 -20.994  0.00  0.00    +0.060 S 
ATOM     13  O   UNL     1      32.151 -11.574 -19.891  0.00  0.00    -0.153 OA
ATOM     14  O   UNL     1      31.482  -9.344 -20.854  0.00  0.00    -0.153 OA
BRANCH  12  15
ATOM     15  N   UNL     1      30.117 -11.441 -21.468  0.00  0.00    -0.203 NA
ATOM     16  H   UNL     1      29.981 -11.293 -22.469  0.00  0.00    +0.144 HD
ATOM     17  H   UNL     1      29.368 -10.980 -20.952  0.00  0.00    +0.144 HD
ENDBRANCH  12  15
ENDBRANCH   4  12
BRANCH   5  19
ATOM     18  O   UNL     1      34.670  -8.011 -24.479  0.00  0.00    -0.245 OA
ATOM     19  C   UNL     1      34.745  -9.200 -24.809  0.00  0.00    +0.338 C 
BRANCH  19  20
ATOM     20  O   UNL     1      35.524  -9.616 -25.843  0.00  0.00    -0.477 OA
ATOM     21  H   UNL     1      35.150 -10.122 -26.538  0.00  0.00    +0.295 HD
ENDBRANCH  19  20
ENDBRANCH   5  19
BRANCH   2  22
ATOM     22  O   UNL     1      32.024 -13.435 -22.334  0.00  0.00    -0.451 OA
BRANCH  22  23
ATOM     23  C   UNL     1      32.784 -14.382 -21.670  0.00  0.00    +0.145 C 
ATOM     24  C   UNL     1      34.003 -14.012 -21.130  0.00  0.00    +0.037 C 
ATOM     25  C   UNL     1      32.305 -15.676 -21.562  0.00  0.00    +0.037 C 
ATOM     26  C   UNL     1      34.769 -14.967 -20.462  0.00  0.00    +0.003 C 
ATOM     27  C   UNL     1      33.071 -16.630 -20.893  0.00  0.00    +0.003 C 
ATOM     28  C   UNL     1      34.303 -16.276 -20.343  0.00  0.00    +0.000 C 
ENDBRANCH  22  23
ENDBRANCH   2  22
TORSDOF 7
ENDMDL
MODEL 5
REMARK VINA RESULT:      -6.7     12.643     15.447
REMARK  Name = 4849
REMARK  7 active torsions:
REMARK  status: ('A' for Active; 'I' for Inactive)
REMARK    1  A    between atoms: C_1  and  N_7
REMARK    2  A    between atoms: C_2  and  O_22
REMARK    3  A    between atoms: C_4  and  S_12
REMARK    4  A    between atoms: C_5  and  C_19
REMARK    5  A    between atoms: S_12  and  N_15
REMARK    6  A    between atoms: C_19  and  O_20
REMARK    7  A    between atoms: O_22  and  C_23
REMARK                            x       y       z     vdW  Elec       q    Type
REMARK                         _______ _______ _______ _____ _____    ______ ____
ROOT
ATOM      1  C   UNL     1      33.301 -13.330 -23.764  0.00  0.00    +0.084 C 
ATOM      2  C   UNL     1      32.603 -12.401 -22.939  0.00  0.00    +0.177 C 
ATOM      3  C   UNL     1      33.944 -14.405 -23.086  0.00  0.00    +0.024 C 
ATOM      4  C   UNL     1      32.552 -12.536 -21.552  0.00  0.00    +0.157 C 
ATOM      5  C   UNL     1      33.893 -14.542 -21.699  0.00  0.00    +0.078 C 
ATOM      6  C   UNL     1      33.196 -13.607 -20.932  0.00  0.00    +0.030 C 
ENDROOT
BRANCH   1   7
ATOM      7  N   UNL     1      33.361 -13.209 -25.135  0.00  0.00    -0.305 N 
ATOM      8  C   UNL     1      34.107 -12.166 -25.835  0.00  0.00    +0.091 C 
ATOM      9  C   UNL     1      32.689 -14.111 -26.068  0.00  0.00    +0.091 C 
ATOM     10  C   UNL     1      34.116 -12.638 -27.289  0.00  0.00    +0.023 C 
ATOM     11  C   UNL     1      32.806 -13.395 -27.413  0.00  0.00    +0.023 C 
ENDBRANCH   1   7
BRANCH   4  12
ATOM     12  S   UNL     1      31.687 -11.380 -20.565  0.00  0.00    +0.060 S 
ATOM     13  O   UNL     1      31.526 -11.945 -19.234  0.00  0.00    -0.153 OA
ATOM     14  O   UNL     1      32.314 -10.076 -20.729  0.00  0.00    -0.153 OA
BRANCH  12  15
ATOM     15  N   UNL     1      30.169 -11.362 -21.346  0.00  0.00    -0.203 NA
ATOM     16  H   UNL     1      30.211 -11.940 -22.186  0.00  0.00    +0.144 HD
ATOM     17  H   UNL     1      29.930 -10.405 -21.604  0.00  0.00    +0.144 HD
ENDBRANCH  12  15
ENDBRANCH   4  12
BRANCH   5  19
ATOM     18  O   UNL     1      34.935 -15.685 -19.874  0.00  0.00    -0.245 OA
ATOM     19  C   UNL     1      34.565 -15.658 -21.053  0.00  0.00    +0.338 C 
BRANCH  19  20
ATOM     20  O   UNL     1      34.756 -16.709 -21.895  0.00  0.00    -0.477 OA
ATOM     21  H   UNL     1      34.534 -16.629 -22.802  0.00  0.00    +0.295 HD
ENDBRANCH  19  20
ENDBRANCH   5  19
BRANCH   2  22
ATOM     22  O   UNL     1      31.973 -11.354 -23.548  0.00  0.00    -0.451 OA
BRANCH  22  23
ATOM     23  C   UNL     1      32.658 -10.154 -23.627  0.00  0.00    +0.145 C 
ATOM     24  C   UNL     1      34.034 -10.169 -23.767  0.00  0.00    +0.037 C 
ATOM     25  C   UNL     1      31.947  -8.967 -23.564  0.00  0.00    +0.037 C 
ATOM     26  C   UNL     1      34.723  -8.959 -23.845  0.00  0.00    +0.003 C 
ATOM     27  C   UNL     1      32.637  -7.758 -23.644  0.00  0.00    +0.003 C 
ATOM     28  C   UNL     1      34.025  -7.753 -23.784  0.00  0.00    +0.000 C 
ENDBRANCH  22  23
ENDBRANCH   2  22
TORSDOF 7
ENDMDL
MODEL 6
REMARK VINA RESULT:      -6.6      2.728      6.405
REMARK  Name = 4849
REMARK  7 active torsions:
REMARK  status: ('A' for Active; 'I' for Inactive)
REMARK    1  A    between atoms: C_1  and  N_7
REMARK    2  A    between atoms: C_2  and  O_22
REMARK    3  A    between atoms: C_4  and  S_12
REMARK    4  A    between atoms: C_5  and  C_19
REMARK    5  A    between atoms: S_12  and  N_15
REMARK    6  A    between atoms: C_19  and  O_20
REMARK    7  A    between atoms: O_22  and  C_23
REMARK                            x       y       z     vdW  Elec       q    Type
REMARK                         _______ _______ _______ _____ _____    ______ ____
ROOT
ATOM      1  C   UNL     1      35.213 -24.369 -15.569  0.00  0.00    +0.084 C 
ATOM      2  C   UNL     1      34.153 -24.330 -14.616  0.00  0.00    +0.177 C 
ATOM      3  C   UNL     1      34.939 -23.769 -16.831  0.00  0.00    +0.024 C 
ATOM      4  C   UNL     1      32.923 -23.739 -14.902  0.00  0.00    +0.157 C 
ATOM      5  C   UNL     1      33.709 -23.177 -17.118  0.00  0.00    +0.078 C 
ATOM      6  C   UNL     1      32.701 -23.162 -16.153  0.00  0.00    +0.030 C 
ENDROOT
BRANCH   1   7
ATOM      7  N   UNL     1      36.434 -24.950 -15.302  0.00  0.00    -0.305 N 
ATOM      8  C   UNL     1      36.630 -26.379 -15.074  0.00  0.00    +0.091 C 
ATOM      9  C   UNL     1      37.691 -24.212 -15.214  0.00  0.00    +0.091 C 
ATOM     10  C   UNL     1      38.147 -26.553 -15.132  0.00  0.00    +0.023 C 
ATOM     11  C   UNL     1      38.666 -25.223 -14.614  0.00  0.00    +0.023 C 
ENDBRANCH   1   7
BRANCH   4  12
ATOM     12  S   UNL     1      31.642 -23.706 -13.712  0.00  0.00    +0.060 S 
ATOM     13  O   UNL     1      30.495 -23.026 -14.295  0.00  0.00    -0.153 OA
ATOM     14  O   UNL     1      31.489 -25.045 -13.164  0.00  0.00    -0.153 OA
BRANCH  12  15
ATOM     15  N   UNL     1      32.335 -22.698 -12.521  0.00  0.00    -0.203 NA
ATOM     16  H   UNL     1      33.041 -22.099 -12.950  0.00  0.00    +0.144 HD
ATOM     17  H   UNL     1      32.771 -23.274 -11.800  0.00  0.00    +0.144 HD
ENDBRANCH  12  15
ENDBRANCH   4  12
BRANCH   5  19
ATOM     18  O   UNL     1      32.501 -21.883 -18.727  0.00  0.00    -0.245 OA
ATOM     19  C   UNL     1      33.477 -22.576 -18.422  0.00  0.00    +0.338 C 
BRANCH  19  20
ATOM     20  O   UNL     1      34.469 -22.858 -19.309  0.00  0.00    -0.477 OA
ATOM     21  H   UNL     1      34.277 -22.922 -20.224  0.00  0.00    +0.295 HD
ENDBRANCH  19  20
ENDBRANCH   5  19
BRANCH   2  22
ATOM     22  O   UNL     1      34.373 -24.895 -13.393  0.00  0.00    -0.451 OA
BRANCH  22  23
ATOM     23  C   UNL     1      35.496 -24.489 -12.694  0.00  0.00    +0.145 C 
ATOM     24  C   UNL     1      35.819 -23.143 -12.656  0.00  0.00    +0.037 C 
ATOM     25  C   UNL     1      36.269 -25.439 -12.049  0.00  0.00    +0.037 C 
ATOM     26  C   UNL     1      36.951 -22.736 -11.952  0.00  0.00    +0.003 C 
ATOM     27  C   UNL     1      37.401 -25.030 -11.344  0.00  0.00    +0.003 C 
ATOM     28  C   UNL     1      37.742 -23.679 -11.296  0.00  0.00    +0.000 C 
ENDBRANCH  22  23
ENDBRANCH   2  22
TORSDOF 7
ENDMDL
MODEL 7
REMARK VINA RESULT:      -6.4     12.254     14.703
REMARK  Name = 4849
REMARK  7 active torsions:
REMARK  status: ('A' for Active; 'I' for Inactive)
REMARK    1  A    between atoms: C_1  and  N_7
REMARK    2  A    between atoms: C_2  and  O_22
REMARK    3  A    between atoms: C_4  and  S_12
REMARK    4  A    between atoms: C_5  and  C_19
REMARK    5  A    between atoms: S_12  and  N_15
REMARK    6  A    between atoms: C_19  and  O_20
REMARK    7  A    between atoms: O_22  and  C_23
REMARK                            x       y       z     vdW  Elec       q    Type
REMARK                         _______ _______ _______ _____ _____    ______ ____
ROOT
ATOM      1  C   UNL     1      32.535 -13.034 -21.728  0.00  0.00    +0.084 C 
ATOM      2  C   UNL     1      32.609 -12.999 -23.151  0.00  0.00    +0.177 C 
ATOM      3  C   UNL     1      33.084 -14.190 -21.104  0.00  0.00    +0.024 C 
ATOM      4  C   UNL     1      33.184 -14.033 -23.888  0.00  0.00    +0.157 C 
ATOM      5  C   UNL     1      33.661 -15.225 -21.840  0.00  0.00    +0.078 C 
ATOM      6  C   UNL     1      33.711 -15.146 -23.232  0.00  0.00    +0.030 C 
ENDROOT
BRANCH   1   7
ATOM      7  N   UNL     1      31.968 -12.020 -20.987  0.00  0.00    -0.305 N 
ATOM      8  C   UNL     1      30.555 -11.654 -21.042  0.00  0.00    +0.091 C 
ATOM      9  C   UNL     1      32.707 -11.181 -20.046  0.00  0.00    +0.091 C 
ATOM     10  C   UNL     1      30.374 -10.718 -19.847  0.00  0.00    +0.023 C 
ATOM     11  C   UNL     1      31.732 -10.049 -19.724  0.00  0.00    +0.023 C 
ENDBRANCH   1   7
BRANCH   4  12
ATOM     12  S   UNL     1      33.261 -13.961 -25.634  0.00  0.00    +0.060 S 
ATOM     13  O   UNL     1      31.900 -13.910 -26.148  0.00  0.00    -0.153 OA
ATOM     14  O   UNL     1      34.217 -12.931 -26.010  0.00  0.00    -0.153 OA
BRANCH  12  15
ATOM     15  N   UNL     1      33.930 -15.491 -25.990  0.00  0.00    -0.203 NA
ATOM     16  H   UNL     1      34.481 -15.431 -26.847  0.00  0.00    +0.144 HD
ATOM     17  H   UNL     1      33.179 -16.170 -26.117  0.00  0.00    +0.144 HD
ENDBRANCH  12  15
ENDBRANCH   4  12
BRANCH   5  19
ATOM     18  O   UNL     1      34.007 -17.563 -21.471  0.00  0.00    -0.245 OA
ATOM     19  C   UNL     1      34.210 -16.386 -21.157  0.00  0.00    +0.338 C 
BRANCH  19  20
ATOM     20  O   UNL     1      34.997 -16.044 -20.101  0.00  0.00    -0.477 OA
ATOM     21  H   UNL     1      35.895 -16.312 -20.079  0.00  0.00    +0.295 HD
ENDBRANCH  19  20
ENDBRANCH   5  19
BRANCH   2  22
ATOM     22  O   UNL     1      32.093 -11.908 -23.790  0.00  0.00    -0.451 OA
BRANCH  22  23
ATOM     23  C   UNL     1      32.832 -10.740 -23.759  0.00  0.00    +0.145 C 
ATOM     24  C   UNL     1      32.227  -9.568 -23.340  0.00  0.00    +0.037 C 
ATOM     25  C   UNL     1      34.161 -10.772 -24.148  0.00  0.00    +0.037 C 
ATOM     26  C   UNL     1      32.974  -8.390 -23.310  0.00  0.00    +0.003 C 
ATOM     27  C   UNL     1      34.907  -9.594 -24.117  0.00  0.00    +0.003 C 
ATOM     28  C   UNL     1      34.314  -8.403 -23.699  0.00  0.00    +0.000 C 
ENDBRANCH  22  23
ENDBRANCH   2  22
TORSDOF 7
ENDMDL
MODEL 8
REMARK VINA RESULT:      -5.8     12.937     15.882
REMARK  Name = 4849
REMARK  7 active torsions:
REMARK  status: ('A' for Active; 'I' for Inactive)
REMARK    1  A    between atoms: C_1  and  N_7
REMARK    2  A    between atoms: C_2  and  O_22
REMARK    3  A    between atoms: C_4  and  S_12
REMARK    4  A    between atoms: C_5  and  C_19
REMARK    5  A    between atoms: S_12  and  N_15
REMARK    6  A    between atoms: C_19  and  O_20
REMARK    7  A    between atoms: O_22  and  C_23
REMARK                            x       y       z     vdW  Elec       q    Type
REMARK                         _______ _______ _______ _____ _____    ______ ____
ROOT
ATOM      1  C   UNL     1      33.133 -11.601 -24.252  0.00  0.00    +0.084 C 
ATOM      2  C   UNL     1      32.448 -11.833 -23.024  0.00  0.00    +0.177 C 
ATOM      3  C   UNL     1      33.649 -10.287 -24.439  0.00  0.00    +0.024 C 
ATOM      4  C   UNL     1      32.293 -10.835 -22.063  0.00  0.00    +0.157 C 
ATOM      5  C   UNL     1      33.495  -9.287 -23.479  0.00  0.00    +0.078 C 
ATOM      6  C   UNL     1      32.817  -9.562 -22.290  0.00  0.00    +0.030 C 
ENDROOT
BRANCH   1   7
ATOM      7  N   UNL     1      33.294 -12.577 -25.212  0.00  0.00    -0.305 N 
ATOM      8  C   UNL     1      33.413 -14.003 -24.919  0.00  0.00    +0.091 C 
ATOM      9  C   UNL     1      33.362 -12.313 -26.647  0.00  0.00    +0.091 C 
ATOM     10  C   UNL     1      33.261 -14.670 -26.285  0.00  0.00    +0.023 C 
ATOM     11  C   UNL     1      33.839 -13.639 -27.238  0.00  0.00    +0.023 C 
ENDBRANCH   1   7
BRANCH   4  12
ATOM     12  S   UNL     1      31.448 -11.151 -20.565  0.00  0.00    +0.060 S 
ATOM     13  O   UNL     1      30.052 -11.419 -20.876  0.00  0.00    -0.153 OA
ATOM     14  O   UNL     1      32.219 -12.118 -19.797  0.00  0.00    -0.153 OA
BRANCH  12  15
ATOM     15  N   UNL     1      31.562  -9.627 -19.803  0.00  0.00    -0.203 NA
ATOM     16  H   UNL     1      30.954  -9.609 -18.983  0.00  0.00    +0.144 HD
ATOM     17  H   UNL     1      31.273  -8.898 -20.456  0.00  0.00    +0.144 HD
ENDBRANCH  12  15
ENDBRANCH   4  12
BRANCH   5  19
ATOM     18  O   UNL     1      33.470  -7.052 -24.329  0.00  0.00    -0.245 OA
ATOM     19  C   UNL     1      34.040  -7.960 -23.715  0.00  0.00    +0.338 C 
BRANCH  19  20
ATOM     20  O   UNL     1      35.280  -7.803 -23.178  0.00  0.00    -0.477 OA
ATOM     21  H   UNL     1      35.934  -7.320 -23.643  0.00  0.00    +0.295 HD
ENDBRANCH  19  20
ENDBRANCH   5  19
BRANCH   2  22
ATOM     22  O   UNL     1      31.937 -13.080 -22.804  0.00  0.00    -0.451 OA
BRANCH  22  23
ATOM     23  C   UNL     1      32.705 -13.966 -22.070  0.00  0.00    +0.145 C 
ATOM     24  C   UNL     1      34.082 -13.819 -22.059  0.00  0.00    +0.037 C 
ATOM     25  C   UNL     1      32.078 -14.977 -21.362  0.00  0.00    +0.037 C 
ATOM     26  C   UNL     1      34.855 -14.713 -21.320  0.00  0.00    +0.003 C 
ATOM     27  C   UNL     1      32.852 -15.870 -20.622  0.00  0.00    +0.003 C 
ATOM     28  C   UNL     1      34.240 -15.739 -20.601  0.00  0.00    +0.000 C 
ENDBRANCH  22  23
ENDBRANCH   2  22
TORSDOF 7
ENDMDL
MODEL 9
REMARK VINA RESULT:      -5.5     12.803     15.473
REMARK  Name = 4849
REMARK  7 active torsions:
REMARK  status: ('A' for Active; 'I' for Inactive)
REMARK    1  A    between atoms: C_1  and  N_7
REMARK    2  A    between atoms: C_2  and  O_22
REMARK    3  A    between atoms: C_4  and  S_12
REMARK    4  A    between atoms: C_5  and  C_19
REMARK    5  A    between atoms: S_12  and  N_15
REMARK    6  A    between atoms: C_19  and  O_20
REMARK    7  A    between atoms: O_22  and  C_23
REMARK                            x       y       z     vdW  Elec       q    Type
REMARK                         _______ _______ _______ _____ _____    ______ ____
ROOT
ATOM      1  C   UNL     1      33.557 -12.062 -24.004  0.00  0.00    +0.084 C 
ATOM      2  C   UNL     1      33.557 -12.939 -22.880  0.00  0.00    +0.177 C 
ATOM      3  C   UNL     1      33.429 -12.684 -25.279  0.00  0.00    +0.024 C 
ATOM      4  C   UNL     1      33.438 -14.321 -23.019  0.00  0.00    +0.157 C 
ATOM      5  C   UNL     1      33.310 -14.066 -25.419  0.00  0.00    +0.078 C 
ATOM      6  C   UNL     1      33.314 -14.885 -24.289  0.00  0.00    +0.030 C 
ENDROOT
BRANCH   1   7
ATOM      7  N   UNL     1      33.675 -10.695 -23.882  0.00  0.00    -0.305 N 
ATOM      8  C   UNL     1      34.928  -9.962 -24.038  0.00  0.00    +0.091 C 
ATOM      9  C   UNL     1      32.559  -9.799 -23.584  0.00  0.00    +0.091 C 
ATOM     10  C   UNL     1      34.489  -8.500 -24.118  0.00  0.00    +0.023 C 
ATOM     11  C   UNL     1      33.237  -8.469 -23.259  0.00  0.00    +0.023 C 
ENDBRANCH   1   7
BRANCH   4  12
ATOM     12  S   UNL     1      33.441 -15.371 -21.620  0.00  0.00    +0.060 S 
ATOM     13  O   UNL     1      32.201 -15.158 -20.887  0.00  0.00    -0.153 OA
ATOM     14  O   UNL     1      33.807 -16.711 -22.052  0.00  0.00    -0.153 OA
BRANCH  12  15
ATOM     15  N   UNL     1      34.734 -14.709 -20.723  0.00  0.00    -0.203 NA
ATOM     16  H   UNL     1      34.546 -13.725 -20.529  0.00  0.00    +0.144 HD
ATOM     17  H   UNL     1      35.597 -14.790 -21.260  0.00  0.00    +0.144 HD
ENDBRANCH  12  15
ENDBRANCH   4  12
BRANCH   5  19
ATOM     18  O   UNL     1      32.672 -15.753 -26.992  0.00  0.00    -0.245 OA
ATOM     19  C   UNL     1      33.181 -14.655 -26.743  0.00  0.00    +0.338 C 
BRANCH  19  20
ATOM     20  O   UNL     1      33.690 -13.856 -27.720  0.00  0.00    -0.477 OA
ATOM     21  H   UNL     1      33.386 -13.942 -28.602  0.00  0.00    +0.295 HD
ENDBRANCH  19  20
ENDBRANCH   5  19
BRANCH   2  22
ATOM     22  O   UNL     1      33.679 -12.384 -21.638  0.00  0.00    -0.451 OA
BRANCH  22  23
ATOM     23  C   UNL     1      32.537 -11.863 -21.056  0.00  0.00    +0.145 C 
ATOM     24  C   UNL     1      31.331 -11.959 -21.729  0.00  0.00    +0.037 C 
ATOM     25  C   UNL     1      32.629 -11.259 -19.813  0.00  0.00    +0.037 C 
ATOM     26  C   UNL     1      30.181 -11.433 -21.141  0.00  0.00    +0.003 C 
ATOM     27  C   UNL     1      31.477 -10.734 -19.226  0.00  0.00    +0.003 C 
ATOM     28  C   UNL     1      30.254 -10.821 -19.890  0.00  0.00    +0.000 C 
ENDBRANCH  22  23
ENDBRANCH   2  22
TORSDOF 7
ENDMDL
