MODEL 1
REMARK VINA RESULT:     -11.1      0.000      0.000
REMARK  Name = 101616
REMARK  7 active torsions:
REMARK  status: ('A' for Active; 'I' for Inactive)
REMARK    1  A    between atoms: C_2  and  C_9
REMARK    2  A    between atoms: C_3  and  C_19
REMARK    3  A    between atoms: C_9  and  C_10
REMARK    4  A    between atoms: C_10  and  C_11
REMARK    5  A    between atoms: C_10  and  O_17
REMARK    6  A    between atoms: C_19  and  C_21
REMARK    7  A    between atoms: C_21  and  C_22
REMARK                            x       y       z     vdW  Elec       q    Type
REMARK                         _______ _______ _______ _____ _____    ______ ____
ROOT
ATOM      1  N   UNL     1      33.937 -14.525 -22.290  0.00  0.00    +0.388 N 
ATOM      2  C   UNL     1      33.825 -13.710 -23.523  0.00  0.00    -0.055 C 
ATOM      3  C   UNL     1      34.734 -15.744 -22.564  0.00  0.00    -0.050 C 
ATOM      4  C   UNL     1      33.199 -14.485 -24.695  0.00  0.00    -0.021 C 
ATOM      5  C   UNL     1      34.143 -16.600 -23.699  0.00  0.00    -0.020 C 
ATOM      6  C   UNL     1      33.956 -15.781 -24.972  0.00  0.00    -0.004 C 
ATOM      7  C   UNL     1      32.652 -14.793 -21.641  0.00  0.00    -0.100 C 
ATOM      8  H   UNL     1      34.441 -13.973 -21.596  0.00  0.00    -0.080 HD
ENDROOT
BRANCH   2   9
ATOM      9  C   UNL     1      33.099 -12.376 -23.310  0.00  0.00    +0.013 C 
BRANCH   9  10
ATOM     10  C   UNL     1      33.509 -11.312 -24.327  0.00  0.00    +0.131 C 
BRANCH  10  11
ATOM     11  C   UNL     1      33.598  -9.915 -23.757  0.00  0.00    +0.004 C 
ATOM     12  C   UNL     1      32.606  -9.469 -22.900  0.00  0.00    -0.002 C 
ATOM     13  C   UNL     1      34.671  -9.109 -24.101  0.00  0.00    -0.002 C 
ATOM     14  C   UNL     1      32.688  -8.180 -22.372  0.00  0.00    -0.000 C 
ATOM     15  C   UNL     1      34.753  -7.820 -23.575  0.00  0.00    -0.000 C 
ATOM     16  C   UNL     1      33.762  -7.356 -22.710  0.00  0.00    -0.000 C 
ENDBRANCH  10  11
BRANCH  10  17
ATOM     17  O   UNL     1      34.794 -11.657 -24.849  0.00  0.00    -0.380 OA
ATOM     18  H   UNL     1      35.388 -10.894 -24.781  0.00  0.00    +0.211 HD
ENDBRANCH  10  17
ENDBRANCH   9  10
ENDBRANCH   2   9
BRANCH   3  19
ATOM     19  C   UNL     1      34.986 -16.602 -21.319  0.00  0.00    +0.048 C 
BRANCH  19  21
ATOM     20  O   UNL     1      36.372 -18.176 -22.507  0.00  0.00    -0.291 OA
ATOM     21  C   UNL     1      35.480 -17.986 -21.682  0.00  0.00    +0.171 C 
BRANCH  21  22
ATOM     22  C   UNL     1      34.852 -19.158 -21.005  0.00  0.00    +0.035 C 
ATOM     23  C   UNL     1      33.478 -19.230 -20.952  0.00  0.00    +0.003 C 
ATOM     24  C   UNL     1      35.669 -20.121 -20.460  0.00  0.00    +0.003 C 
ATOM     25  C   UNL     1      32.890 -20.324 -20.318  0.00  0.00    +0.000 C 
ATOM     26  C   UNL     1      35.082 -21.215 -19.826  0.00  0.00    +0.000 C 
ATOM     27  C   UNL     1      33.692 -21.317 -19.756  0.00  0.00    +0.000 C 
ENDBRANCH  21  22
ENDBRANCH  19  21
ENDBRANCH   3  19
TORSDOF 7
ENDMDL
MODEL 2
REMARK VINA RESULT:     -10.3      1.451      2.557
REMARK  Name = 101616
REMARK  7 active torsions:
REMARK  status: ('A' for Active; 'I' for Inactive)
REMARK    1  A    between atoms: C_2  and  C_9
REMARK    2  A    between atoms: C_3  and  C_19
REMARK    3  A    between atoms: C_9  and  C_10
REMARK    4  A    between atoms: C_10  and  C_11
REMARK    5  A    between atoms: C_10  and  O_17
REMARK    6  A    between atoms: C_19  and  C_21
REMARK    7  A    between atoms: C_21  and  C_22
REMARK                            x       y       z     vdW  Elec       q    Type
REMARK                         _______ _______ _______ _____ _____    ______ ____
ROOT
ATOM      1  N   UNL     1      33.752 -16.042 -23.034  0.00  0.00    +0.388 N 
ATOM      2  C   UNL     1      33.049 -14.911 -22.383  0.00  0.00    -0.055 C 
ATOM      3  C   UNL     1      34.084 -17.075 -22.025  0.00  0.00    -0.050 C 
ATOM      4  C   UNL     1      33.867 -14.277 -21.244  0.00  0.00    -0.021 C 
ATOM      5  C   UNL     1      34.944 -16.526 -20.872  0.00  0.00    -0.020 C 
ATOM      6  C   UNL     1      34.283 -15.320 -20.212  0.00  0.00    -0.004 C 
ATOM      7  C   UNL     1      34.889 -15.633 -23.859  0.00  0.00    -0.100 C 
ATOM      8  H   UNL     1      33.110 -16.460 -23.708  0.00  0.00    -0.080 HD
ENDROOT
BRANCH   2   9
ATOM      9  C   UNL     1      32.576 -13.836 -23.369  0.00  0.00    +0.013 C 
BRANCH   9  10
ATOM     10  C   UNL     1      32.555 -12.437 -22.753  0.00  0.00    +0.131 C 
BRANCH  10  11
ATOM     11  C   UNL     1      33.328 -11.405 -23.539  0.00  0.00    +0.004 C 
ATOM     12  C   UNL     1      33.283 -10.078 -23.144  0.00  0.00    -0.002 C 
ATOM     13  C   UNL     1      34.070 -11.805 -24.638  0.00  0.00    -0.002 C 
ATOM     14  C   UNL     1      33.998  -9.124 -23.870  0.00  0.00    -0.000 C 
ATOM     15  C   UNL     1      34.784 -10.852 -25.365  0.00  0.00    -0.000 C 
ATOM     16  C   UNL     1      34.748  -9.513 -24.980  0.00  0.00    -0.000 C 
ENDBRANCH  10  11
BRANCH  10  17
ATOM     17  O   UNL     1      31.197 -12.001 -22.669  0.00  0.00    -0.380 OA
ATOM     18  H   UNL     1      30.720 -12.547 -22.025  0.00  0.00    +0.211 HD
ENDBRANCH  10  17
ENDBRANCH   9  10
ENDBRANCH   2   9
BRANCH   3  19
ATOM     19  C   UNL     1      34.728 -18.330 -22.625  0.00  0.00    +0.048 C 
BRANCH  19  21
ATOM     20  O   UNL     1      36.837 -18.760 -21.541  0.00  0.00    -0.291 OA
ATOM     21  C   UNL     1      35.640 -19.021 -21.633  0.00  0.00    +0.171 C 
BRANCH  21  22
ATOM     22  C   UNL     1      35.048 -20.058 -20.738  0.00  0.00    +0.035 C 
ATOM     23  C   UNL     1      35.895 -20.924 -20.083  0.00  0.00    +0.003 C 
ATOM     24  C   UNL     1      33.680 -20.110 -20.602  0.00  0.00    +0.003 C 
ATOM     25  C   UNL     1      35.342 -21.894 -19.247  0.00  0.00    +0.000 C 
ATOM     26  C   UNL     1      33.127 -21.079 -19.767  0.00  0.00    +0.000 C 
ATOM     27  C   UNL     1      33.959 -21.971 -19.088  0.00  0.00    +0.000 C 
ENDBRANCH  21  22
ENDBRANCH  19  21
ENDBRANCH   3  19
TORSDOF 7
ENDMDL
MODEL 3
REMARK VINA RESULT:     -10.3      0.969      9.171
REMARK  Name = 101616
REMARK  7 active torsions:
REMARK  status: ('A' for Active; 'I' for Inactive)
REMARK    1  A    between atoms: C_2  and  C_9
REMARK    2  A    between atoms: C_3  and  C_19
REMARK    3  A    between atoms: C_9  and  C_10
REMARK    4  A    between atoms: C_10  and  C_11
REMARK    5  A    between atoms: C_10  and  O_17
REMARK    6  A    between atoms: C_19  and  C_21
REMARK    7  A    between atoms: C_21  and  C_22
REMARK                            x       y       z     vdW  Elec       q    Type
REMARK                         _______ _______ _______ _____ _____    ______ ____
ROOT
ATOM      1  N   UNL     1      33.826 -14.115 -23.825  0.00  0.00    +0.388 N 
ATOM      2  C   UNL     1      33.962 -15.029 -22.666  0.00  0.00    -0.055 C 
ATOM      3  C   UNL     1      33.608 -12.729 -23.349  0.00  0.00    -0.050 C 
ATOM      4  C   UNL     1      32.743 -14.990 -21.730  0.00  0.00    -0.021 C 
ATOM      5  C   UNL     1      32.373 -12.599 -22.439  0.00  0.00    -0.020 C 
ATOM      6  C   UNL     1      32.446 -13.568 -21.263  0.00  0.00    -0.004 C 
ATOM      7  C   UNL     1      32.845 -14.561 -24.816  0.00  0.00    -0.100 C 
ATOM      8  H   UNL     1      34.706 -14.132 -24.340  0.00  0.00    -0.080 HD
ENDROOT
BRANCH   2   9
ATOM      9  C   UNL     1      34.291 -16.473 -23.063  0.00  0.00    +0.013 C 
BRANCH   9  10
ATOM     10  C   UNL     1      35.288 -17.135 -22.111  0.00  0.00    +0.131 C 
BRANCH  10  11
ATOM     11  C   UNL     1      34.759 -18.373 -21.427  0.00  0.00    +0.004 C 
ATOM     12  C   UNL     1      35.651 -19.335 -20.983  0.00  0.00    -0.002 C 
ATOM     13  C   UNL     1      33.392 -18.521 -21.254  0.00  0.00    -0.002 C 
ATOM     14  C   UNL     1      35.162 -20.480 -20.350  0.00  0.00    -0.000 C 
ATOM     15  C   UNL     1      32.904 -19.665 -20.623  0.00  0.00    -0.000 C 
ATOM     16  C   UNL     1      33.789 -20.643 -20.170  0.00  0.00    -0.000 C 
ENDBRANCH  10  11
BRANCH  10  17
ATOM     17  O   UNL     1      36.448 -17.505 -22.858  0.00  0.00    -0.380 OA
ATOM     18  H   UNL     1      36.777 -18.362 -22.543  0.00  0.00    +0.211 HD
ENDBRANCH  10  17
ENDBRANCH   9  10
ENDBRANCH   2   9
BRANCH   3  19
ATOM     19  C   UNL     1      33.553 -11.696 -24.480  0.00  0.00    +0.048 C 
BRANCH  19  21
ATOM     20  O   UNL     1      35.520 -10.343 -24.141  0.00  0.00    -0.291 OA
ATOM     21  C   UNL     1      34.294 -10.426 -24.116  0.00  0.00    +0.171 C 
BRANCH  21  22
ATOM     22  C   UNL     1      33.491  -9.235 -23.711  0.00  0.00    +0.035 C 
ATOM     23  C   UNL     1      34.153  -8.071 -23.392  0.00  0.00    +0.003 C 
ATOM     24  C   UNL     1      32.120  -9.346 -23.672  0.00  0.00    +0.003 C 
ATOM     25  C   UNL     1      33.404  -6.958 -23.014  0.00  0.00    +0.000 C 
ATOM     26  C   UNL     1      31.370  -8.233 -23.293  0.00  0.00    +0.000 C 
ATOM     27  C   UNL     1      32.012  -7.038 -22.965  0.00  0.00    +0.000 C 
ENDBRANCH  21  22
ENDBRANCH  19  21
ENDBRANCH   3  19
TORSDOF 7
ENDMDL
MODEL 4
REMARK VINA RESULT:     -10.3      2.419      8.868
REMARK  Name = 101616
REMARK  7 active torsions:
REMARK  status: ('A' for Active; 'I' for Inactive)
REMARK    1  A    between atoms: C_2  and  C_9
REMARK    2  A    between atoms: C_3  and  C_19
REMARK    3  A    between atoms: C_9  and  C_10
REMARK    4  A    between atoms: C_10  and  C_11
REMARK    5  A    between atoms: C_10  and  O_17
REMARK    6  A    between atoms: C_19  and  C_21
REMARK    7  A    between atoms: C_21  and  C_22
REMARK                            x       y       z     vdW  Elec       q    Type
REMARK                         _______ _______ _______ _____ _____    ______ ____
ROOT
ATOM      1  N   UNL     1      34.347 -17.063 -22.597  0.00  0.00    +0.388 N 
ATOM      2  C   UNL     1      34.232 -18.414 -23.195  0.00  0.00    -0.055 C 
ATOM      3  C   UNL     1      33.788 -16.053 -23.526  0.00  0.00    -0.050 C 
ATOM      4  C   UNL     1      34.932 -18.523 -24.560  0.00  0.00    -0.021 C 
ATOM      5  C   UNL     1      34.472 -16.068 -24.904  0.00  0.00    -0.020 C 
ATOM      6  C   UNL     1      34.428 -17.459 -25.530  0.00  0.00    -0.004 C 
ATOM      7  C   UNL     1      35.692 -16.744 -22.115  0.00  0.00    -0.100 C 
ATOM      8  H   UNL     1      33.783 -17.050 -21.747  0.00  0.00    -0.080 HD
ENDROOT
BRANCH   2   9
ATOM      9  C   UNL     1      34.695 -19.538 -22.260  0.00  0.00    +0.013 C 
BRANCH   9  10
ATOM     10  C   UNL     1      33.627 -19.937 -21.242  0.00  0.00    +0.131 C 
BRANCH  10  11
ATOM     11  C   UNL     1      34.136 -20.825 -20.130  0.00  0.00    +0.004 C 
ATOM     12  C   UNL     1      33.235 -21.591 -19.409  0.00  0.00    -0.002 C 
ATOM     13  C   UNL     1      35.493 -20.858 -19.856  0.00  0.00    -0.002 C 
ATOM     14  C   UNL     1      33.704 -22.411 -18.382  0.00  0.00    -0.000 C 
ATOM     15  C   UNL     1      35.963 -21.677 -18.829  0.00  0.00    -0.000 C 
ATOM     16  C   UNL     1      35.068 -22.454 -18.094  0.00  0.00    -0.000 C 
ENDBRANCH  10  11
BRANCH  10  17
ATOM     17  O   UNL     1      33.100 -18.748 -20.651  0.00  0.00    -0.380 OA
ATOM     18  H   UNL     1      33.634 -18.506 -19.878  0.00  0.00    +0.211 HD
ENDBRANCH  10  17
ENDBRANCH   9  10
ENDBRANCH   2   9
BRANCH   3  19
ATOM     19  C   UNL     1      33.775 -14.633 -22.948  0.00  0.00    +0.048 C 
BRANCH  19  21
ATOM     20  O   UNL     1      32.136 -15.408 -21.359  0.00  0.00    -0.291 OA
ATOM     21  C   UNL     1      32.679 -14.457 -21.918  0.00  0.00    +0.171 C 
BRANCH  21  22
ATOM     22  C   UNL     1      32.251 -13.070 -21.575  0.00  0.00    +0.035 C 
ATOM     23  C   UNL     1      31.974 -12.771 -20.260  0.00  0.00    +0.003 C 
ATOM     24  C   UNL     1      32.150 -12.142 -22.587  0.00  0.00    +0.003 C 
ATOM     25  C   UNL     1      31.573 -11.473 -19.940  0.00  0.00    +0.000 C 
ATOM     26  C   UNL     1      31.750 -10.845 -22.266  0.00  0.00    +0.000 C 
ATOM     27  C   UNL     1      31.462 -10.511 -20.943  0.00  0.00    +0.000 C 
ENDBRANCH  21  22
ENDBRANCH  19  21
ENDBRANCH   3  19
TORSDOF 7
ENDMDL
MODEL 5
REMARK VINA RESULT:     -10.3      2.454      8.893
REMARK  Name = 101616
REMARK  7 active torsions:
REMARK  status: ('A' for Active; 'I' for Inactive)
REMARK    1  A    between atoms: C_2  and  C_9
REMARK    2  A    between atoms: C_3  and  C_19
REMARK    3  A    between atoms: C_9  and  C_10
REMARK    4  A    between atoms: C_10  and  C_11
REMARK    5  A    between atoms: C_10  and  O_17
REMARK    6  A    between atoms: C_19  and  C_21
REMARK    7  A    between atoms: C_21  and  C_22
REMARK                            x       y       z     vdW  Elec       q    Type
REMARK                         _______ _______ _______ _____ _____    ______ ____
ROOT
ATOM      1  N   UNL     1      34.327 -17.028 -22.581  0.00  0.00    +0.388 N 
ATOM      2  C   UNL     1      34.222 -18.374 -23.194  0.00  0.00    -0.055 C 
ATOM      3  C   UNL     1      33.767 -16.012 -23.503  0.00  0.00    -0.050 C 
ATOM      4  C   UNL     1      34.930 -18.466 -24.556  0.00  0.00    -0.021 C 
ATOM      5  C   UNL     1      34.458 -16.009 -24.878  0.00  0.00    -0.020 C 
ATOM      6  C   UNL     1      34.424 -17.394 -25.518  0.00  0.00    -0.004 C 
ATOM      7  C   UNL     1      35.668 -16.706 -22.090  0.00  0.00    -0.100 C 
ATOM      8  H   UNL     1      33.759 -17.027 -21.734  0.00  0.00    -0.080 HD
ENDROOT
BRANCH   2   9
ATOM      9  C   UNL     1      34.688 -19.505 -22.268  0.00  0.00    +0.013 C 
BRANCH   9  10
ATOM     10  C   UNL     1      33.625 -19.905 -21.245  0.00  0.00    +0.131 C 
BRANCH  10  11
ATOM     11  C   UNL     1      34.136 -20.804 -20.144  0.00  0.00    +0.004 C 
ATOM     12  C   UNL     1      35.496 -20.849 -19.883  0.00  0.00    -0.002 C 
ATOM     13  C   UNL     1      33.236 -21.564 -19.415  0.00  0.00    -0.002 C 
ATOM     14  C   UNL     1      35.969 -21.678 -18.865  0.00  0.00    -0.000 C 
ATOM     15  C   UNL     1      33.709 -22.394 -18.398  0.00  0.00    -0.000 C 
ATOM     16  C   UNL     1      35.075 -22.450 -18.124  0.00  0.00    -0.000 C 
ENDBRANCH  10  11
BRANCH  10  17
ATOM     17  O   UNL     1      33.109 -18.717 -20.641  0.00  0.00    -0.380 OA
ATOM     18  H   UNL     1      32.491 -18.955 -19.932  0.00  0.00    +0.211 HD
ENDBRANCH  10  17
ENDBRANCH   9  10
ENDBRANCH   2   9
BRANCH   3  19
ATOM     19  C   UNL     1      33.743 -14.598 -22.910  0.00  0.00    +0.048 C 
BRANCH  19  21
ATOM     20  O   UNL     1      32.114 -15.404 -21.327  0.00  0.00    -0.291 OA
ATOM     21  C   UNL     1      32.651 -14.443 -21.874  0.00  0.00    +0.171 C 
BRANCH  21  22
ATOM     22  C   UNL     1      32.217 -13.062 -21.510  0.00  0.00    +0.035 C 
ATOM     23  C   UNL     1      32.054 -12.136 -22.516  0.00  0.00    +0.003 C 
ATOM     24  C   UNL     1      31.996 -12.768 -20.184  0.00  0.00    +0.003 C 
ATOM     25  C   UNL     1      31.649 -10.845 -22.176  0.00  0.00    +0.000 C 
ATOM     26  C   UNL     1      31.592 -11.477 -19.845  0.00  0.00    +0.000 C 
ATOM     27  C   UNL     1      31.418 -10.516 -20.841  0.00  0.00    +0.000 C 
ENDBRANCH  21  22
ENDBRANCH  19  21
ENDBRANCH   3  19
TORSDOF 7
ENDMDL
MODEL 6
REMARK VINA RESULT:     -10.2      2.121      2.739
REMARK  Name = 101616
REMARK  7 active torsions:
REMARK  status: ('A' for Active; 'I' for Inactive)
REMARK    1  A    between atoms: C_2  and  C_9
REMARK    2  A    between atoms: C_3  and  C_19
REMARK    3  A    between atoms: C_9  and  C_10
REMARK    4  A    between atoms: C_10  and  C_11
REMARK    5  A    between atoms: C_10  and  O_17
REMARK    6  A    between atoms: C_19  and  C_21
REMARK    7  A    between atoms: C_21  and  C_22
REMARK                            x       y       z     vdW  Elec       q    Type
REMARK                         _______ _______ _______ _____ _____    ______ ____
ROOT
ATOM      1  N   UNL     1      34.555 -16.877 -22.486  0.00  0.00    +0.388 N 
ATOM      2  C   UNL     1      34.760 -15.588 -23.190  0.00  0.00    -0.055 C 
ATOM      3  C   UNL     1      35.025 -17.995 -23.337  0.00  0.00    -0.050 C 
ATOM      4  C   UNL     1      34.050 -15.534 -24.553  0.00  0.00    -0.021 C 
ATOM      5  C   UNL     1      34.325 -18.036 -24.707  0.00  0.00    -0.020 C 
ATOM      6  C   UNL     1      34.461 -16.705 -25.441  0.00  0.00    -0.004 C 
ATOM      7  C   UNL     1      33.198 -17.057 -21.970  0.00  0.00    -0.100 C 
ATOM      8  H   UNL     1      35.128 -16.865 -21.642  0.00  0.00    -0.080 HD
ENDROOT
BRANCH   2   9
ATOM      9  C   UNL     1      34.394 -14.364 -22.342  0.00  0.00    +0.013 C 
BRANCH   9  10
ATOM     10  C   UNL     1      33.460 -13.398 -23.072  0.00  0.00    +0.131 C 
BRANCH  10  11
ATOM     11  C   UNL     1      32.585 -12.576 -22.156  0.00  0.00    +0.004 C 
ATOM     12  C   UNL     1      32.434 -12.963 -20.835  0.00  0.00    -0.002 C 
ATOM     13  C   UNL     1      31.953 -11.448 -22.655  0.00  0.00    -0.002 C 
ATOM     14  C   UNL     1      31.626 -12.203 -19.988  0.00  0.00    -0.000 C 
ATOM     15  C   UNL     1      31.144 -10.689 -21.809  0.00  0.00    -0.000 C 
ATOM     16  C   UNL     1      30.982 -11.066 -20.476  0.00  0.00    -0.000 C 
ENDBRANCH  10  11
BRANCH  10  17
ATOM     17  O   UNL     1      34.256 -12.499 -23.847  0.00  0.00    -0.380 OA
ATOM     18  H   UNL     1      34.572 -12.951 -24.645  0.00  0.00    +0.211 HD
ENDBRANCH  10  17
ENDBRANCH   9  10
ENDBRANCH   2   9
BRANCH   3  19
ATOM     19  C   UNL     1      34.943 -19.362 -22.650  0.00  0.00    +0.048 C 
BRANCH  19  21
ATOM     20  O   UNL     1      36.262 -18.436 -20.857  0.00  0.00    -0.291 OA
ATOM     21  C   UNL     1      35.491 -19.314 -21.239  0.00  0.00    +0.171 C 
BRANCH  21  22
ATOM     22  C   UNL     1      35.071 -20.381 -20.284  0.00  0.00    +0.035 C 
ATOM     23  C   UNL     1      33.729 -20.663 -20.160  0.00  0.00    +0.003 C 
ATOM     24  C   UNL     1      36.040 -21.042 -19.565  0.00  0.00    +0.003 C 
ATOM     25  C   UNL     1      33.335 -21.659 -19.267  0.00  0.00    +0.000 C 
ATOM     26  C   UNL     1      35.647 -22.038 -18.672  0.00  0.00    +0.000 C 
ATOM     27  C   UNL     1      34.294 -22.347 -18.524  0.00  0.00    +0.000 C 
ENDBRANCH  21  22
ENDBRANCH  19  21
ENDBRANCH   3  19
TORSDOF 7
ENDMDL
MODEL 7
REMARK VINA RESULT:     -10.1      1.909      2.734
REMARK  Name = 101616
REMARK  7 active torsions:
REMARK  status: ('A' for Active; 'I' for Inactive)
REMARK    1  A    between atoms: C_2  and  C_9
REMARK    2  A    between atoms: C_3  and  C_19
REMARK    3  A    between atoms: C_9  and  C_10
REMARK    4  A    between atoms: C_10  and  C_11
REMARK    5  A    between atoms: C_10  and  O_17
REMARK    6  A    between atoms: C_19  and  C_21
REMARK    7  A    between atoms: C_21  and  C_22
REMARK                            x       y       z     vdW  Elec       q    Type
REMARK                         _______ _______ _______ _____ _____    ______ ____
ROOT
ATOM      1  N   UNL     1      33.390 -14.341 -23.059  0.00  0.00    +0.388 N 
ATOM      2  C   UNL     1      32.308 -13.872 -22.161  0.00  0.00    -0.055 C 
ATOM      3  C   UNL     1      33.837 -15.692 -22.645  0.00  0.00    -0.050 C 
ATOM      4  C   UNL     1      32.730 -13.846 -20.682  0.00  0.00    -0.021 C 
ATOM      5  C   UNL     1      34.320 -15.738 -21.184  0.00  0.00    -0.020 C 
ATOM      6  C   UNL     1      33.255 -15.206 -20.230  0.00  0.00    -0.004 C 
ATOM      7  C   UNL     1      34.483 -13.380 -23.218  0.00  0.00    -0.100 C 
ATOM      8  H   UNL     1      33.003 -14.415 -24.000  0.00  0.00    -0.080 HD
ENDROOT
BRANCH   2   9
ATOM      9  C   UNL     1      31.713 -12.520 -22.575  0.00  0.00    +0.013 C 
BRANCH   9  10
ATOM     10  C   UNL     1      31.482 -11.588 -21.385  0.00  0.00    +0.131 C 
BRANCH  10  11
ATOM     11  C   UNL     1      32.032 -10.194 -21.578  0.00  0.00    +0.004 C 
ATOM     12  C   UNL     1      32.061  -9.323 -20.501  0.00  0.00    -0.002 C 
ATOM     13  C   UNL     1      32.500  -9.816 -22.826  0.00  0.00    -0.002 C 
ATOM     14  C   UNL     1      32.571  -8.036 -20.678  0.00  0.00    -0.000 C 
ATOM     15  C   UNL     1      33.008  -8.529 -23.003  0.00  0.00    -0.000 C 
ATOM     16  C   UNL     1      33.044  -7.640 -21.929  0.00  0.00    -0.000 C 
ENDBRANCH  10  11
BRANCH  10  17
ATOM     17  O   UNL     1      30.074 -11.479 -21.164  0.00  0.00    -0.380 OA
ATOM     18  H   UNL     1      29.863 -10.588 -20.846  0.00  0.00    +0.211 HD
ENDBRANCH  10  17
ENDBRANCH   9  10
ENDBRANCH   2   9
BRANCH   3  19
ATOM     19  C   UNL     1      34.889 -16.300 -23.579  0.00  0.00    +0.048 C 
BRANCH  19  21
ATOM     20  O   UNL     1      34.320 -18.374 -24.669  0.00  0.00    -0.291 OA
ATOM     21  C   UNL     1      34.755 -17.805 -23.669  0.00  0.00    +0.171 C 
BRANCH  21  22
ATOM     22  C   UNL     1      35.171 -18.620 -22.491  0.00  0.00    +0.035 C 
ATOM     23  C   UNL     1      34.234 -19.424 -21.881  0.00  0.00    +0.003 C 
ATOM     24  C   UNL     1      36.474 -18.537 -22.058  0.00  0.00    +0.003 C 
ATOM     25  C   UNL     1      34.622 -20.186 -20.779  0.00  0.00    +0.000 C 
ATOM     26  C   UNL     1      36.862 -19.299 -20.956  0.00  0.00    +0.000 C 
ATOM     27  C   UNL     1      35.936 -20.124 -20.317  0.00  0.00    +0.000 C 
ENDBRANCH  21  22
ENDBRANCH  19  21
ENDBRANCH   3  19
TORSDOF 7
ENDMDL
MODEL 8
REMARK VINA RESULT:     -10.0      1.881      9.433
REMARK  Name = 101616
REMARK  7 active torsions:
REMARK  status: ('A' for Active; 'I' for Inactive)
REMARK    1  A    between atoms: C_2  and  C_9
REMARK    2  A    between atoms: C_3  and  C_19
REMARK    3  A    between atoms: C_9  and  C_10
REMARK    4  A    between atoms: C_10  and  C_11
REMARK    5  A    between atoms: C_10  and  O_17
REMARK    6  A    between atoms: C_19  and  C_21
REMARK    7  A    between atoms: C_21  and  C_22
REMARK                            x       y       z     vdW  Elec       q    Type
REMARK                         _______ _______ _______ _____ _____    ______ ____
ROOT
ATOM      1  N   UNL     1      33.861 -12.370 -23.469  0.00  0.00    +0.388 N 
ATOM      2  C   UNL     1      33.809 -13.312 -22.326  0.00  0.00    -0.055 C 
ATOM      3  C   UNL     1      33.232 -11.083 -23.089  0.00  0.00    -0.050 C 
ATOM      4  C   UNL     1      32.376 -13.565 -21.826  0.00  0.00    -0.021 C 
ATOM      5  C   UNL     1      31.775 -11.248 -22.621  0.00  0.00    -0.020 C 
ATOM      6  C   UNL     1      31.669 -12.257 -21.482  0.00  0.00    -0.004 C 
ATOM      7  C   UNL     1      33.350 -12.932 -24.720  0.00  0.00    -0.100 C 
ATOM      8  H   UNL     1      34.843 -12.187 -23.677  0.00  0.00    -0.080 HD
ENDROOT
BRANCH   2   9
ATOM      9  C   UNL     1      34.528 -14.640 -22.594  0.00  0.00    +0.013 C 
BRANCH   9  10
ATOM     10  C   UNL     1      34.177 -15.719 -21.570  0.00  0.00    +0.131 C 
BRANCH  10  11
ATOM     11  C   UNL     1      34.457 -17.128 -22.037  0.00  0.00    +0.004 C 
ATOM     12  C   UNL     1      34.989 -17.329 -23.300  0.00  0.00    -0.002 C 
ATOM     13  C   UNL     1      34.178 -18.190 -21.194  0.00  0.00    -0.002 C 
ATOM     14  C   UNL     1      35.248 -18.631 -23.733  0.00  0.00    -0.000 C 
ATOM     15  C   UNL     1      34.436 -19.492 -21.626  0.00  0.00    -0.000 C 
ATOM     16  C   UNL     1      34.971 -19.710 -22.895  0.00  0.00    -0.000 C 
ENDBRANCH  10  11
BRANCH  10  17
ATOM     17  O   UNL     1      34.945 -15.486 -20.387  0.00  0.00    -0.380 OA
ATOM     18  H   UNL     1      35.583 -16.207 -20.268  0.00  0.00    +0.211 HD
ENDBRANCH  10  17
ENDBRANCH   9  10
ENDBRANCH   2   9
BRANCH   3  19
ATOM     19  C   UNL     1      33.328 -10.011 -24.181  0.00  0.00    +0.048 C 
BRANCH  19  21
ATOM     20  O   UNL     1      35.178  -8.546 -23.689  0.00  0.00    -0.291 OA
ATOM     21  C   UNL     1      33.964  -8.739 -23.662  0.00  0.00    +0.171 C 
BRANCH  21  22
ATOM     22  C   UNL     1      33.072  -7.685 -23.098  0.00  0.00    +0.035 C 
ATOM     23  C   UNL     1      32.399  -6.856 -23.968  0.00  0.00    +0.003 C 
ATOM     24  C   UNL     1      32.954  -7.581 -21.731  0.00  0.00    +0.003 C 
ATOM     25  C   UNL     1      31.565  -5.870 -23.442  0.00  0.00    +0.000 C 
ATOM     26  C   UNL     1      32.120  -6.596 -21.205  0.00  0.00    +0.000 C 
ATOM     27  C   UNL     1      31.425  -5.740 -22.060  0.00  0.00    +0.000 C 
ENDBRANCH  21  22
ENDBRANCH  19  21
ENDBRANCH   3  19
TORSDOF 7
ENDMDL
MODEL 9
REMARK VINA RESULT:     -10.0      2.879      9.709
REMARK  Name = 101616
REMARK  7 active torsions:
REMARK  status: ('A' for Active; 'I' for Inactive)
REMARK    1  A    between atoms: C_2  and  C_9
REMARK    2  A    between atoms: C_3  and  C_19
REMARK    3  A    between atoms: C_9  and  C_10
REMARK    4  A    between atoms: C_10  and  C_11
REMARK    5  A    between atoms: C_10  and  O_17
REMARK    6  A    between atoms: C_19  and  C_21
REMARK    7  A    between atoms: C_21  and  C_22
REMARK                            x       y       z     vdW  Elec       q    Type
REMARK                         _______ _______ _______ _____ _____    ______ ____
ROOT
ATOM      1  N   UNL     1      32.324  -9.921 -22.164  0.00  0.00    +0.388 N 
ATOM      2  C   UNL     1      32.328 -11.238 -21.484  0.00  0.00    -0.055 C 
ATOM      3  C   UNL     1      32.707  -8.859 -21.203  0.00  0.00    -0.050 C 
ATOM      4  C   UNL     1      31.392 -11.283 -20.264  0.00  0.00    -0.021 C 
ATOM      5  C   UNL     1      31.785  -8.809 -19.972  0.00  0.00    -0.020 C 
ATOM      6  C   UNL     1      31.715 -10.165 -19.276  0.00  0.00    -0.004 C 
ATOM      7  C   UNL     1      31.088  -9.639 -22.895  0.00  0.00    -0.100 C 
ATOM      8  H   UNL     1      33.031  -9.947 -22.898  0.00  0.00    -0.080 HD
ENDROOT
BRANCH   2   9
ATOM      9  C   UNL     1      32.039 -12.413 -22.427  0.00  0.00    +0.013 C 
BRANCH   9  10
ATOM     10  C   UNL     1      33.300 -12.950 -23.104  0.00  0.00    +0.131 C 
BRANCH  10  11
ATOM     11  C   UNL     1      33.856 -14.203 -22.468  0.00  0.00    +0.004 C 
ATOM     12  C   UNL     1      33.732 -14.380 -21.100  0.00  0.00    -0.002 C 
ATOM     13  C   UNL     1      34.476 -15.151 -23.265  0.00  0.00    -0.002 C 
ATOM     14  C   UNL     1      34.245 -15.537 -20.512  0.00  0.00    -0.000 C 
ATOM     15  C   UNL     1      34.990 -16.307 -22.678  0.00  0.00    -0.000 C 
ATOM     16  C   UNL     1      34.873 -16.499 -21.301  0.00  0.00    -0.000 C 
ENDBRANCH  10  11
BRANCH  10  17
ATOM     17  O   UNL     1      32.989 -13.249 -24.467  0.00  0.00    -0.380 OA
ATOM     18  H   UNL     1      32.967 -14.210 -24.591  0.00  0.00    +0.211 HD
ENDBRANCH  10  17
ENDBRANCH   9  10
ENDBRANCH   2   9
BRANCH   3  19
ATOM     19  C   UNL     1      32.825  -7.471 -21.843  0.00  0.00    +0.048 C 
BRANCH  19  21
ATOM     20  O   UNL     1      34.783  -8.195 -23.049  0.00  0.00    -0.291 OA
ATOM     21  C   UNL     1      33.790  -7.473 -23.010  0.00  0.00    +0.171 C 
BRANCH  21  22
ATOM     22  C   UNL     1      33.510  -6.557 -24.154  0.00  0.00    +0.035 C 
ATOM     23  C   UNL     1      32.320  -5.866 -24.170  0.00  0.00    +0.003 C 
ATOM     24  C   UNL     1      34.453  -6.437 -25.150  0.00  0.00    +0.003 C 
ATOM     25  C   UNL     1      32.058  -5.010 -25.240  0.00  0.00    +0.000 C 
ATOM     26  C   UNL     1      34.191  -5.582 -26.219  0.00  0.00    +0.000 C 
ATOM     27  C   UNL     1      32.994  -4.867 -26.264  0.00  0.00    +0.000 C 
ENDBRANCH  21  22
ENDBRANCH  19  21
ENDBRANCH   3  19
TORSDOF 7
ENDMDL
