MODEL 1
REMARK VINA RESULT:      -6.3      0.000      0.000
REMARK  Name = 5798
REMARK  0 active torsions:
REMARK  status: ('A' for Active; 'I' for Inactive)
REMARK                            x       y       z     vdW  Elec       q    Type
REMARK                         _______ _______ _______ _____ _____    ______ ____
ROOT
ATOM      1  N   UNL     1      34.876 -22.372 -18.675  0.00  0.00    -0.315 N 
ATOM      2  N   UNL     1      32.694 -22.001 -18.877  0.00  0.00    -0.315 N 
ATOM      3  C   UNL     1      34.762 -21.340 -19.573  0.00  0.00    +0.059 C 
ATOM      4  C   UNL     1      33.390 -21.128 -19.681  0.00  0.00    +0.059 C 
ATOM      5  C   UNL     1      35.710 -20.597 -20.277  0.00  0.00    +0.016 C 
ATOM      6  C   UNL     1      32.918 -20.119 -20.539  0.00  0.00    +0.016 C 
ATOM      7  C   UNL     1      35.223 -19.598 -21.125  0.00  0.00    +0.001 C 
ATOM      8  C   UNL     1      33.615 -22.732 -18.289  0.00  0.00    +0.182 C 
ATOM      9  C   UNL     1      33.852 -19.361 -21.255  0.00  0.00    +0.001 C 
ATOM     10  H   UNL     1      35.717 -22.779 -18.366  0.00  0.00    +0.148 HD
ATOM     11  H   UNL     1      31.718 -22.066 -18.766  0.00  0.00    +0.148 HD
ENDROOT
TORSDOF 0
ENDMDL
MODEL 2
REMARK VINA RESULT:      -6.3      0.051      1.939
REMARK  Name = 5798
REMARK  0 active torsions:
REMARK  status: ('A' for Active; 'I' for Inactive)
REMARK                            x       y       z     vdW  Elec       q    Type
REMARK                         _______ _______ _______ _____ _____    ______ ____
ROOT
ATOM      1  N   UNL     1      32.727 -21.975 -18.919  0.00  0.00    -0.315 N 
ATOM      2  N   UNL     1      34.894 -22.394 -18.662  0.00  0.00    -0.315 N 
ATOM      3  C   UNL     1      33.372 -21.078 -19.733  0.00  0.00    +0.059 C 
ATOM      4  C   UNL     1      34.724 -21.361 -19.554  0.00  0.00    +0.059 C 
ATOM      5  C   UNL     1      32.905 -20.076 -20.583  0.00  0.00    +0.016 C 
ATOM      6  C   UNL     1      35.680 -20.608 -20.258  0.00  0.00    +0.016 C 
ATOM      7  C   UNL     1      33.870 -19.337 -21.275  0.00  0.00    +0.001 C 
ATOM      8  C   UNL     1      33.678 -22.738 -18.302  0.00  0.00    +0.182 C 
ATOM      9  C   UNL     1      35.233 -19.596 -21.117  0.00  0.00    +0.001 C 
ATOM     10  H   UNL     1      31.753 -22.054 -18.802  0.00  0.00    +0.148 HD
ATOM     11  H   UNL     1      35.743 -22.791 -18.359  0.00  0.00    +0.148 HD
ENDROOT
TORSDOF 0
ENDMDL
MODEL 3
REMARK VINA RESULT:      -6.0      2.373      3.976
REMARK  Name = 5798
REMARK  0 active torsions:
REMARK  status: ('A' for Active; 'I' for Inactive)
REMARK                            x       y       z     vdW  Elec       q    Type
REMARK                         _______ _______ _______ _____ _____    ______ ____
ROOT
ATOM      1  N   UNL     1      34.353 -18.279 -21.754  0.00  0.00    -0.315 N 
ATOM      2  N   UNL     1      36.432 -18.901 -21.271  0.00  0.00    -0.315 N 
ATOM      3  C   UNL     1      34.228 -19.410 -20.988  0.00  0.00    +0.059 C 
ATOM      4  C   UNL     1      35.539 -19.779 -20.700  0.00  0.00    +0.059 C 
ATOM      5  C   UNL     1      33.115 -20.121 -20.537  0.00  0.00    +0.016 C 
ATOM      6  C   UNL     1      35.773 -20.922 -19.917  0.00  0.00    +0.016 C 
ATOM      7  C   UNL     1      33.367 -21.256 -19.759  0.00  0.00    +0.001 C 
ATOM      8  C   UNL     1      35.688 -18.015 -21.895  0.00  0.00    +0.182 C 
ATOM      9  C   UNL     1      34.671 -21.651 -19.453  0.00  0.00    +0.001 C 
ATOM     10  H   UNL     1      33.615 -17.751 -22.133  0.00  0.00    +0.148 HD
ATOM     11  H   UNL     1      37.415 -18.930 -21.224  0.00  0.00    +0.148 HD
ENDROOT
TORSDOF 0
ENDMDL
MODEL 4
REMARK VINA RESULT:      -6.0      2.349      3.450
REMARK  Name = 5798
REMARK  0 active torsions:
REMARK  status: ('A' for Active; 'I' for Inactive)
REMARK                            x       y       z     vdW  Elec       q    Type
REMARK                         _______ _______ _______ _____ _____    ______ ____
ROOT
ATOM      1  N   UNL     1      36.363 -18.918 -21.221  0.00  0.00    -0.315 N 
ATOM      2  N   UNL     1      34.282 -18.250 -21.621  0.00  0.00    -0.315 N 
ATOM      3  C   UNL     1      35.557 -19.858 -20.630  0.00  0.00    +0.059 C 
ATOM      4  C   UNL     1      34.263 -19.418 -20.894  0.00  0.00    +0.059 C 
ATOM      5  C   UNL     1      35.840 -21.018 -19.909  0.00  0.00    +0.016 C 
ATOM      6  C   UNL     1      33.174 -20.169 -20.419  0.00  0.00    +0.016 C 
ATOM      7  C   UNL     1      34.745 -21.753 -19.444  0.00  0.00    +0.001 C 
ATOM      8  C   UNL     1      35.555 -17.979 -21.799  0.00  0.00    +0.182 C 
ATOM      9  C   UNL     1      33.435 -21.337 -19.694  0.00  0.00    +0.001 C 
ATOM     10  H   UNL     1      37.347 -18.920 -21.226  0.00  0.00    +0.148 HD
ATOM     11  H   UNL     1      33.509 -17.729 -21.940  0.00  0.00    +0.148 HD
ENDROOT
TORSDOF 0
ENDMDL
MODEL 5
REMARK VINA RESULT:      -5.8      4.322      5.496
REMARK  Name = 5798
REMARK  0 active torsions:
REMARK  status: ('A' for Active; 'I' for Inactive)
REMARK                            x       y       z     vdW  Elec       q    Type
REMARK                         _______ _______ _______ _____ _____    ______ ____
ROOT
ATOM      1  N   UNL     1      35.496 -17.865 -20.776  0.00  0.00    -0.315 N 
ATOM      2  N   UNL     1      35.895 -17.919 -22.961  0.00  0.00    -0.315 N 
ATOM      3  C   UNL     1      34.990 -16.689 -21.269  0.00  0.00    +0.059 C 
ATOM      4  C   UNL     1      35.252 -16.747 -22.635  0.00  0.00    +0.059 C 
ATOM      5  C   UNL     1      34.346 -15.613 -20.657  0.00  0.00    +0.016 C 
ATOM      6  C   UNL     1      34.856 -15.676 -23.455  0.00  0.00    +0.016 C 
ATOM      7  C   UNL     1      33.959 -14.557 -21.488  0.00  0.00    +0.001 C 
ATOM      8  C   UNL     1      36.025 -18.565 -21.824  0.00  0.00    +0.182 C 
ATOM      9  C   UNL     1      34.208 -14.586 -22.862  0.00  0.00    +0.001 C 
ATOM     10  H   UNL     1      35.479 -18.153 -19.835  0.00  0.00    +0.148 HD
ATOM     11  H   UNL     1      36.194 -18.211 -23.853  0.00  0.00    +0.148 HD
ENDROOT
TORSDOF 0
ENDMDL
MODEL 6
REMARK VINA RESULT:      -5.8      4.398      5.547
REMARK  Name = 5798
REMARK  0 active torsions:
REMARK  status: ('A' for Active; 'I' for Inactive)
REMARK                            x       y       z     vdW  Elec       q    Type
REMARK                         _______ _______ _______ _____ _____    ______ ____
ROOT
ATOM      1  N   UNL     1      35.803 -17.697 -22.995  0.00  0.00    -0.315 N 
ATOM      2  N   UNL     1      35.486 -17.870 -20.802  0.00  0.00    -0.315 N 
ATOM      3  C   UNL     1      35.160 -16.543 -22.626  0.00  0.00    +0.059 C 
ATOM      4  C   UNL     1      34.974 -16.675 -21.253  0.00  0.00    +0.059 C 
ATOM      5  C   UNL     1      34.739 -15.429 -23.353  0.00  0.00    +0.016 C 
ATOM      6  C   UNL     1      34.330 -15.644 -20.547  0.00  0.00    +0.016 C 
ATOM      7  C   UNL     1      34.101 -14.413 -22.634  0.00  0.00    +0.001 C 
ATOM      8  C   UNL     1      35.975 -18.457 -21.872  0.00  0.00    +0.182 C 
ATOM      9  C   UNL     1      33.899 -14.517 -21.256  0.00  0.00    +0.001 C 
ATOM     10  H   UNL     1      36.089 -17.935 -23.906  0.00  0.00    +0.148 HD
ATOM     11  H   UNL     1      35.486 -18.212 -19.879  0.00  0.00    +0.148 HD
ENDROOT
TORSDOF 0
ENDMDL
MODEL 7
REMARK VINA RESULT:      -5.7     10.964     12.232
REMARK  Name = 5798
REMARK  0 active torsions:
REMARK  status: ('A' for Active; 'I' for Inactive)
REMARK                            x       y       z     vdW  Elec       q    Type
REMARK                         _______ _______ _______ _____ _____    ______ ____
ROOT
ATOM      1  N   UNL     1      32.212  -8.001 -21.784  0.00  0.00    -0.315 N 
ATOM      2  N   UNL     1      32.600  -7.926 -19.596  0.00  0.00    -0.315 N 
ATOM      3  C   UNL     1      31.893  -9.249 -21.312  0.00  0.00    +0.059 C 
ATOM      4  C   UNL     1      32.144  -9.176 -19.945  0.00  0.00    +0.059 C 
ATOM      5  C   UNL     1      31.422 -10.400 -21.945  0.00  0.00    +0.016 C 
ATOM      6  C   UNL     1      31.916 -10.310 -19.145  0.00  0.00    +0.016 C 
ATOM      7  C   UNL     1      31.201 -11.518 -21.134  0.00  0.00    +0.001 C 
ATOM      8  C   UNL     1      32.628  -7.247 -20.722  0.00  0.00    +0.182 C 
ATOM      9  C   UNL     1      31.443 -11.476 -19.759  0.00  0.00    +0.001 C 
ATOM     10  H   UNL     1      32.152  -7.702 -22.719  0.00  0.00    +0.148 HD
ATOM     11  H   UNL     1      32.850  -7.607 -18.699  0.00  0.00    +0.148 HD
ENDROOT
TORSDOF 0
ENDMDL
MODEL 8
REMARK VINA RESULT:      -5.7      4.181      5.291
REMARK  Name = 5798
REMARK  0 active torsions:
REMARK  status: ('A' for Active; 'I' for Inactive)
REMARK                            x       y       z     vdW  Elec       q    Type
REMARK                         _______ _______ _______ _____ _____    ______ ____
ROOT
ATOM      1  N   UNL     1      34.947 -17.460 -20.901  0.00  0.00    -0.315 N 
ATOM      2  N   UNL     1      34.627 -15.578 -22.039  0.00  0.00    -0.315 N 
ATOM      3  C   UNL     1      34.862 -17.838 -22.217  0.00  0.00    +0.059 C 
ATOM      4  C   UNL     1      34.662 -16.645 -22.907  0.00  0.00    +0.059 C 
ATOM      5  C   UNL     1      34.939 -19.082 -22.844  0.00  0.00    +0.016 C 
ATOM      6  C   UNL     1      34.530 -16.676 -24.306  0.00  0.00    +0.016 C 
ATOM      7  C   UNL     1      34.806 -19.094 -24.237  0.00  0.00    +0.001 C 
ATOM      8  C   UNL     1      34.801 -16.102 -20.846  0.00  0.00    +0.182 C 
ATOM      9  C   UNL     1      34.605 -17.914 -24.956  0.00  0.00    +0.001 C 
ATOM     10  H   UNL     1      35.088 -18.060 -20.134  0.00  0.00    +0.148 HD
ATOM     11  H   UNL     1      34.500 -14.627 -22.262  0.00  0.00    +0.148 HD
ENDROOT
TORSDOF 0
ENDMDL
MODEL 9
REMARK VINA RESULT:      -5.7      4.160      5.379
REMARK  Name = 5798
REMARK  0 active torsions:
REMARK  status: ('A' for Active; 'I' for Inactive)
REMARK                            x       y       z     vdW  Elec       q    Type
REMARK                         _______ _______ _______ _____ _____    ______ ____
ROOT
ATOM      1  N   UNL     1      34.682 -15.709 -22.089  0.00  0.00    -0.315 N 
ATOM      2  N   UNL     1      34.968 -17.586 -20.934  0.00  0.00    -0.315 N 
ATOM      3  C   UNL     1      34.671 -16.717 -23.020  0.00  0.00    +0.059 C 
ATOM      4  C   UNL     1      34.852 -17.878 -22.274  0.00  0.00    +0.059 C 
ATOM      5  C   UNL     1      34.524 -16.713 -24.408  0.00  0.00    +0.016 C 
ATOM      6  C   UNL     1      34.891 -19.119 -22.934  0.00  0.00    +0.016 C 
ATOM      7  C   UNL     1      34.565 -17.956 -25.048  0.00  0.00    +0.001 C 
ATOM      8  C   UNL     1      34.862 -16.279 -20.859  0.00  0.00    +0.182 C 
ATOM      9  C   UNL     1      34.745 -19.138 -24.327  0.00  0.00    +0.001 C 
ATOM     10  H   UNL     1      34.578 -14.749 -22.275  0.00  0.00    +0.148 HD
ATOM     11  H   UNL     1      35.102 -18.219 -20.192  0.00  0.00    +0.148 HD
ENDROOT
TORSDOF 0
ENDMDL
