MODEL 1
REMARK VINA RESULT:      -4.7      0.000      0.000
REMARK  Name = 122706489
REMARK  5 active torsions:
REMARK  status: ('A' for Active; 'I' for Inactive)
REMARK    1  A    between atoms: C_1  and  N_2
REMARK    2  A    between atoms: C_1  and  C_8
REMARK    3  A    between atoms: C_1  and  C_9
REMARK    4  A    between atoms: C_9  and  S_10
REMARK    5  A    between atoms: S_10  and  O_11
REMARK                            x       y       z     vdW  Elec       q    Type
REMARK                         _______ _______ _______ _____ _____    ______ ____
ROOT
ATOM      1  C   UNK     1      38.757 -24.923 -14.279  0.00  0.00    +0.054 C 
ENDROOT
BRANCH   1   2
ATOM      2  N   UNK     1      38.207 -24.147 -15.438  0.00  0.00    +0.389 N 
ATOM      3  H   UNK     1      38.595 -23.204 -15.430  0.00  0.00    -0.088 HD
ATOM      4  H   UNK     1      37.191 -24.097 -15.361  0.00  0.00    -0.088 HD
ATOM      5  H   UNK     1      38.460 -24.612 -16.309  0.00  0.00    -0.088 HD
ENDBRANCH   1   2
BRANCH   1   8
ATOM      6  O   UNK     1      41.108 -24.805 -14.576  0.00  0.00    -0.248 OA
ATOM      7  O   UNK     1      40.089 -26.840 -14.733  0.00  0.00    -0.248 OA
ATOM      8  C   UNK     1      40.118 -25.591 -14.547  0.00  0.00    +0.346 C 
ENDBRANCH   1   8
BRANCH   1   9
ATOM      9  C   UNK     1      37.638 -25.839 -13.779  0.00  0.00    +0.076 C 
BRANCH   9  10
ATOM     10  S   UNK     1      36.351 -26.164 -15.028  0.00  0.00    -0.003 S 
BRANCH  10  11
ATOM     11  O   UNK     1      37.279 -27.053 -16.077  0.00  0.00    -0.328 OA
ATOM     12  H   UNK     1      36.882 -27.025 -16.962  0.00  0.00    +0.227 HD
ENDBRANCH  10  11
ENDBRANCH   9  10
ENDBRANCH   1   9
TORSDOF 5
ENDMDL
MODEL 2
REMARK VINA RESULT:      -4.6      2.596      3.354
REMARK  Name = 122706489
REMARK  5 active torsions:
REMARK  status: ('A' for Active; 'I' for Inactive)
REMARK    1  A    between atoms: C_1  and  N_2
REMARK    2  A    between atoms: C_1  and  C_8
REMARK    3  A    between atoms: C_1  and  C_9
REMARK    4  A    between atoms: C_9  and  S_10
REMARK    5  A    between atoms: S_10  and  O_11
REMARK                            x       y       z     vdW  Elec       q    Type
REMARK                         _______ _______ _______ _____ _____    ______ ____
ROOT
ATOM      1  C   UNK     1      36.612 -25.374 -14.884  0.00  0.00    +0.054 C 
ENDROOT
BRANCH   1   2
ATOM      2  N   UNK     1      35.163 -25.393 -14.501  0.00  0.00    +0.389 N 
ATOM      3  H   UNK     1      34.980 -26.200 -13.905  0.00  0.00    -0.088 HD
ATOM      4  H   UNK     1      34.591 -25.454 -15.342  0.00  0.00    -0.088 HD
ATOM      5  H   UNK     1      34.935 -24.538 -13.995  0.00  0.00    -0.088 HD
ENDBRANCH   1   2
BRANCH   1   8
ATOM      6  O   UNK     1      36.619 -27.314 -16.250  0.00  0.00    -0.248 OA
ATOM      7  O   UNK     1      38.141 -27.167 -14.556  0.00  0.00    -0.248 OA
ATOM      8  C   UNK     1      37.187 -26.749 -15.272  0.00  0.00    +0.346 C 
ENDBRANCH   1   8
BRANCH   1   9
ATOM      9  C   UNK     1      37.358 -24.612 -13.786  0.00  0.00    +0.076 C 
BRANCH   9  10
ATOM     10  S   UNK     1      36.591 -24.772 -12.140  0.00  0.00    -0.003 S 
BRANCH  10  11
ATOM     11  O   UNK     1      36.784 -26.410 -11.963  0.00  0.00    -0.328 OA
ATOM     12  H   UNK     1      35.972 -26.792 -11.594  0.00  0.00    +0.227 HD
ENDBRANCH  10  11
ENDBRANCH   9  10
ENDBRANCH   1   9
TORSDOF 5
ENDMDL
MODEL 3
REMARK VINA RESULT:      -4.5      2.182      2.208
REMARK  Name = 122706489
REMARK  5 active torsions:
REMARK  status: ('A' for Active; 'I' for Inactive)
REMARK    1  A    between atoms: C_1  and  N_2
REMARK    2  A    between atoms: C_1  and  C_8
REMARK    3  A    between atoms: C_1  and  C_9
REMARK    4  A    between atoms: C_9  and  S_10
REMARK    5  A    between atoms: S_10  and  O_11
REMARK                            x       y       z     vdW  Elec       q    Type
REMARK                         _______ _______ _______ _____ _____    ______ ____
ROOT
ATOM      1  C   UNK     1      38.916 -25.535 -14.289  0.00  0.00    +0.054 C 
ENDROOT
BRANCH   1   2
ATOM      2  N   UNK     1      38.135 -26.813 -14.352  0.00  0.00    +0.389 N 
ATOM      3  H   UNK     1      38.755 -27.577 -14.622  0.00  0.00    -0.088 HD
ATOM      4  H   UNK     1      37.388 -26.721 -15.041  0.00  0.00    -0.088 HD
ATOM      5  H   UNK     1      37.731 -27.010 -13.437  0.00  0.00    -0.088 HD
ENDBRANCH   1   2
BRANCH   1   8
ATOM      6  O   UNK     1      41.081 -24.617 -14.602  0.00  0.00    -0.248 OA
ATOM      7  O   UNK     1      40.832 -26.883 -14.695  0.00  0.00    -0.248 OA
ATOM      8  C   UNK     1      40.425 -25.697 -14.545  0.00  0.00    +0.346 C 
ENDBRANCH   1   8
BRANCH   1   9
ATOM      9  C   UNK     1      38.519 -24.829 -12.991  0.00  0.00    +0.076 C 
BRANCH   9  10
ATOM     10  S   UNK     1      36.762 -25.041 -12.555  0.00  0.00    -0.003 S 
BRANCH  10  11
ATOM     11  O   UNK     1      36.916 -26.454 -11.699  0.00  0.00    -0.328 OA
ATOM     12  H   UNK     1      37.635 -26.984 -12.078  0.00  0.00    +0.227 HD
ENDBRANCH  10  11
ENDBRANCH   9  10
ENDBRANCH   1   9
TORSDOF 5
ENDMDL
MODEL 4
REMARK VINA RESULT:      -4.4      2.535      3.301
REMARK  Name = 122706489
REMARK  5 active torsions:
REMARK  status: ('A' for Active; 'I' for Inactive)
REMARK    1  A    between atoms: C_1  and  N_2
REMARK    2  A    between atoms: C_1  and  C_8
REMARK    3  A    between atoms: C_1  and  C_9
REMARK    4  A    between atoms: C_9  and  S_10
REMARK    5  A    between atoms: S_10  and  O_11
REMARK                            x       y       z     vdW  Elec       q    Type
REMARK                         _______ _______ _______ _____ _____    ______ ____
ROOT
ATOM      1  C   UNK     1      36.775 -25.329 -14.777  0.00  0.00    +0.054 C 
ENDROOT
BRANCH   1   2
ATOM      2  N   UNK     1      35.549 -25.315 -13.915  0.00  0.00    +0.389 N 
ATOM      3  H   UNK     1      34.745 -25.026 -14.473  0.00  0.00    -0.088 HD
ATOM      4  H   UNK     1      35.682 -24.659 -13.146  0.00  0.00    -0.088 HD
ATOM      5  H   UNK     1      35.385 -26.249 -13.541  0.00  0.00    -0.088 HD
ENDBRANCH   1   2
BRANCH   1   8
ATOM      6  O   UNK     1      38.215 -27.203 -14.564  0.00  0.00    -0.248 OA
ATOM      7  O   UNK     1      36.599 -27.246 -16.175  0.00  0.00    -0.248 OA
ATOM      8  C   UNK     1      37.234 -26.734 -15.210  0.00  0.00    +0.346 C 
ENDBRANCH   1   8
BRANCH   1   9
ATOM      9  C   UNK     1      37.823 -24.456 -14.084  0.00  0.00    +0.076 C 
BRANCH   9  10
ATOM     10  S   UNK     1      37.569 -24.305 -12.285  0.00  0.00    -0.003 S 
BRANCH  10  11
ATOM     11  O   UNK     1      37.756 -25.908 -11.899  0.00  0.00    -0.328 OA
ATOM     12  H   UNK     1      38.677 -26.172 -12.054  0.00  0.00    +0.227 HD
ENDBRANCH  10  11
ENDBRANCH   9  10
ENDBRANCH   1   9
TORSDOF 5
ENDMDL
MODEL 5
REMARK VINA RESULT:      -4.4      2.132      2.894
REMARK  Name = 122706489
REMARK  5 active torsions:
REMARK  status: ('A' for Active; 'I' for Inactive)
REMARK    1  A    between atoms: C_1  and  N_2
REMARK    2  A    between atoms: C_1  and  C_8
REMARK    3  A    between atoms: C_1  and  C_9
REMARK    4  A    between atoms: C_9  and  S_10
REMARK    5  A    between atoms: S_10  and  O_11
REMARK                            x       y       z     vdW  Elec       q    Type
REMARK                         _______ _______ _______ _____ _____    ______ ____
ROOT
ATOM      1  C   UNK     1      38.672 -25.152 -14.354  0.00  0.00    +0.054 C 
ENDROOT
BRANCH   1   2
ATOM      2  N   UNK     1      37.748 -25.887 -15.277  0.00  0.00    +0.389 N 
ATOM      3  H   UNK     1      38.292 -26.334 -16.016  0.00  0.00    -0.088 HD
ATOM      4  H   UNK     1      37.088 -25.230 -15.691  0.00  0.00    -0.088 HD
ATOM      5  H   UNK     1      37.239 -26.598 -14.753  0.00  0.00    -0.088 HD
ENDBRANCH   1   2
BRANCH   1   8
ATOM      6  O   UNK     1      40.372 -26.774 -14.683  0.00  0.00    -0.248 OA
ATOM      7  O   UNK     1      40.985 -24.599 -14.366  0.00  0.00    -0.248 OA
ATOM      8  C   UNK     1      40.155 -25.543 -14.489  0.00  0.00    +0.346 C 
ENDBRANCH   1   8
BRANCH   1   9
ATOM      9  C   UNK     1      38.071 -25.243 -12.949  0.00  0.00    +0.076 C 
BRANCH   9  10
ATOM     10  S   UNK     1      37.367 -23.671 -12.355  0.00  0.00    -0.003 S 
BRANCH  10  11
ATOM     11  O   UNK     1      38.740 -23.066 -11.648  0.00  0.00    -0.328 OA
ATOM     12  H   UNK     1      39.184 -22.465 -12.267  0.00  0.00    +0.227 HD
ENDBRANCH  10  11
ENDBRANCH   9  10
ENDBRANCH   1   9
TORSDOF 5
ENDMDL
MODEL 6
REMARK VINA RESULT:      -4.3      2.952      3.137
REMARK  Name = 122706489
REMARK  5 active torsions:
REMARK  status: ('A' for Active; 'I' for Inactive)
REMARK    1  A    between atoms: C_1  and  N_2
REMARK    2  A    between atoms: C_1  and  C_8
REMARK    3  A    between atoms: C_1  and  C_9
REMARK    4  A    between atoms: C_9  and  S_10
REMARK    5  A    between atoms: S_10  and  O_11
REMARK                            x       y       z     vdW  Elec       q    Type
REMARK                         _______ _______ _______ _____ _____    ______ ____
ROOT
ATOM      1  C   UNK     1      38.386 -24.617 -13.094  0.00  0.00    +0.054 C 
ENDROOT
BRANCH   1   2
ATOM      2  N   UNK     1      38.315 -26.095 -12.853  0.00  0.00    +0.389 N 
ATOM      3  H   UNK     1      38.672 -26.590 -13.671  0.00  0.00    -0.088 HD
ATOM      4  H   UNK     1      37.346 -26.366 -12.688  0.00  0.00    -0.088 HD
ATOM      5  H   UNK     1      38.879 -26.334 -12.039  0.00  0.00    -0.088 HD
ENDBRANCH   1   2
BRANCH   1   8
ATOM      6  O   UNK     1      38.252 -22.536 -11.963  0.00  0.00    -0.248 OA
ATOM      7  O   UNK     1      37.277 -24.364 -11.006  0.00  0.00    -0.248 OA
ATOM      8  C   UNK     1      37.917 -23.754 -11.908  0.00  0.00    +0.346 C 
ENDBRANCH   1   8
BRANCH   1   9
ATOM      9  C   UNK     1      37.709 -24.348 -14.439  0.00  0.00    +0.076 C 
BRANCH   9  10
ATOM     10  S   UNK     1      36.439 -25.581 -14.875  0.00  0.00    -0.003 S 
BRANCH  10  11
ATOM     11  O   UNK     1      37.403 -26.581 -15.782  0.00  0.00    -0.328 OA
ATOM     12  H   UNK     1      36.966 -26.771 -16.627  0.00  0.00    +0.227 HD
ENDBRANCH  10  11
ENDBRANCH   9  10
ENDBRANCH   1   9
TORSDOF 5
ENDMDL
MODEL 7
REMARK VINA RESULT:      -4.3      8.935     10.088
REMARK  Name = 122706489
REMARK  5 active torsions:
REMARK  status: ('A' for Active; 'I' for Inactive)
REMARK    1  A    between atoms: C_1  and  N_2
REMARK    2  A    between atoms: C_1  and  C_8
REMARK    3  A    between atoms: C_1  and  C_9
REMARK    4  A    between atoms: C_9  and  S_10
REMARK    5  A    between atoms: S_10  and  O_11
REMARK                            x       y       z     vdW  Elec       q    Type
REMARK                         _______ _______ _______ _____ _____    ______ ____
ROOT
ATOM      1  C   UNK     1      29.069 -23.866 -15.574  0.00  0.00    +0.054 C 
ENDROOT
BRANCH   1   2
ATOM      2  N   UNK     1      29.825 -25.138 -15.815  0.00  0.00    +0.389 N 
ATOM      3  H   UNK     1      29.211 -25.817 -16.266  0.00  0.00    -0.088 HD
ATOM      4  H   UNK     1      30.151 -25.513 -14.925  0.00  0.00    -0.088 HD
ATOM      5  H   UNK     1      30.624 -24.949 -16.418  0.00  0.00    -0.088 HD
ENDBRANCH   1   2
BRANCH   1   8
ATOM      6  O   UNK     1      28.624 -22.023 -17.000  0.00  0.00    -0.248 OA
ATOM      7  O   UNK     1      27.740 -24.058 -17.537  0.00  0.00    -0.248 OA
ATOM      8  C   UNK     1      28.421 -23.260 -16.832  0.00  0.00    +0.346 C 
ENDBRANCH   1   8
BRANCH   1   9
ATOM      9  C   UNK     1      29.988 -22.942 -14.771  0.00  0.00    +0.076 C 
BRANCH   9  10
ATOM     10  S   UNK     1      31.382 -23.810 -13.980  0.00  0.00    -0.003 S 
BRANCH  10  11
ATOM     11  O   UNK     1      30.505 -24.670 -12.866  0.00  0.00    -0.328 OA
ATOM     12  H   UNK     1      30.056 -25.408 -13.309  0.00  0.00    +0.227 HD
ENDBRANCH  10  11
ENDBRANCH   9  10
ENDBRANCH   1   9
TORSDOF 5
ENDMDL
MODEL 8
REMARK VINA RESULT:      -4.3      4.093      4.585
REMARK  Name = 122706489
REMARK  5 active torsions:
REMARK  status: ('A' for Active; 'I' for Inactive)
REMARK    1  A    between atoms: C_1  and  N_2
REMARK    2  A    between atoms: C_1  and  C_8
REMARK    3  A    between atoms: C_1  and  C_9
REMARK    4  A    between atoms: C_9  and  S_10
REMARK    5  A    between atoms: S_10  and  O_11
REMARK                            x       y       z     vdW  Elec       q    Type
REMARK                         _______ _______ _______ _____ _____    ______ ____
ROOT
ATOM      1  C   UNK     1      35.776 -24.397 -12.141  0.00  0.00    +0.054 C 
ENDROOT
BRANCH   1   2
ATOM      2  N   UNK     1      35.064 -23.435 -13.044  0.00  0.00    +0.389 N 
ATOM      3  H   UNK     1      35.441 -23.515 -13.989  0.00  0.00    -0.088 HD
ATOM      4  H   UNK     1      35.201 -22.484 -12.703  0.00  0.00    -0.088 HD
ATOM      5  H   UNK     1      34.069 -23.653 -13.056  0.00  0.00    -0.088 HD
ENDBRANCH   1   2
BRANCH   1   8
ATOM      6  O   UNK     1      36.104 -24.186  -9.801  0.00  0.00    -0.248 OA
ATOM      7  O   UNK     1      37.289 -22.825 -11.196  0.00  0.00    -0.248 OA
ATOM      8  C   UNK     1      36.464 -23.744 -10.929  0.00  0.00    +0.346 C 
ENDBRANCH   1   8
BRANCH   1   9
ATOM      9  C   UNK     1      36.657 -25.279 -13.028  0.00  0.00    +0.076 C 
BRANCH   9  10
ATOM     10  S   UNK     1      36.995 -24.556 -14.667  0.00  0.00    -0.003 S 
BRANCH  10  11
ATOM     11  O   UNK     1      37.802 -23.202 -14.150  0.00  0.00    -0.328 OA
ATOM     12  H   UNK     1      37.355 -22.839 -13.369  0.00  0.00    +0.227 HD
ENDBRANCH  10  11
ENDBRANCH   9  10
ENDBRANCH   1   9
TORSDOF 5
ENDMDL
MODEL 9
REMARK VINA RESULT:      -4.2     10.689     11.559
REMARK  Name = 122706489
REMARK  5 active torsions:
REMARK  status: ('A' for Active; 'I' for Inactive)
REMARK    1  A    between atoms: C_1  and  N_2
REMARK    2  A    between atoms: C_1  and  C_8
REMARK    3  A    between atoms: C_1  and  C_9
REMARK    4  A    between atoms: C_9  and  S_10
REMARK    5  A    between atoms: S_10  and  O_11
REMARK                            x       y       z     vdW  Elec       q    Type
REMARK                         _______ _______ _______ _____ _____    ______ ____
ROOT
ATOM      1  C   UNK     1      42.191 -15.591 -17.808  0.00  0.00    +0.054 C 
ENDROOT
BRANCH   1   2
ATOM      2  N   UNK     1      42.236 -16.257 -19.151  0.00  0.00    +0.389 N 
ATOM      3  H   UNK     1      43.170 -16.154 -19.549  0.00  0.00    -0.088 HD
ATOM      4  H   UNK     1      41.553 -15.820 -19.769  0.00  0.00    -0.088 HD
ATOM      5  H   UNK     1      42.017 -17.247 -19.047  0.00  0.00    -0.088 HD
ENDBRANCH   1   2
BRANCH   1   8
ATOM      6  O   UNK     1      41.451 -17.689 -16.984  0.00  0.00    -0.248 OA
ATOM      7  O   UNK     1      41.885 -16.021 -15.489  0.00  0.00    -0.248 OA
ATOM      8  C   UNK     1      41.815 -16.527 -16.645  0.00  0.00    +0.346 C 
ENDBRANCH   1   8
BRANCH   1   9
ATOM      9  C   UNK     1      41.345 -14.325 -17.962  0.00  0.00    +0.076 C 
BRANCH   9  10
ATOM     10  S   UNK     1      42.170 -12.820 -17.347  0.00  0.00    -0.003 S 
BRANCH  10  11
ATOM     11  O   UNK     1      41.881 -13.053 -15.731  0.00  0.00    -0.328 OA
ATOM     12  H   UNK     1      41.003 -13.450 -15.614  0.00  0.00    +0.227 HD
ENDBRANCH  10  11
ENDBRANCH   9  10
ENDBRANCH   1   9
TORSDOF 5
ENDMDL
