MODEL 1
REMARK VINA RESULT:      -3.5      0.000      0.000
REMARK  Name = 263
REMARK  3 active torsions:
REMARK  status: ('A' for Active; 'I' for Inactive)
REMARK    1  A    between atoms: C_1  and  C_2
REMARK    2  A    between atoms: C_1  and  C_4
REMARK    3  A    between atoms: C_4  and  O_5
REMARK                            x       y       z     vdW  Elec       q    Type
REMARK                         _______ _______ _______ _____ _____    ______ ____
ROOT
ATOM      1  C   UNL     1      34.951 -21.364 -19.649  0.00  0.00    +0.032 C 
ENDROOT
BRANCH   1   2
ATOM      2  C   UNL     1      34.406 -20.232 -20.516  0.00  0.00    +0.003 C 
ATOM      3  C   UNL     1      32.889 -20.164 -20.457  0.00  0.00    +0.000 C 
ENDBRANCH   1   2
BRANCH   1   4
ATOM      4  C   UNL     1      33.830 -22.193 -19.039  0.00  0.00    +0.137 C 
BRANCH   4   5
ATOM      5  O   UNL     1      33.975 -23.542 -19.463  0.00  0.00    -0.382 OA
ATOM      6  H   UNL     1      34.483 -23.569 -20.289  0.00  0.00    +0.210 HD
ENDBRANCH   4   5
ENDBRANCH   1   4
TORSDOF 3
ENDMDL
MODEL 2
REMARK VINA RESULT:      -3.5      2.608      3.241
REMARK  Name = 263
REMARK  3 active torsions:
REMARK  status: ('A' for Active; 'I' for Inactive)
REMARK    1  A    between atoms: C_1  and  C_2
REMARK    2  A    between atoms: C_1  and  C_4
REMARK    3  A    between atoms: C_4  and  O_5
REMARK                            x       y       z     vdW  Elec       q    Type
REMARK                         _______ _______ _______ _____ _____    ______ ____
ROOT
ATOM      1  C   UNL     1      33.939 -19.405 -21.285  0.00  0.00    +0.032 C 
ENDROOT
BRANCH   1   2
ATOM      2  C   UNL     1      32.867 -20.125 -20.471  0.00  0.00    +0.003 C 
ATOM      3  C   UNL     1      33.460 -21.256 -19.646  0.00  0.00    +0.000 C 
ENDBRANCH   1   2
BRANCH   1   4
ATOM      4  C   UNL     1      35.340 -19.841 -20.881  0.00  0.00    +0.137 C 
BRANCH   4   5
ATOM      5  O   UNL     1      36.099 -18.688 -20.541  0.00  0.00    -0.382 OA
ATOM      6  H   UNL     1      36.353 -18.218 -21.350  0.00  0.00    +0.210 HD
ENDBRANCH   4   5
ENDBRANCH   1   4
TORSDOF 3
ENDMDL
MODEL 3
REMARK VINA RESULT:      -3.5      1.247      1.866
REMARK  Name = 263
REMARK  3 active torsions:
REMARK  status: ('A' for Active; 'I' for Inactive)
REMARK    1  A    between atoms: C_1  and  C_2
REMARK    2  A    between atoms: C_1  and  C_4
REMARK    3  A    between atoms: C_4  and  O_5
REMARK                            x       y       z     vdW  Elec       q    Type
REMARK                         _______ _______ _______ _____ _____    ______ ____
ROOT
ATOM      1  C   UNL     1      33.011 -20.400 -20.188  0.00  0.00    +0.032 C 
ENDROOT
BRANCH   1   2
ATOM      2  C   UNL     1      34.092 -19.622 -20.933  0.00  0.00    +0.003 C 
ATOM      3  C   UNL     1      35.478 -20.170 -20.636  0.00  0.00    +0.000 C 
ENDBRANCH   1   2
BRANCH   1   4
ATOM      4  C   UNL     1      33.589 -21.597 -19.448  0.00  0.00    +0.137 C 
BRANCH   4   5
ATOM      5  O   UNL     1      32.564 -22.189 -18.661  0.00  0.00    -0.382 OA
ATOM      6  H   UNL     1      31.715 -22.112 -19.125  0.00  0.00    +0.210 HD
ENDBRANCH   4   5
ENDBRANCH   1   4
TORSDOF 3
ENDMDL
MODEL 4
REMARK VINA RESULT:      -3.4     10.688     11.106
REMARK  Name = 263
REMARK  3 active torsions:
REMARK  status: ('A' for Active; 'I' for Inactive)
REMARK    1  A    between atoms: C_1  and  C_2
REMARK    2  A    between atoms: C_1  and  C_4
REMARK    3  A    between atoms: C_4  and  O_5
REMARK                            x       y       z     vdW  Elec       q    Type
REMARK                         _______ _______ _______ _____ _____    ______ ____
ROOT
ATOM      1  C   UNL     1      41.820 -13.458 -15.865  0.00  0.00    +0.032 C 
ENDROOT
BRANCH   1   2
ATOM      2  C   UNL     1      41.996 -13.279 -17.370  0.00  0.00    +0.003 C 
ATOM      3  C   UNL     1      41.213 -14.321 -18.151  0.00  0.00    +0.000 C 
ENDBRANCH   1   2
BRANCH   1   4
ATOM      4  C   UNL     1      41.153 -14.784 -15.531  0.00  0.00    +0.137 C 
BRANCH   4   5
ATOM      5  O   UNL     1      40.424 -14.639 -14.320  0.00  0.00    -0.382 OA
ATOM      6  H   UNL     1      39.473 -14.663 -14.511  0.00  0.00    +0.210 HD
ENDBRANCH   4   5
ENDBRANCH   1   4
TORSDOF 3
ENDMDL
MODEL 5
REMARK VINA RESULT:      -3.4      3.143      3.887
REMARK  Name = 263
REMARK  3 active torsions:
REMARK  status: ('A' for Active; 'I' for Inactive)
REMARK    1  A    between atoms: C_1  and  C_2
REMARK    2  A    between atoms: C_1  and  C_4
REMARK    3  A    between atoms: C_4  and  O_5
REMARK                            x       y       z     vdW  Elec       q    Type
REMARK                         _______ _______ _______ _____ _____    ______ ____
ROOT
ATOM      1  C   UNL     1      34.606 -19.387 -21.971  0.00  0.00    +0.032 C 
ENDROOT
BRANCH   1   2
ATOM      2  C   UNL     1      34.381 -20.114 -20.648  0.00  0.00    +0.003 C 
ATOM      3  C   UNL     1      32.901 -20.241 -20.327  0.00  0.00    +0.000 C 
ENDBRANCH   1   2
BRANCH   1   4
ATOM      4  C   UNL     1      34.618 -17.877 -21.788  0.00  0.00    +0.137 C 
BRANCH   4   5
ATOM      5  O   UNL     1      35.408 -17.558 -20.650  0.00  0.00    -0.382 OA
ATOM      6  H   UNL     1      35.092 -16.728 -20.260  0.00  0.00    +0.210 HD
ENDBRANCH   4   5
ENDBRANCH   1   4
TORSDOF 3
ENDMDL
MODEL 6
REMARK VINA RESULT:      -3.3      8.478      9.009
REMARK  Name = 263
REMARK  3 active torsions:
REMARK  status: ('A' for Active; 'I' for Inactive)
REMARK    1  A    between atoms: C_1  and  C_2
REMARK    2  A    between atoms: C_1  and  C_4
REMARK    3  A    between atoms: C_4  and  O_5
REMARK                            x       y       z     vdW  Elec       q    Type
REMARK                         _______ _______ _______ _____ _____    ______ ____
ROOT
ATOM      1  C   UNL     1      38.719 -25.604 -14.457  0.00  0.00    +0.032 C 
ENDROOT
BRANCH   1   2
ATOM      2  C   UNL     1      38.385 -25.725 -12.972  0.00  0.00    +0.003 C 
ATOM      3  C   UNL     1      38.241 -24.360 -12.320  0.00  0.00    +0.000 C 
ENDBRANCH   1   2
BRANCH   1   4
ATOM      4  C   UNL     1      40.222 -25.591 -14.696  0.00  0.00    +0.137 C 
BRANCH   4   5
ATOM      5  O   UNL     1      40.477 -25.985 -16.037  0.00  0.00    -0.382 OA
ATOM      6  H   UNL     1      39.805 -25.598 -16.621  0.00  0.00    +0.210 HD
ENDBRANCH   4   5
ENDBRANCH   1   4
TORSDOF 3
ENDMDL
MODEL 7
REMARK VINA RESULT:      -3.3      5.571      6.402
REMARK  Name = 263
REMARK  3 active torsions:
REMARK  status: ('A' for Active; 'I' for Inactive)
REMARK    1  A    between atoms: C_1  and  C_2
REMARK    2  A    between atoms: C_1  and  C_4
REMARK    3  A    between atoms: C_4  and  O_5
REMARK                            x       y       z     vdW  Elec       q    Type
REMARK                         _______ _______ _______ _____ _____    ______ ____
ROOT
ATOM      1  C   UNL     1      34.616 -17.542 -25.012  0.00  0.00    +0.032 C 
ENDROOT
BRANCH   1   2
ATOM      2  C   UNL     1      34.506 -19.023 -24.660  0.00  0.00    +0.003 C 
ATOM      3  C   UNL     1      34.800 -19.270 -23.189  0.00  0.00    +0.000 C 
ENDBRANCH   1   2
BRANCH   1   4
ATOM      4  C   UNL     1      34.470 -16.659 -23.781  0.00  0.00    +0.137 C 
BRANCH   4   5
ATOM      5  O   UNL     1      35.688 -15.956 -23.574  0.00  0.00    -0.382 OA
ATOM      6  H   UNL     1      35.937 -16.010 -22.638  0.00  0.00    +0.210 HD
ENDBRANCH   4   5
ENDBRANCH   1   4
TORSDOF 3
ENDMDL
MODEL 8
REMARK VINA RESULT:      -3.3      5.539      6.347
REMARK  Name = 263
REMARK  3 active torsions:
REMARK  status: ('A' for Active; 'I' for Inactive)
REMARK    1  A    between atoms: C_1  and  C_2
REMARK    2  A    between atoms: C_1  and  C_4
REMARK    3  A    between atoms: C_4  and  O_5
REMARK                            x       y       z     vdW  Elec       q    Type
REMARK                         _______ _______ _______ _____ _____    ______ ____
ROOT
ATOM      1  C   UNL     1      34.525 -18.649 -24.552  0.00  0.00    +0.032 C 
ENDROOT
BRANCH   1   2
ATOM      2  C   UNL     1      34.846 -19.251 -23.187  0.00  0.00    +0.003 C 
ATOM      3  C   UNL     1      35.804 -18.372 -22.401  0.00  0.00    +0.000 C 
ENDBRANCH   1   2
BRANCH   1   4
ATOM      4  C   UNL     1      34.749 -17.144 -24.570  0.00  0.00    +0.137 C 
BRANCH   4   5
ATOM      5  O   UNL     1      34.762 -16.697 -25.919  0.00  0.00    -0.382 OA
ATOM      6  H   UNL     1      34.416 -15.791 -25.962  0.00  0.00    +0.210 HD
ENDBRANCH   4   5
ENDBRANCH   1   4
TORSDOF 3
ENDMDL
MODEL 9
REMARK VINA RESULT:      -3.3     10.266     10.693
REMARK  Name = 263
REMARK  3 active torsions:
REMARK  status: ('A' for Active; 'I' for Inactive)
REMARK    1  A    between atoms: C_1  and  C_2
REMARK    2  A    between atoms: C_1  and  C_4
REMARK    3  A    between atoms: C_4  and  O_5
REMARK                            x       y       z     vdW  Elec       q    Type
REMARK                         _______ _______ _______ _____ _____    ______ ____
ROOT
ATOM      1  C   UNL     1      40.991 -14.767 -16.056  0.00  0.00    +0.032 C 
ENDROOT
BRANCH   1   2
ATOM      2  C   UNL     1      41.284 -14.353 -17.496  0.00  0.00    +0.003 C 
ATOM      3  C   UNL     1      42.056 -13.045 -17.554  0.00  0.00    +0.000 C 
ENDBRANCH   1   2
BRANCH   1   4
ATOM      4  C   UNL     1      41.408 -16.206 -15.789  0.00  0.00    +0.137 C 
BRANCH   4   5
ATOM      5  O   UNL     1      42.790 -16.346 -16.086  0.00  0.00    -0.382 OA
ATOM      6  H   UNL     1      43.313 -15.858 -15.430  0.00  0.00    +0.210 HD
ENDBRANCH   4   5
ENDBRANCH   1   4
TORSDOF 3
ENDMDL
