MODEL 1
REMARK VINA RESULT:      -8.6      0.000      0.000
REMARK  Name = 6604200
REMARK  4 active torsions:
REMARK  status: ('A' for Active; 'I' for Inactive)
REMARK    1  A    between atoms: N_1  and  C_2
REMARK    2  A    between atoms: N_1  and  N_5
REMARK    3  A    between atoms: C_2  and  C_12
REMARK    4  A    between atoms: C_14  and  N_18
REMARK                            x       y       z     vdW  Elec       q    Type
REMARK                         _______ _______ _______ _____ _____    ______ ____
ROOT
ATOM      1  N   UNL     1      36.180 -22.876 -14.025  0.00  0.00    -0.118 NA
ENDROOT
BRANCH   1   4
ATOM      2  O   UNL     1      35.199 -24.934  -9.889  0.00  0.00    -0.273 OA
ATOM      3  O   UNL     1      38.240 -22.306 -12.104  0.00  0.00    -0.251 OA
ATOM      4  N   UNL     1      36.215 -23.304 -12.754  0.00  0.00    -0.181 N 
ATOM      5  N   UNL     1      36.932 -23.603 -10.682  0.00  0.00    -0.237 N 
ATOM      6  C   UNL     1      35.192 -24.129 -12.178  0.00  0.00    +0.199 C 
ATOM      7  C   UNL     1      35.744 -24.290 -10.775  0.00  0.00    +0.251 C 
ATOM      8  C   UNL     1      37.250 -22.987 -11.877  0.00  0.00    +0.325 C 
ATOM      9  H   UNL     1      37.485 -23.556  -9.868  0.00  0.00    +0.159 HD
ENDBRANCH   1   4
BRANCH   1  10
ATOM     10  C   UNL     1      36.159 -23.835 -14.894  0.00  0.00    +0.176 C 
BRANCH  10  12
ATOM     11  O   UNL     1      38.388 -24.669 -14.754  0.00  0.00    -0.436 OA
ATOM     12  C   UNL     1      37.077 -24.960 -14.821  0.00  0.00    +0.144 C 
ATOM     13  C   UNL     1      36.835 -26.293 -14.809  0.00  0.00    +0.040 C 
ATOM     14  C   UNL     1      39.023 -25.870 -14.696  0.00  0.00    +0.289 C 
ATOM     15  C   UNL     1      38.112 -26.899 -14.727  0.00  0.00    +0.066 C 
BRANCH  14  18
ATOM     16  O   UNL     1      40.994 -24.684 -14.612  0.00  0.00    -0.123 OA
ATOM     17  O   UNL     1      41.087 -26.881 -14.560  0.00  0.00    -0.123 OA
ATOM     18  N   UNL     1      40.416 -25.810 -14.620  0.00  0.00    +0.093 N 
ENDBRANCH  14  18
ENDBRANCH  10  12
ENDBRANCH   1  10
TORSDOF 4
ENDMDL
MODEL 2
REMARK VINA RESULT:      -8.4      3.331      4.790
REMARK  Name = 6604200
REMARK  4 active torsions:
REMARK  status: ('A' for Active; 'I' for Inactive)
REMARK    1  A    between atoms: N_1  and  C_2
REMARK    2  A    between atoms: N_1  and  N_5
REMARK    3  A    between atoms: C_2  and  C_12
REMARK    4  A    between atoms: C_14  and  N_18
REMARK                            x       y       z     vdW  Elec       q    Type
REMARK                         _______ _______ _______ _____ _____    ______ ____
ROOT
ATOM      1  N   UNL     1      36.336 -23.184 -14.074  0.00  0.00    -0.118 NA
ENDROOT
BRANCH   1   4
ATOM      2  O   UNL     1      35.244 -24.952  -9.834  0.00  0.00    -0.273 OA
ATOM      3  O   UNL     1      38.097 -22.132 -12.062  0.00  0.00    -0.251 OA
ATOM      4  N   UNL     1      36.304 -23.477 -12.765  0.00  0.00    -0.181 N 
ATOM      5  N   UNL     1      36.846 -23.464 -10.620  0.00  0.00    -0.237 N 
ATOM      6  C   UNL     1      35.353 -24.383 -12.190  0.00  0.00    +0.199 C 
ATOM      7  C   UNL     1      35.780 -24.324 -10.736  0.00  0.00    +0.251 C 
ATOM      8  C   UNL     1      37.193 -22.927 -11.845  0.00  0.00    +0.325 C 
ATOM      9  H   UNL     1      37.304 -23.256  -9.773  0.00  0.00    +0.159 HD
ENDBRANCH   1   4
BRANCH   1  10
ATOM     10  C   UNL     1      35.731 -24.056 -14.815  0.00  0.00    +0.176 C 
BRANCH  10  12
ATOM     11  O   UNL     1      34.858 -23.337 -16.913  0.00  0.00    -0.436 OA
ATOM     12  C   UNL     1      34.593 -23.702 -15.647  0.00  0.00    +0.144 C 
ATOM     13  C   UNL     1      33.268 -23.675 -15.361  0.00  0.00    +0.040 C 
ATOM     14  C   UNL     1      33.649 -23.061 -17.472  0.00  0.00    +0.289 C 
ATOM     15  C   UNL     1      32.640 -23.253 -16.558  0.00  0.00    +0.066 C 
BRANCH  14  18
ATOM     16  O   UNL     1      32.767 -21.908 -19.258  0.00  0.00    -0.123 OA
ATOM     17  O   UNL     1      34.630 -23.037 -19.555  0.00  0.00    -0.123 OA
ATOM     18  N   UNL     1      33.683 -22.655 -18.808  0.00  0.00    +0.093 N 
ENDBRANCH  14  18
ENDBRANCH  10  12
ENDBRANCH   1  10
TORSDOF 4
ENDMDL
MODEL 3
REMARK VINA RESULT:      -8.4      9.421     11.360
REMARK  Name = 6604200
REMARK  4 active torsions:
REMARK  status: ('A' for Active; 'I' for Inactive)
REMARK    1  A    between atoms: N_1  and  C_2
REMARK    2  A    between atoms: N_1  and  N_5
REMARK    3  A    between atoms: C_2  and  C_12
REMARK    4  A    between atoms: C_14  and  N_18
REMARK                            x       y       z     vdW  Elec       q    Type
REMARK                         _______ _______ _______ _____ _____    ______ ____
ROOT
ATOM      1  N   UNL     1      35.358 -17.488 -21.290  0.00  0.00    -0.118 NA
ENDROOT
BRANCH   1   4
ATOM      2  O   UNL     1      34.545 -16.750 -25.883  0.00  0.00    -0.273 OA
ATOM      3  O   UNL     1      34.514 -14.778 -21.739  0.00  0.00    -0.251 OA
ATOM      4  N   UNL     1      35.045 -16.944 -22.476  0.00  0.00    -0.181 N 
ATOM      5  N   UNL     1      34.414 -15.438 -23.969  0.00  0.00    -0.237 N 
ATOM      6  C   UNL     1      35.096 -17.676 -23.709  0.00  0.00    +0.199 C 
ATOM      7  C   UNL     1      34.656 -16.593 -24.675  0.00  0.00    +0.251 C 
ATOM      8  C   UNL     1      34.642 -15.619 -22.618  0.00  0.00    +0.325 C 
ATOM      9  H   UNL     1      34.115 -14.591 -24.373  0.00  0.00    +0.159 HD
ENDBRANCH   1   4
BRANCH   1  10
ATOM     10  C   UNL     1      35.554 -18.766 -21.342  0.00  0.00    +0.176 C 
BRANCH  10  12
ATOM     11  O   UNL     1      35.160 -20.704 -20.011  0.00  0.00    -0.436 OA
ATOM     12  C   UNL     1      34.626 -19.713 -20.746  0.00  0.00    +0.144 C 
ATOM     13  C   UNL     1      33.273 -19.773 -20.803  0.00  0.00    +0.040 C 
ATOM     14  C   UNL     1      34.103 -21.440 -19.573  0.00  0.00    +0.289 C 
ATOM     15  C   UNL     1      32.922 -20.908 -20.032  0.00  0.00    +0.066 C 
BRANCH  14  18
ATOM     16  O   UNL     1      35.393 -22.462 -17.964  0.00  0.00    -0.123 OA
ATOM     17  O   UNL     1      33.750 -23.605 -18.875  0.00  0.00    -0.123 OA
ATOM     18  N   UNL     1      34.427 -22.540 -18.777  0.00  0.00    +0.093 N 
ENDBRANCH  14  18
ENDBRANCH  10  12
ENDBRANCH   1  10
TORSDOF 4
ENDMDL
MODEL 4
REMARK VINA RESULT:      -8.4      9.778     11.701
REMARK  Name = 6604200
REMARK  4 active torsions:
REMARK  status: ('A' for Active; 'I' for Inactive)
REMARK    1  A    between atoms: N_1  and  C_2
REMARK    2  A    between atoms: N_1  and  N_5
REMARK    3  A    between atoms: C_2  and  C_12
REMARK    4  A    between atoms: C_14  and  N_18
REMARK                            x       y       z     vdW  Elec       q    Type
REMARK                         _______ _______ _______ _____ _____    ______ ____
ROOT
ATOM      1  N   UNL     1      35.700 -18.380 -22.975  0.00  0.00    -0.118 NA
ENDROOT
BRANCH   1   4
ATOM      2  O   UNL     1      33.911 -14.021 -23.283  0.00  0.00    -0.273 OA
ATOM      3  O   UNL     1      34.582 -17.934 -25.584  0.00  0.00    -0.251 OA
ATOM      4  N   UNL     1      35.112 -17.251 -23.400  0.00  0.00    -0.181 N 
ATOM      5  N   UNL     1      34.078 -15.825 -24.739  0.00  0.00    -0.237 N 
ATOM      6  C   UNL     1      34.965 -16.088 -22.574  0.00  0.00    +0.199 C 
ATOM      7  C   UNL     1      34.257 -15.164 -23.546  0.00  0.00    +0.251 C 
ATOM      8  C   UNL     1      34.591 -17.107 -24.683  0.00  0.00    +0.325 C 
ATOM      9  H   UNL     1      33.641 -15.436 -25.530  0.00  0.00    +0.159 HD
ENDBRANCH   1   4
BRANCH   1  10
ATOM     10  C   UNL     1      35.695 -18.514 -21.688  0.00  0.00    +0.176 C 
BRANCH  10  12
ATOM     11  O   UNL     1      35.346 -20.488 -20.398  0.00  0.00    -0.436 OA
ATOM     12  C   UNL     1      34.790 -19.430 -21.013  0.00  0.00    +0.144 C 
ATOM     13  C   UNL     1      33.440 -19.404 -20.892  0.00  0.00    +0.040 C 
ATOM     14  C   UNL     1      34.308 -21.178 -19.854  0.00  0.00    +0.289 C 
ATOM     15  C   UNL     1      33.116 -20.552 -20.129  0.00  0.00    +0.066 C 
BRANCH  14  18
ATOM     16  O   UNL     1      35.633 -22.310 -18.350  0.00  0.00    -0.123 OA
ATOM     17  O   UNL     1      33.994 -23.398 -19.332  0.00  0.00    -0.123 OA
ATOM     18  N   UNL     1      34.657 -22.335 -19.155  0.00  0.00    +0.093 N 
ENDBRANCH  14  18
ENDBRANCH  10  12
ENDBRANCH   1  10
TORSDOF 4
ENDMDL
MODEL 5
REMARK VINA RESULT:      -8.3      3.960      6.264
REMARK  Name = 6604200
REMARK  4 active torsions:
REMARK  status: ('A' for Active; 'I' for Inactive)
REMARK    1  A    between atoms: N_1  and  C_2
REMARK    2  A    between atoms: N_1  and  N_5
REMARK    3  A    between atoms: C_2  and  C_12
REMARK    4  A    between atoms: C_14  and  N_18
REMARK                            x       y       z     vdW  Elec       q    Type
REMARK                         _______ _______ _______ _____ _____    ______ ____
ROOT
ATOM      1  N   UNL     1      35.756 -24.498 -15.819  0.00  0.00    -0.118 NA
ENDROOT
BRANCH   1   4
ATOM      2  O   UNL     1      37.291 -26.262 -11.717  0.00  0.00    -0.273 OA
ATOM      3  O   UNL     1      36.674 -27.198 -16.167  0.00  0.00    -0.251 OA
ATOM      4  N   UNL     1      36.255 -25.292 -14.860  0.00  0.00    -0.181 N 
ATOM      5  N   UNL     1      37.123 -27.079 -13.886  0.00  0.00    -0.237 N 
ATOM      6  C   UNL     1      36.396 -24.874 -13.495  0.00  0.00    +0.199 C 
ATOM      7  C   UNL     1      36.989 -26.135 -12.896  0.00  0.00    +0.251 C 
ATOM      8  C   UNL     1      36.682 -26.595 -15.103  0.00  0.00    +0.325 C 
ATOM      9  H   UNL     1      37.485 -27.984 -13.747  0.00  0.00    +0.159 HD
ENDBRANCH   1   4
BRANCH   1  10
ATOM     10  C   UNL     1      34.985 -23.562 -15.368  0.00  0.00    +0.176 C 
BRANCH  10  12
ATOM     11  O   UNL     1      32.808 -24.103 -14.559  0.00  0.00    -0.436 OA
ATOM     12  C   UNL     1      33.544 -23.591 -15.561  0.00  0.00    +0.144 C 
ATOM     13  C   UNL     1      32.788 -23.180 -16.608  0.00  0.00    +0.040 C 
ATOM     14  C   UNL     1      31.517 -24.019 -14.977  0.00  0.00    +0.289 C 
ATOM     15  C   UNL     1      31.452 -23.459 -16.231  0.00  0.00    +0.066 C 
BRANCH  14  18
ATOM     16  O   UNL     1      30.831 -24.547 -12.845  0.00  0.00    -0.123 OA
ATOM     17  O   UNL     1      29.436 -24.886 -14.510  0.00  0.00    -0.123 OA
ATOM     18  N   UNL     1      30.562 -24.501 -14.080  0.00  0.00    +0.093 N 
ENDBRANCH  14  18
ENDBRANCH  10  12
ENDBRANCH   1  10
TORSDOF 4
ENDMDL
MODEL 6
REMARK VINA RESULT:      -8.2      7.140      9.450
REMARK  Name = 6604200
REMARK  4 active torsions:
REMARK  status: ('A' for Active; 'I' for Inactive)
REMARK    1  A    between atoms: N_1  and  C_2
REMARK    2  A    between atoms: N_1  and  N_5
REMARK    3  A    between atoms: C_2  and  C_12
REMARK    4  A    between atoms: C_14  and  N_18
REMARK                            x       y       z     vdW  Elec       q    Type
REMARK                         _______ _______ _______ _____ _____    ______ ____
ROOT
ATOM      1  N   UNL     1      33.103 -22.771 -18.693  0.00  0.00    -0.118 NA
ENDROOT
BRANCH   1   4
ATOM      2  O   UNL     1      36.978 -20.452 -20.074  0.00  0.00    -0.273 OA
ATOM      3  O   UNL     1      32.390 -20.371 -20.104  0.00  0.00    -0.251 OA
ATOM      4  N   UNL     1      33.957 -21.881 -19.221  0.00  0.00    -0.181 N 
ATOM      5  N   UNL     1      34.692 -20.085 -20.283  0.00  0.00    -0.237 N 
ATOM      6  C   UNL     1      35.382 -22.025 -19.142  0.00  0.00    +0.199 C 
ATOM      7  C   UNL     1      35.813 -20.773 -19.882  0.00  0.00    +0.251 C 
ATOM      8  C   UNL     1      33.538 -20.736 -19.894  0.00  0.00    +0.325 C 
ATOM      9  H   UNL     1      34.710 -19.237 -20.783  0.00  0.00    +0.159 HD
ENDBRANCH   1   4
BRANCH   1  10
ATOM     10  C   UNL     1      33.059 -22.743 -17.400  0.00  0.00    +0.176 C 
BRANCH  10  12
ATOM     11  O   UNL     1      30.678 -22.714 -17.289  0.00  0.00    -0.436 OA
ATOM     12  C   UNL     1      31.832 -23.006 -16.665  0.00  0.00    +0.144 C 
ATOM     13  C   UNL     1      31.642 -23.512 -15.422  0.00  0.00    +0.040 C 
ATOM     14  C   UNL     1      29.696 -23.045 -16.408  0.00  0.00    +0.289 C 
ATOM     15  C   UNL     1      30.238 -23.540 -15.246  0.00  0.00    +0.066 C 
BRANCH  14  18
ATOM     16  O   UNL     1      27.864 -21.682 -16.696  0.00  0.00    -0.123 OA
ATOM     17  O   UNL     1      27.747 -23.760 -17.404  0.00  0.00    -0.123 OA
ATOM     18  N   UNL     1      28.391 -22.822 -16.851  0.00  0.00    +0.093 N 
ENDBRANCH  14  18
ENDBRANCH  10  12
ENDBRANCH   1  10
TORSDOF 4
ENDMDL
MODEL 7
REMARK VINA RESULT:      -8.2     10.024     11.736
REMARK  Name = 6604200
REMARK  4 active torsions:
REMARK  status: ('A' for Active; 'I' for Inactive)
REMARK    1  A    between atoms: N_1  and  C_2
REMARK    2  A    between atoms: N_1  and  N_5
REMARK    3  A    between atoms: C_2  and  C_12
REMARK    4  A    between atoms: C_14  and  N_18
REMARK                            x       y       z     vdW  Elec       q    Type
REMARK                         _______ _______ _______ _____ _____    ______ ____
ROOT
ATOM      1  N   UNL     1      35.101 -18.827 -20.688  0.00  0.00    -0.118 NA
ENDROOT
BRANCH   1   4
ATOM      2  O   UNL     1      34.440 -23.264 -19.214  0.00  0.00    -0.273 OA
ATOM      3  O   UNL     1      32.303 -19.481 -20.691  0.00  0.00    -0.251 OA
ATOM      4  N   UNL     1      34.564 -20.003 -20.327  0.00  0.00    -0.181 N 
ATOM      5  N   UNL     1      33.037 -21.550 -19.918  0.00  0.00    -0.237 N 
ATOM      6  C   UNL     1      35.350 -21.116 -19.879  0.00  0.00    +0.199 C 
ATOM      7  C   UNL     1      34.250 -22.126 -19.620  0.00  0.00    +0.251 C 
ATOM      8  C   UNL     1      33.194 -20.249 -20.354  0.00  0.00    +0.325 C 
ATOM      9  H   UNL     1      32.168 -22.006 -19.832  0.00  0.00    +0.159 HD
ENDBRANCH   1   4
BRANCH   1  10
ATOM     10  C   UNL     1      35.782 -18.885 -21.787  0.00  0.00    +0.176 C 
BRANCH  10  12
ATOM     11  O   UNL     1      34.935 -17.264 -23.316  0.00  0.00    -0.436 OA
ATOM     12  C   UNL     1      35.193 -18.561 -23.076  0.00  0.00    +0.144 C 
ATOM     13  C   UNL     1      34.847 -19.363 -24.112  0.00  0.00    +0.040 C 
ATOM     14  C   UNL     1      34.398 -17.225 -24.564  0.00  0.00    +0.289 C 
ATOM     15  C   UNL     1      34.323 -18.491 -25.096  0.00  0.00    +0.066 C 
BRANCH  14  18
ATOM     16  O   UNL     1      33.868 -15.771 -26.267  0.00  0.00    -0.123 OA
ATOM     17  O   UNL     1      33.911 -15.003 -24.207  0.00  0.00    -0.123 OA
ATOM     18  N   UNL     1      34.047 -15.956 -25.029  0.00  0.00    +0.093 N 
ENDBRANCH  14  18
ENDBRANCH  10  12
ENDBRANCH   1  10
TORSDOF 4
ENDMDL
MODEL 8
REMARK VINA RESULT:      -8.2     10.080     11.972
REMARK  Name = 6604200
REMARK  4 active torsions:
REMARK  status: ('A' for Active; 'I' for Inactive)
REMARK    1  A    between atoms: N_1  and  C_2
REMARK    2  A    between atoms: N_1  and  N_5
REMARK    3  A    between atoms: C_2  and  C_12
REMARK    4  A    between atoms: C_14  and  N_18
REMARK                            x       y       z     vdW  Elec       q    Type
REMARK                         _______ _______ _______ _____ _____    ______ ____
ROOT
ATOM      1  N   UNL     1      35.377 -17.512 -22.412  0.00  0.00    -0.118 NA
ENDROOT
BRANCH   1   4
ATOM      2  O   UNL     1      33.495 -15.901 -26.432  0.00  0.00    -0.273 OA
ATOM      3  O   UNL     1      34.544 -14.779 -22.108  0.00  0.00    -0.251 OA
ATOM      4  N   UNL     1      34.804 -16.751 -23.357  0.00  0.00    -0.181 N 
ATOM      5  N   UNL     1      33.881 -14.991 -24.329  0.00  0.00    -0.237 N 
ATOM      6  C   UNL     1      34.527 -17.227 -24.682  0.00  0.00    +0.199 C 
ATOM      7  C   UNL     1      33.903 -15.982 -25.282  0.00  0.00    +0.251 C 
ATOM      8  C   UNL     1      34.425 -15.429 -23.138  0.00  0.00    +0.325 C 
ATOM      9  H   UNL     1      33.523 -14.085 -24.476  0.00  0.00    +0.159 HD
ENDBRANCH   1   4
BRANCH   1  10
ATOM     10  C   UNL     1      34.529 -18.190 -21.709  0.00  0.00    +0.176 C 
BRANCH  10  12
ATOM     11  O   UNL     1      33.934 -20.197 -20.567  0.00  0.00    -0.436 OA
ATOM     12  C   UNL     1      34.921 -19.373 -20.960  0.00  0.00    +0.144 C 
ATOM     13  C   UNL     1      36.147 -19.805 -20.576  0.00  0.00    +0.040 C 
ATOM     14  C   UNL     1      34.550 -21.208 -19.898  0.00  0.00    +0.289 C 
ATOM     15  C   UNL     1      35.911 -21.013 -19.877  0.00  0.00    +0.066 C 
BRANCH  14  18
ATOM     16  O   UNL     1      32.584 -21.871 -18.901  0.00  0.00    -0.123 OA
ATOM     17  O   UNL     1      34.064 -23.409 -19.429  0.00  0.00    -0.123 OA
ATOM     18  N   UNL     1      33.704 -22.197 -19.392  0.00  0.00    +0.093 N 
ENDBRANCH  14  18
ENDBRANCH  10  12
ENDBRANCH   1  10
TORSDOF 4
ENDMDL
MODEL 9
REMARK VINA RESULT:      -8.1      3.401      5.616
REMARK  Name = 6604200
REMARK  4 active torsions:
REMARK  status: ('A' for Active; 'I' for Inactive)
REMARK    1  A    between atoms: N_1  and  C_2
REMARK    2  A    between atoms: N_1  and  N_5
REMARK    3  A    between atoms: C_2  and  C_12
REMARK    4  A    between atoms: C_14  and  N_18
REMARK                            x       y       z     vdW  Elec       q    Type
REMARK                         _______ _______ _______ _____ _____    ______ ____
ROOT
ATOM      1  N   UNL     1      37.090 -23.431 -13.971  0.00  0.00    -0.118 NA
ENDROOT
BRANCH   1   4
ATOM      2  O   UNL     1      40.648 -26.206 -15.362  0.00  0.00    -0.273 OA
ATOM      3  O   UNL     1      37.714 -25.361 -11.935  0.00  0.00    -0.251 OA
ATOM      4  N   UNL     1      38.046 -24.369 -14.039  0.00  0.00    -0.181 N 
ATOM      5  N   UNL     1      39.335 -26.068 -13.449  0.00  0.00    -0.237 N 
ATOM      6  C   UNL     1      38.904 -24.529 -15.178  0.00  0.00    +0.199 C 
ATOM      7  C   UNL     1      39.749 -25.697 -14.706  0.00  0.00    +0.251 C 
ATOM      8  C   UNL     1      38.293 -25.275 -13.010  0.00  0.00    +0.325 C 
ATOM      9  H   UNL     1      39.730 -26.803 -12.927  0.00  0.00    +0.159 HD
ENDBRANCH   1   4
BRANCH   1  10
ATOM     10  C   UNL     1      36.750 -22.952 -15.124  0.00  0.00    +0.176 C 
BRANCH  10  12
ATOM     11  O   UNL     1      35.250 -22.931 -16.977  0.00  0.00    -0.436 OA
ATOM     12  C   UNL     1      35.403 -23.097 -15.651  0.00  0.00    +0.144 C 
ATOM     13  C   UNL     1      34.237 -23.378 -15.021  0.00  0.00    +0.040 C 
ATOM     14  C   UNL     1      33.924 -23.114 -17.214  0.00  0.00    +0.289 C 
ATOM     15  C   UNL     1      33.258 -23.391 -16.044  0.00  0.00    +0.066 C 
BRANCH  14  18
ATOM     16  O   UNL     1      33.974 -23.797 -19.412  0.00  0.00    -0.123 OA
ATOM     17  O   UNL     1      32.729 -22.064 -18.879  0.00  0.00    -0.123 OA
ATOM     18  N   UNL     1      33.529 -22.987 -18.548  0.00  0.00    +0.093 N 
ENDBRANCH  14  18
ENDBRANCH  10  12
ENDBRANCH   1  10
TORSDOF 4
ENDMDL
