MODEL 1
REMARK VINA RESULT:      -8.3      0.000      0.000
REMARK  Name = 444552
REMARK  6 active torsions:
REMARK  status: ('A' for Active; 'I' for Inactive)
REMARK    1  A    between atoms: C_2  and  O_15
REMARK    2  A    between atoms: C_3  and  O_7
REMARK    3  A    between atoms: C_4  and  O_9
REMARK    4  A    between atoms: C_6  and  C_12
REMARK    5  A    between atoms: C_12  and  O_13
REMARK    6  A    between atoms: O_15  and  S_16
REMARK                            x       y       z     vdW  Elec       q    Type
REMARK                         _______ _______ _______ _____ _____    ______ ____
ROOT
ATOM      1  O   UNL     1      38.656 -24.275 -14.030  0.00  0.00    -0.444 OA
ATOM      2  C   UNL     1      36.364 -25.165 -13.793  0.00  0.00    +0.248 C 
ATOM      3  C   UNL     1      36.763 -26.464 -14.501  0.00  0.00    +0.172 C 
ATOM      4  C   UNL     1      37.259 -23.994 -14.213  0.00  0.00    +0.318 C 
ATOM      5  C   UNL     1      38.248 -26.561 -14.679  0.00  0.00    +0.049 C 
ATOM      6  C   UNL     1      39.062 -25.528 -14.421  0.00  0.00    +0.214 C 
ENDROOT
BRANCH   3   7
ATOM      7  O   UNL     1      36.145 -26.507 -15.785  0.00  0.00    -0.377 OA
ATOM      8  H   UNL     1      36.238 -25.644 -16.218  0.00  0.00    +0.211 HD
ENDBRANCH   3   7
BRANCH   4   9
ATOM      9  O   UNL     1      36.975 -23.640 -15.565  0.00  0.00    -0.348 OA
ATOM     10  H   UNL     1      37.642 -23.009 -15.881  0.00  0.00    +0.214 HD
ENDBRANCH   4   9
BRANCH   6  12
ATOM     11  O   UNL     1      41.036 -26.839 -14.607  0.00  0.00    -0.242 OA
ATOM     12  C   UNL     1      40.503 -25.744 -14.564  0.00  0.00    +0.372 C 
BRANCH  12  13
ATOM     13  O   UNL     1      41.136 -24.555 -14.637  0.00  0.00    -0.475 OA
ATOM     14  H   UNL     1      40.726 -23.784 -14.295  0.00  0.00    +0.296 HD
ENDBRANCH  12  13
ENDBRANCH   6  12
BRANCH   2  15
ATOM     15  O   UNL     1      36.490 -25.332 -12.381  0.00  0.00    -0.193 OA
BRANCH  15  16
ATOM     16  S   UNL     1      35.791 -24.251 -11.378  0.00  0.00    +0.239 S 
ATOM     17  O   UNL     1      35.262 -25.167 -10.136  0.00  0.00    -0.116 OA
ATOM     18  O   UNL     1      36.841 -23.389 -10.869  0.00  0.00    -0.116 OA
ATOM     19  O   UNL     1      34.631 -23.676 -12.034  0.00  0.00    -0.022 OA
ENDBRANCH  15  16
ENDBRANCH   2  15
TORSDOF 6
ENDMDL
MODEL 2
REMARK VINA RESULT:      -8.3      1.874      5.050
REMARK  Name = 444552
REMARK  6 active torsions:
REMARK  status: ('A' for Active; 'I' for Inactive)
REMARK    1  A    between atoms: C_2  and  O_15
REMARK    2  A    between atoms: C_3  and  O_7
REMARK    3  A    between atoms: C_4  and  O_9
REMARK    4  A    between atoms: C_6  and  C_12
REMARK    5  A    between atoms: C_12  and  O_13
REMARK    6  A    between atoms: O_15  and  S_16
REMARK                            x       y       z     vdW  Elec       q    Type
REMARK                         _______ _______ _______ _____ _____    ______ ____
ROOT
ATOM      1  O   UNL     1      36.573 -26.242 -12.820  0.00  0.00    -0.444 OA
ATOM      2  C   UNL     1      38.054 -25.623 -14.698  0.00  0.00    +0.248 C 
ATOM      3  C   UNL     1      37.408 -24.236 -14.789  0.00  0.00    +0.172 C 
ATOM      4  C   UNL     1      37.094 -26.655 -14.094  0.00  0.00    +0.318 C 
ATOM      5  C   UNL     1      36.513 -23.968 -13.618  0.00  0.00    +0.049 C 
ATOM      6  C   UNL     1      36.189 -24.925 -12.738  0.00  0.00    +0.214 C 
ENDROOT
BRANCH   3   7
ATOM      7  O   UNL     1      36.635 -24.156 -15.984  0.00  0.00    -0.377 OA
ATOM      8  H   UNL     1      37.220 -23.976 -16.736  0.00  0.00    +0.211 HD
ENDBRANCH   3   7
BRANCH   4   9
ATOM      9  O   UNL     1      36.044 -26.927 -15.018  0.00  0.00    -0.348 OA
ATOM     10  H   UNL     1      36.424 -27.152 -15.882  0.00  0.00    +0.214 HD
ENDBRANCH   4   9
BRANCH   6  12
ATOM     11  O   UNL     1      35.421 -25.068 -10.492  0.00  0.00    -0.242 OA
ATOM     12  C   UNL     1      35.361 -24.546 -11.592  0.00  0.00    +0.372 C 
BRANCH  12  13
ATOM     13  O   UNL     1      34.531 -23.541 -11.944  0.00  0.00    -0.475 OA
ATOM     14  H   UNL     1      33.887 -23.231 -11.337  0.00  0.00    +0.296 HD
ENDBRANCH  12  13
ENDBRANCH   6  12
BRANCH   2  15
ATOM     15  O   UNL     1      39.212 -25.559 -13.867  0.00  0.00    -0.193 OA
BRANCH  15  16
ATOM     16  S   UNL     1      40.693 -25.695 -14.540  0.00  0.00    +0.239 S 
ATOM     17  O   UNL     1      40.374 -25.992 -16.112  0.00  0.00    -0.116 OA
ATOM     18  O   UNL     1      41.326 -24.392 -14.461  0.00  0.00    -0.116 OA
ATOM     19  O   UNL     1      41.357 -26.863 -13.992  0.00  0.00    -0.022 OA
ENDBRANCH  15  16
ENDBRANCH   2  15
TORSDOF 6
ENDMDL
MODEL 3
REMARK VINA RESULT:      -7.4      2.288      4.411
REMARK  Name = 444552
REMARK  6 active torsions:
REMARK  status: ('A' for Active; 'I' for Inactive)
REMARK    1  A    between atoms: C_2  and  O_15
REMARK    2  A    between atoms: C_3  and  O_7
REMARK    3  A    between atoms: C_4  and  O_9
REMARK    4  A    between atoms: C_6  and  C_12
REMARK    5  A    between atoms: C_12  and  O_13
REMARK    6  A    between atoms: O_15  and  S_16
REMARK                            x       y       z     vdW  Elec       q    Type
REMARK                         _______ _______ _______ _____ _____    ______ ____
ROOT
ATOM      1  O   UNL     1      34.909 -24.753 -15.424  0.00  0.00    -0.444 OA
ATOM      2  C   UNL     1      36.902 -24.201 -14.073  0.00  0.00    +0.248 C 
ATOM      3  C   UNL     1      37.260 -23.049 -15.019  0.00  0.00    +0.172 C 
ATOM      4  C   UNL     1      36.082 -25.283 -14.785  0.00  0.00    +0.318 C 
ATOM      5  C   UNL     1      36.152 -22.765 -15.986  0.00  0.00    +0.049 C 
ATOM      6  C   UNL     1      35.089 -23.573 -16.105  0.00  0.00    +0.214 C 
ENDROOT
BRANCH   3   7
ATOM      7  O   UNL     1      38.432 -23.394 -15.754  0.00  0.00    -0.377 OA
ATOM      8  H   UNL     1      38.207 -23.495 -16.692  0.00  0.00    +0.211 HD
ENDBRANCH   3   7
BRANCH   4   9
ATOM      9  O   UNL     1      36.912 -25.972 -15.716  0.00  0.00    -0.348 OA
ATOM     10  H   UNL     1      37.624 -26.428 -15.240  0.00  0.00    +0.214 HD
ENDBRANCH   4   9
BRANCH   6  12
ATOM     11  O   UNL     1      32.838 -23.201 -16.773  0.00  0.00    -0.242 OA
ATOM     12  C   UNL     1      34.029 -23.174 -17.032  0.00  0.00    +0.372 C 
BRANCH  12  13
ATOM     13  O   UNL     1      34.573 -22.777 -18.201  0.00  0.00    -0.475 OA
ATOM     14  H   UNL     1      35.229 -23.303 -18.615  0.00  0.00    +0.296 HD
ENDBRANCH  12  13
ENDBRANCH   6  12
BRANCH   2  15
ATOM     15  O   UNL     1      36.123 -23.702 -12.985  0.00  0.00    -0.193 OA
BRANCH  15  16
ATOM     16  S   UNL     1      36.620 -23.966 -11.453  0.00  0.00    +0.239 S 
ATOM     17  O   UNL     1      37.743 -25.139 -11.611  0.00  0.00    -0.116 OA
ATOM     18  O   UNL     1      37.302 -22.766 -11.007  0.00  0.00    -0.116 OA
ATOM     19  O   UNL     1      35.516 -24.506 -10.683  0.00  0.00    -0.022 OA
ENDBRANCH  15  16
ENDBRANCH   2  15
TORSDOF 6
ENDMDL
MODEL 4
REMARK VINA RESULT:      -7.3      1.896      3.700
REMARK  Name = 444552
REMARK  6 active torsions:
REMARK  status: ('A' for Active; 'I' for Inactive)
REMARK    1  A    between atoms: C_2  and  O_15
REMARK    2  A    between atoms: C_3  and  O_7
REMARK    3  A    between atoms: C_4  and  O_9
REMARK    4  A    between atoms: C_6  and  C_12
REMARK    5  A    between atoms: C_12  and  O_13
REMARK    6  A    between atoms: O_15  and  S_16
REMARK                            x       y       z     vdW  Elec       q    Type
REMARK                         _______ _______ _______ _____ _____    ______ ____
ROOT
ATOM      1  O   UNL     1      35.460 -23.721 -15.760  0.00  0.00    -0.444 OA
ATOM      2  C   UNL     1      36.787 -24.749 -13.948  0.00  0.00    +0.248 C 
ATOM      3  C   UNL     1      38.091 -24.237 -14.571  0.00  0.00    +0.172 C 
ATOM      4  C   UNL     1      35.686 -24.920 -15.000  0.00  0.00    +0.318 C 
ATOM      5  C   UNL     1      37.825 -23.262 -15.678  0.00  0.00    +0.049 C 
ATOM      6  C   UNL     1      36.592 -23.054 -16.161  0.00  0.00    +0.214 C 
ENDROOT
BRANCH   3   7
ATOM      7  O   UNL     1      38.823 -25.340 -15.098  0.00  0.00    -0.377 OA
ATOM      8  H   UNL     1      38.962 -26.000 -14.401  0.00  0.00    +0.211 HD
ENDBRANCH   3   7
BRANCH   4   9
ATOM      9  O   UNL     1      36.006 -26.019 -15.850  0.00  0.00    -0.348 OA
ATOM     10  H   UNL     1      36.963 -26.034 -16.012  0.00  0.00    +0.214 HD
ENDBRANCH   4   9
BRANCH   6  12
ATOM     11  O   UNL     1      35.743 -22.167 -18.196  0.00  0.00    -0.242 OA
ATOM     12  C   UNL     1      36.429 -22.034 -17.198  0.00  0.00    +0.372 C 
BRANCH  12  13
ATOM     13  O   UNL     1      37.151 -20.940 -16.877  0.00  0.00    -0.475 OA
ATOM     14  H   UNL     1      36.865 -20.376 -16.184  0.00  0.00    +0.296 HD
ENDBRANCH  12  13
ENDBRANCH   6  12
BRANCH   2  15
ATOM     15  O   UNL     1      36.324 -23.816 -12.972  0.00  0.00    -0.193 OA
BRANCH  15  16
ATOM     16  S   UNL     1      36.834 -23.946 -11.428  0.00  0.00    +0.239 S 
ATOM     17  O   UNL     1      35.498 -24.421 -10.621  0.00  0.00    -0.116 OA
ATOM     18  O   UNL     1      37.787 -25.040 -11.377  0.00  0.00    -0.116 OA
ATOM     19  O   UNL     1      37.207 -22.632 -10.939  0.00  0.00    -0.022 OA
ENDBRANCH  15  16
ENDBRANCH   2  15
TORSDOF 6
ENDMDL
MODEL 5
REMARK VINA RESULT:      -7.2      1.961      3.329
REMARK  Name = 444552
REMARK  6 active torsions:
REMARK  status: ('A' for Active; 'I' for Inactive)
REMARK    1  A    between atoms: C_2  and  O_15
REMARK    2  A    between atoms: C_3  and  O_7
REMARK    3  A    between atoms: C_4  and  O_9
REMARK    4  A    between atoms: C_6  and  C_12
REMARK    5  A    between atoms: C_12  and  O_13
REMARK    6  A    between atoms: O_15  and  S_16
REMARK                            x       y       z     vdW  Elec       q    Type
REMARK                         _______ _______ _______ _____ _____    ______ ____
ROOT
ATOM      1  O   UNL     1      38.215 -26.430 -15.339  0.00  0.00    -0.444 OA
ATOM      2  C   UNL     1      36.033 -25.493 -14.657  0.00  0.00    +0.248 C 
ATOM      3  C   UNL     1      36.667 -24.837 -13.425  0.00  0.00    +0.172 C 
ATOM      4  C   UNL     1      36.826 -26.723 -15.113  0.00  0.00    +0.318 C 
ATOM      5  C   UNL     1      38.163 -24.904 -13.473  0.00  0.00    +0.049 C 
ATOM      6  C   UNL     1      38.812 -25.633 -14.393  0.00  0.00    +0.214 C 
ENDROOT
BRANCH   3   7
ATOM      7  O   UNL     1      36.217 -25.511 -12.252  0.00  0.00    -0.377 OA
ATOM      8  H   UNL     1      35.633 -24.925 -11.746  0.00  0.00    +0.211 HD
ENDBRANCH   3   7
BRANCH   4   9
ATOM      9  O   UNL     1      36.666 -27.772 -14.161  0.00  0.00    -0.348 OA
ATOM     10  H   UNL     1      36.889 -27.442 -13.276  0.00  0.00    +0.214 HD
ENDBRANCH   4   9
BRANCH   6  12
ATOM     11  O   UNL     1      40.930 -24.577 -14.174  0.00  0.00    -0.242 OA
ATOM     12  C   UNL     1      40.274 -25.581 -14.396  0.00  0.00    +0.372 C 
BRANCH  12  13
ATOM     13  O   UNL     1      40.773 -26.802 -14.680  0.00  0.00    -0.475 OA
ATOM     14  H   UNL     1      41.192 -27.305 -14.009  0.00  0.00    +0.296 HD
ENDBRANCH  12  13
ENDBRANCH   6  12
BRANCH   2  15
ATOM     15  O   UNL     1      36.008 -24.559 -15.736  0.00  0.00    -0.193 OA
BRANCH  15  16
ATOM     16  S   UNL     1      34.777 -23.493 -15.849  0.00  0.00    +0.239 S 
ATOM     17  O   UNL     1      33.616 -24.148 -14.909  0.00  0.00    -0.116 OA
ATOM     18  O   UNL     1      35.211 -22.263 -15.215  0.00  0.00    -0.116 OA
ATOM     19  O   UNL     1      34.289 -23.477 -17.216  0.00  0.00    -0.022 OA
ENDBRANCH  15  16
ENDBRANCH   2  15
TORSDOF 6
ENDMDL
MODEL 6
REMARK VINA RESULT:      -7.1      2.194      4.976
REMARK  Name = 444552
REMARK  6 active torsions:
REMARK  status: ('A' for Active; 'I' for Inactive)
REMARK    1  A    between atoms: C_2  and  O_15
REMARK    2  A    between atoms: C_3  and  O_7
REMARK    3  A    between atoms: C_4  and  O_9
REMARK    4  A    between atoms: C_6  and  C_12
REMARK    5  A    between atoms: C_12  and  O_13
REMARK    6  A    between atoms: O_15  and  S_16
REMARK                            x       y       z     vdW  Elec       q    Type
REMARK                         _______ _______ _______ _____ _____    ______ ____
ROOT
ATOM      1  O   UNL     1      36.507 -23.503 -13.716  0.00  0.00    -0.444 OA
ATOM      2  C   UNL     1      38.159 -25.328 -13.513  0.00  0.00    +0.248 C 
ATOM      3  C   UNL     1      37.232 -26.291 -14.262  0.00  0.00    +0.172 C 
ATOM      4  C   UNL     1      37.372 -24.213 -12.815  0.00  0.00    +0.318 C 
ATOM      5  C   UNL     1      36.069 -25.571 -14.874  0.00  0.00    +0.049 C 
ATOM      6  C   UNL     1      35.806 -24.285 -14.602  0.00  0.00    +0.214 C 
ENDROOT
BRANCH   3   7
ATOM      7  O   UNL     1      36.736 -27.269 -13.350  0.00  0.00    -0.377 OA
ATOM      8  H   UNL     1      37.480 -27.748 -12.955  0.00  0.00    +0.211 HD
ENDBRANCH   3   7
BRANCH   4   9
ATOM      9  O   UNL     1      36.642 -24.760 -11.720  0.00  0.00    -0.348 OA
ATOM     10  H   UNL     1      35.786 -24.310 -11.644  0.00  0.00    +0.214 HD
ENDBRANCH   4   9
BRANCH   6  12
ATOM     11  O   UNL     1      34.511 -23.697 -16.507  0.00  0.00    -0.242 OA
ATOM     12  C   UNL     1      34.685 -23.656 -15.301  0.00  0.00    +0.372 C 
BRANCH  12  13
ATOM     13  O   UNL     1      33.887 -23.030 -14.410  0.00  0.00    -0.475 OA
ATOM     14  H   UNL     1      34.181 -22.899 -13.529  0.00  0.00    +0.296 HD
ENDBRANCH  12  13
ENDBRANCH   6  12
BRANCH   2  15
ATOM     15  O   UNL     1      39.062 -24.719 -14.435  0.00  0.00    -0.193 OA
BRANCH  15  16
ATOM     16  S   UNL     1      40.549 -25.359 -14.647  0.00  0.00    +0.239 S 
ATOM     17  O   UNL     1      40.478 -26.005 -16.143  0.00  0.00    -0.116 OA
ATOM     18  O   UNL     1      41.492 -24.257 -14.692  0.00  0.00    -0.116 OA
ATOM     19  O   UNL     1      40.737 -26.443 -13.701  0.00  0.00    -0.022 OA
ENDBRANCH  15  16
ENDBRANCH   2  15
TORSDOF 6
ENDMDL
MODEL 7
REMARK VINA RESULT:      -6.7      6.440      8.161
REMARK  Name = 444552
REMARK  6 active torsions:
REMARK  status: ('A' for Active; 'I' for Inactive)
REMARK    1  A    between atoms: C_2  and  O_15
REMARK    2  A    between atoms: C_3  and  O_7
REMARK    3  A    between atoms: C_4  and  O_9
REMARK    4  A    between atoms: C_6  and  C_12
REMARK    5  A    between atoms: C_12  and  O_13
REMARK    6  A    between atoms: O_15  and  S_16
REMARK                            x       y       z     vdW  Elec       q    Type
REMARK                         _______ _______ _______ _____ _____    ______ ____
ROOT
ATOM      1  O   UNL     1      31.526 -24.241 -16.391  0.00  0.00    -0.444 OA
ATOM      2  C   UNL     1      29.607 -23.543 -15.001  0.00  0.00    +0.248 C 
ATOM      3  C   UNL     1      30.547 -22.910 -13.969  0.00  0.00    +0.172 C 
ATOM      4  C   UNL     1      30.298 -24.669 -15.780  0.00  0.00    +0.318 C 
ATOM      5  C   UNL     1      31.956 -22.842 -14.476  0.00  0.00    +0.049 C 
ATOM      6  C   UNL     1      32.334 -23.454 -15.607  0.00  0.00    +0.214 C 
ENDROOT
BRANCH   3   7
ATOM      7  O   UNL     1      30.527 -23.692 -12.776  0.00  0.00    -0.377 OA
ATOM      8  H   UNL     1      31.381 -24.138 -12.668  0.00  0.00    +0.211 HD
ENDBRANCH   3   7
BRANCH   4   9
ATOM      9  O   UNL     1      30.510 -25.783 -14.917  0.00  0.00    -0.348 OA
ATOM     10  H   UNL     1      30.847 -26.533 -15.433  0.00  0.00    +0.214 HD
ENDBRANCH   4   9
BRANCH   6  12
ATOM     11  O   UNL     1      34.133 -23.572 -17.156  0.00  0.00    -0.242 OA
ATOM     12  C   UNL     1      33.717 -23.272 -16.050  0.00  0.00    +0.372 C 
BRANCH  12  13
ATOM     13  O   UNL     1      34.446 -22.729 -15.053  0.00  0.00    -0.475 OA
ATOM     14  H   UNL     1      34.125 -22.751 -14.173  0.00  0.00    +0.296 HD
ENDBRANCH  12  13
ENDBRANCH   6  12
BRANCH   2  15
ATOM     15  O   UNL     1      29.188 -22.551 -15.939  0.00  0.00    -0.193 OA
BRANCH  15  16
ATOM     16  S   UNL     1      27.655 -22.569 -16.497  0.00  0.00    +0.239 S 
ATOM     17  O   UNL     1      27.617 -23.879 -17.470  0.00  0.00    -0.116 OA
ATOM     18  O   UNL     1      26.786 -22.839 -15.368  0.00  0.00    -0.116 OA
ATOM     19  O   UNL     1      27.437 -21.395 -17.322  0.00  0.00    -0.022 OA
ENDBRANCH  15  16
ENDBRANCH   2  15
TORSDOF 6
ENDMDL
MODEL 8
REMARK VINA RESULT:      -6.6      2.783      4.131
REMARK  Name = 444552
REMARK  6 active torsions:
REMARK  status: ('A' for Active; 'I' for Inactive)
REMARK    1  A    between atoms: C_2  and  O_15
REMARK    2  A    between atoms: C_3  and  O_7
REMARK    3  A    between atoms: C_4  and  O_9
REMARK    4  A    between atoms: C_6  and  C_12
REMARK    5  A    between atoms: C_12  and  O_13
REMARK    6  A    between atoms: O_15  and  S_16
REMARK                            x       y       z     vdW  Elec       q    Type
REMARK                         _______ _______ _______ _____ _____    ______ ____
ROOT
ATOM      1  O   UNL     1      35.667 -24.176 -15.936  0.00  0.00    -0.444 OA
ATOM      2  C   UNL     1      34.330 -24.668 -13.918  0.00  0.00    +0.248 C 
ATOM      3  C   UNL     1      35.474 -24.201 -13.010  0.00  0.00    +0.172 C 
ATOM      4  C   UNL     1      34.850 -25.156 -15.276  0.00  0.00    +0.318 C 
ATOM      5  C   UNL     1      36.554 -23.518 -13.793  0.00  0.00    +0.049 C 
ATOM      6  C   UNL     1      36.571 -23.523 -15.134  0.00  0.00    +0.214 C 
ENDROOT
BRANCH   3   7
ATOM      7  O   UNL     1      36.035 -25.330 -12.344  0.00  0.00    -0.377 OA
ATOM      8  H   UNL     1      35.622 -25.429 -11.473  0.00  0.00    +0.211 HD
ENDBRANCH   3   7
BRANCH   4   9
ATOM      9  O   UNL     1      35.551 -26.385 -15.103  0.00  0.00    -0.348 OA
ATOM     10  H   UNL     1      35.811 -26.734 -15.970  0.00  0.00    +0.214 HD
ENDBRANCH   4   9
BRANCH   6  12
ATOM     11  O   UNL     1      37.503 -21.650 -16.262  0.00  0.00    -0.242 OA
ATOM     12  C   UNL     1      37.633 -22.772 -15.805  0.00  0.00    +0.372 C 
BRANCH  12  13
ATOM     13  O   UNL     1      38.762 -23.511 -15.835  0.00  0.00    -0.475 OA
ATOM     14  H   UNL     1      39.120 -23.786 -16.657  0.00  0.00    +0.296 HD
ENDBRANCH  12  13
ENDBRANCH   6  12
BRANCH   2  15
ATOM     15  O   UNL     1      33.432 -23.585 -14.153  0.00  0.00    -0.193 OA
BRANCH  15  16
ATOM     16  S   UNL     1      31.822 -23.847 -14.090  0.00  0.00    +0.239 S 
ATOM     17  O   UNL     1      31.702 -25.471 -13.997  0.00  0.00    -0.116 OA
ATOM     18  O   UNL     1      31.343 -23.300 -12.835  0.00  0.00    -0.116 OA
ATOM     19  O   UNL     1      31.224 -23.427 -15.344  0.00  0.00    -0.022 OA
ENDBRANCH  15  16
ENDBRANCH   2  15
TORSDOF 6
ENDMDL
MODEL 9
REMARK VINA RESULT:      -6.6      2.748      3.790
REMARK  Name = 444552
REMARK  6 active torsions:
REMARK  status: ('A' for Active; 'I' for Inactive)
REMARK    1  A    between atoms: C_2  and  O_15
REMARK    2  A    between atoms: C_3  and  O_7
REMARK    3  A    between atoms: C_4  and  O_9
REMARK    4  A    between atoms: C_6  and  C_12
REMARK    5  A    between atoms: C_12  and  O_13
REMARK    6  A    between atoms: O_15  and  S_16
REMARK                            x       y       z     vdW  Elec       q    Type
REMARK                         _______ _______ _______ _____ _____    ______ ____
ROOT
ATOM      1  O   UNL     1      37.180 -22.706 -13.931  0.00  0.00    -0.444 OA
ATOM      2  C   UNL     1      35.499 -23.796 -15.377  0.00  0.00    +0.248 C 
ATOM      3  C   UNL     1      35.830 -25.167 -14.778  0.00  0.00    +0.172 C 
ATOM      4  C   UNL     1      36.688 -22.833 -15.275  0.00  0.00    +0.318 C 
ATOM      5  C   UNL     1      36.713 -25.044 -13.574  0.00  0.00    +0.049 C 
ATOM      6  C   UNL     1      37.281 -23.881 -13.226  0.00  0.00    +0.214 C 
ENDROOT
BRANCH   3   7
ATOM      7  O   UNL     1      36.500 -25.957 -15.758  0.00  0.00    -0.377 OA
ATOM      8  H   UNL     1      35.927 -26.065 -16.533  0.00  0.00    +0.211 HD
ENDBRANCH   3   7
BRANCH   4   9
ATOM      9  O   UNL     1      37.718 -23.254 -16.166  0.00  0.00    -0.348 OA
ATOM     10  H   UNL     1      37.544 -22.900 -17.053  0.00  0.00    +0.214 HD
ENDBRANCH   4   9
BRANCH   6  12
ATOM     11  O   UNL     1      38.822 -22.942 -11.678  0.00  0.00    -0.242 OA
ATOM     12  C   UNL     1      38.074 -23.850 -11.996  0.00  0.00    +0.372 C 
BRANCH  12  13
ATOM     13  O   UNL     1      37.848 -24.973 -11.281  0.00  0.00    -0.475 OA
ATOM     14  H   UNL     1      37.880 -25.810 -11.702  0.00  0.00    +0.296 HD
ENDBRANCH  12  13
ENDBRANCH   6  12
BRANCH   2  15
ATOM     15  O   UNL     1      34.402 -23.217 -14.671  0.00  0.00    -0.193 OA
BRANCH  15  16
ATOM     16  S   UNL     1      32.877 -23.653 -15.057  0.00  0.00    +0.239 S 
ATOM     17  O   UNL     1      31.968 -22.437 -14.461  0.00  0.00    -0.116 OA
ATOM     18  O   UNL     1      32.768 -23.611 -16.503  0.00  0.00    -0.116 OA
ATOM     19  O   UNL     1      32.533 -24.863 -14.334  0.00  0.00    -0.022 OA
ENDBRANCH  15  16
ENDBRANCH   2  15
TORSDOF 6
ENDMDL
