MODEL 1
REMARK VINA RESULT:      -8.1      0.000      0.000
REMARK  Name = 65077
REMARK  3 active torsions:
REMARK  status: ('A' for Active; 'I' for Inactive)
REMARK    1  A    between atoms: C_3  and  N_17
REMARK    2  A    between atoms: C_4  and  S_11
REMARK    3  A    between atoms: S_11  and  N_14
REMARK                            x       y       z     vdW  Elec       q    Type
REMARK                         _______ _______ _______ _____ _____    ______ ____
ROOT
ATOM      1  C   UNL     1      34.759 -16.890 -22.123  0.00  0.00    +0.015 C 
ATOM      2  C   UNL     1      34.267 -16.009 -23.116  0.00  0.00    +0.020 C 
ATOM      3  C   UNL     1      35.232 -18.157 -22.502  0.00  0.00    +0.048 C 
ATOM      4  C   UNL     1      33.794 -14.743 -22.737  0.00  0.00    +0.122 C 
ATOM      5  C   UNL     1      34.762 -16.478 -20.781  0.00  0.00    +0.001 C 
ATOM      6  C   UNL     1      34.264 -16.421 -24.459  0.00  0.00    +0.001 C 
ATOM      7  C   UNL     1      35.222 -18.549 -23.841  0.00  0.00    +0.015 C 
ATOM      8  C   UNL     1      33.804 -14.349 -21.399  0.00  0.00    +0.020 C 
ATOM      9  C   UNL     1      34.739 -17.683 -24.817  0.00  0.00    +0.001 C 
ATOM     10  C   UNL     1      34.289 -15.215 -20.423  0.00  0.00    +0.001 C 
ENDROOT
BRANCH   4  11
ATOM     11  S   UNL     1      33.163 -13.577 -23.892  0.00  0.00    +0.057 S 
ATOM     12  O   UNL     1      34.186 -12.569 -24.114  0.00  0.00    -0.153 OA
ATOM     13  O   UNL     1      32.603 -14.311 -25.013  0.00  0.00    -0.153 OA
BRANCH  11  14
ATOM     14  N   UNL     1      31.891 -12.892 -22.985  0.00  0.00    -0.203 NA
ATOM     15  H   UNL     1      32.275 -12.401 -22.178  0.00  0.00    +0.144 HD
ATOM     16  H   UNL     1      31.264 -13.632 -22.666  0.00  0.00    +0.144 HD
ENDBRANCH  11  14
ENDBRANCH   4  11
BRANCH   3  17
ATOM     17  N   UNL     1      35.735 -19.076 -21.549  0.00  0.00    -0.304 N 
ATOM     18  C   UNL     1      34.841 -20.002 -20.889  0.00  0.00    +0.112 C 
ATOM     19  C   UNL     1      37.148 -19.103 -21.239  0.00  0.00    +0.112 C 
ENDBRANCH   3  17
TORSDOF 3
ENDMDL
MODEL 2
REMARK VINA RESULT:      -8.0      2.902      5.198
REMARK  Name = 65077
REMARK  3 active torsions:
REMARK  status: ('A' for Active; 'I' for Inactive)
REMARK    1  A    between atoms: C_3  and  N_17
REMARK    2  A    between atoms: C_4  and  S_11
REMARK    3  A    between atoms: S_11  and  N_14
REMARK                            x       y       z     vdW  Elec       q    Type
REMARK                         _______ _______ _______ _____ _____    ______ ____
ROOT
ATOM      1  C   UNL     1      33.967 -14.819 -22.766  0.00  0.00    +0.015 C 
ATOM      2  C   UNL     1      34.338 -16.156 -23.047  0.00  0.00    +0.020 C 
ATOM      3  C   UNL     1      33.505 -14.000 -23.809  0.00  0.00    +0.048 C 
ATOM      4  C   UNL     1      34.800 -16.974 -22.004  0.00  0.00    +0.122 C 
ATOM      5  C   UNL     1      34.070 -14.341 -21.450  0.00  0.00    +0.001 C 
ATOM      6  C   UNL     1      34.235 -16.634 -24.364  0.00  0.00    +0.001 C 
ATOM      7  C   UNL     1      33.410 -14.492 -25.111  0.00  0.00    +0.015 C 
ATOM      8  C   UNL     1      34.895 -16.483 -20.702  0.00  0.00    +0.020 C 
ATOM      9  C   UNL     1      33.774 -15.806 -25.388  0.00  0.00    +0.001 C 
ATOM     10  C   UNL     1      34.530 -15.169 -20.425  0.00  0.00    +0.001 C 
ENDROOT
BRANCH   4  11
ATOM     11  S   UNL     1      35.285 -18.646 -22.250  0.00  0.00    +0.057 S 
ATOM     12  O   UNL     1      34.079 -19.449 -22.365  0.00  0.00    -0.153 OA
ATOM     13  O   UNL     1      36.286 -18.676 -23.300  0.00  0.00    -0.153 OA
BRANCH  11  14
ATOM     14  N   UNL     1      36.037 -18.978 -20.755  0.00  0.00    -0.203 NA
ATOM     15  H   UNL     1      35.775 -19.913 -20.443  0.00  0.00    +0.144 HD
ATOM     16  H   UNL     1      35.735 -18.292 -20.062  0.00  0.00    +0.144 HD
ENDBRANCH  11  14
ENDBRANCH   4  11
BRANCH   3  17
ATOM     17  N   UNL     1      33.122 -12.656 -23.582  0.00  0.00    -0.304 N 
ATOM     18  C   UNL     1      33.801 -11.578 -24.267  0.00  0.00    +0.112 C 
ATOM     19  C   UNL     1      32.039 -12.353 -22.672  0.00  0.00    +0.112 C 
ENDBRANCH   3  17
TORSDOF 3
ENDMDL
MODEL 3
REMARK VINA RESULT:      -8.0      1.145      2.836
REMARK  Name = 65077
REMARK  3 active torsions:
REMARK  status: ('A' for Active; 'I' for Inactive)
REMARK    1  A    between atoms: C_3  and  N_17
REMARK    2  A    between atoms: C_4  and  S_11
REMARK    3  A    between atoms: S_11  and  N_14
REMARK                            x       y       z     vdW  Elec       q    Type
REMARK                         _______ _______ _______ _____ _____    ______ ____
ROOT
ATOM      1  C   UNL     1      34.727 -17.093 -22.828  0.00  0.00    +0.015 C 
ATOM      2  C   UNL     1      34.185 -15.804 -23.054  0.00  0.00    +0.020 C 
ATOM      3  C   UNL     1      35.102 -17.461 -21.526  0.00  0.00    +0.048 C 
ATOM      4  C   UNL     1      33.811 -15.436 -24.356  0.00  0.00    +0.122 C 
ATOM      5  C   UNL     1      34.877 -17.974 -23.911  0.00  0.00    +0.001 C 
ATOM      6  C   UNL     1      34.035 -14.924 -21.971  0.00  0.00    +0.001 C 
ATOM      7  C   UNL     1      34.945 -16.573 -20.461  0.00  0.00    +0.015 C 
ATOM      8  C   UNL     1      33.967 -16.324 -25.421  0.00  0.00    +0.020 C 
ATOM      9  C   UNL     1      34.413 -15.307 -20.684  0.00  0.00    +0.001 C 
ATOM     10  C   UNL     1      34.499 -17.591 -25.198  0.00  0.00    +0.001 C 
ENDROOT
BRANCH   4  11
ATOM     11  S   UNL     1      33.131 -13.862 -24.741  0.00  0.00    +0.057 S 
ATOM     12  O   UNL     1      32.056 -13.596 -23.800  0.00  0.00    -0.153 OA
ATOM     13  O   UNL     1      34.226 -12.920 -24.886  0.00  0.00    -0.153 OA
BRANCH  11  14
ATOM     14  N   UNL     1      32.462 -14.176 -26.279  0.00  0.00    -0.203 NA
ATOM     15  H   UNL     1      32.542 -15.170 -26.488  0.00  0.00    +0.144 HD
ATOM     16  H   UNL     1      32.966 -13.638 -26.986  0.00  0.00    +0.144 HD
ENDBRANCH  11  14
ENDBRANCH   4  11
BRANCH   3  17
ATOM     17  N   UNL     1      35.648 -18.738 -21.245  0.00  0.00    -0.304 N 
ATOM     18  C   UNL     1      34.782 -19.832 -20.861  0.00  0.00    +0.112 C 
ATOM     19  C   UNL     1      37.073 -18.959 -21.353  0.00  0.00    +0.112 C 
ENDBRANCH   3  17
TORSDOF 3
ENDMDL
MODEL 4
REMARK VINA RESULT:      -8.0      5.047      6.836
REMARK  Name = 65077
REMARK  3 active torsions:
REMARK  status: ('A' for Active; 'I' for Inactive)
REMARK    1  A    between atoms: C_3  and  N_17
REMARK    2  A    between atoms: C_4  and  S_11
REMARK    3  A    between atoms: S_11  and  N_14
REMARK                            x       y       z     vdW  Elec       q    Type
REMARK                         _______ _______ _______ _____ _____    ______ ____
ROOT
ATOM      1  C   UNL     1      34.554 -19.305 -20.907  0.00  0.00    +0.015 C 
ATOM      2  C   UNL     1      34.878 -20.485 -20.196  0.00  0.00    +0.020 C 
ATOM      3  C   UNL     1      35.589 -18.521 -21.445  0.00  0.00    +0.048 C 
ATOM      4  C   UNL     1      33.844 -21.267 -19.658  0.00  0.00    +0.122 C 
ATOM      5  C   UNL     1      33.206 -18.943 -21.059  0.00  0.00    +0.001 C 
ATOM      6  C   UNL     1      36.226 -20.847 -20.044  0.00  0.00    +0.001 C 
ATOM      7  C   UNL     1      36.923 -18.896 -21.284  0.00  0.00    +0.015 C 
ATOM      8  C   UNL     1      32.509 -20.893 -19.819  0.00  0.00    +0.020 C 
ATOM      9  C   UNL     1      37.241 -20.056 -20.585  0.00  0.00    +0.001 C 
ATOM     10  C   UNL     1      32.192 -19.733 -20.519  0.00  0.00    +0.001 C 
ENDROOT
BRANCH   4  11
ATOM     11  S   UNL     1      34.140 -22.748 -18.759  0.00  0.00    +0.057 S 
ATOM     12  O   UNL     1      34.218 -23.843 -19.712  0.00  0.00    -0.153 OA
ATOM     13  O   UNL     1      35.233 -22.504 -17.835  0.00  0.00    -0.153 OA
BRANCH  11  14
ATOM     14  N   UNL     1      32.685 -22.878 -17.877  0.00  0.00    -0.203 NA
ATOM     15  H   UNL     1      31.917 -22.502 -18.432  0.00  0.00    +0.144 HD
ATOM     16  H   UNL     1      32.766 -22.348 -17.008  0.00  0.00    +0.144 HD
ENDBRANCH  11  14
ENDBRANCH   4  11
BRANCH   3  17
ATOM     17  N   UNL     1      35.320 -17.332 -22.166  0.00  0.00    -0.304 N 
ATOM     18  C   UNL     1      35.355 -17.333 -23.612  0.00  0.00    +0.112 C 
ATOM     19  C   UNL     1      34.994 -16.112 -21.460  0.00  0.00    +0.112 C 
ENDBRANCH   3  17
TORSDOF 3
ENDMDL
MODEL 5
REMARK VINA RESULT:      -7.8      9.730     11.687
REMARK  Name = 65077
REMARK  3 active torsions:
REMARK  status: ('A' for Active; 'I' for Inactive)
REMARK    1  A    between atoms: C_3  and  N_17
REMARK    2  A    between atoms: C_4  and  S_11
REMARK    3  A    between atoms: S_11  and  N_14
REMARK                            x       y       z     vdW  Elec       q    Type
REMARK                         _______ _______ _______ _____ _____    ______ ____
ROOT
ATOM      1  C   UNL     1      31.637 -23.571 -15.854  0.00  0.00    +0.015 C 
ATOM      2  C   UNL     1      32.850 -23.957 -15.235  0.00  0.00    +0.020 C 
ATOM      3  C   UNL     1      30.419 -23.856 -15.217  0.00  0.00    +0.048 C 
ATOM      4  C   UNL     1      34.068 -23.672 -15.872  0.00  0.00    +0.122 C 
ATOM      5  C   UNL     1      31.680 -22.912 -17.094  0.00  0.00    +0.001 C 
ATOM      6  C   UNL     1      32.808 -24.616 -13.995  0.00  0.00    +0.001 C 
ATOM      7  C   UNL     1      30.396 -24.512 -13.986  0.00  0.00    +0.015 C 
ATOM      8  C   UNL     1      34.091 -23.016 -17.103  0.00  0.00    +0.020 C 
ATOM      9  C   UNL     1      31.588 -24.891 -13.376  0.00  0.00    +0.001 C 
ATOM     10  C   UNL     1      32.899 -22.636 -17.712  0.00  0.00    +0.001 C 
ENDROOT
BRANCH   4  11
ATOM     11  S   UNL     1      35.626 -24.109 -15.187  0.00  0.00    +0.057 S 
ATOM     12  O   UNL     1      35.717 -23.512 -13.865  0.00  0.00    -0.153 OA
ATOM     13  O   UNL     1      35.809 -25.539 -15.357  0.00  0.00    -0.153 OA
BRANCH  11  14
ATOM     14  N   UNL     1      36.679 -23.284 -16.246  0.00  0.00    -0.203 NA
ATOM     15  H   UNL     1      36.755 -22.309 -15.959  0.00  0.00    +0.144 HD
ATOM     16  H   UNL     1      36.310 -23.330 -17.197  0.00  0.00    +0.144 HD
ENDBRANCH  11  14
ENDBRANCH   4  11
BRANCH   3  17
ATOM     17  N   UNL     1      29.177 -23.492 -15.794  0.00  0.00    -0.304 N 
ATOM     18  C   UNL     1      28.515 -24.384 -16.720  0.00  0.00    +0.112 C 
ATOM     19  C   UNL     1      28.558 -22.230 -15.450  0.00  0.00    +0.112 C 
ENDBRANCH   3  17
TORSDOF 3
ENDMDL
MODEL 6
REMARK VINA RESULT:      -7.8      9.361     10.960
REMARK  Name = 65077
REMARK  3 active torsions:
REMARK  status: ('A' for Active; 'I' for Inactive)
REMARK    1  A    between atoms: C_3  and  N_17
REMARK    2  A    between atoms: C_4  and  S_11
REMARK    3  A    between atoms: S_11  and  N_14
REMARK                            x       y       z     vdW  Elec       q    Type
REMARK                         _______ _______ _______ _____ _____    ______ ____
ROOT
ATOM      1  C   UNL     1      32.658 -24.014 -15.163  0.00  0.00    +0.015 C 
ATOM      2  C   UNL     1      31.579 -23.592 -15.977  0.00  0.00    +0.020 C 
ATOM      3  C   UNL     1      33.975 -23.798 -15.603  0.00  0.00    +0.048 C 
ATOM      4  C   UNL     1      30.263 -23.808 -15.537  0.00  0.00    +0.122 C 
ATOM      5  C   UNL     1      32.389 -24.639 -13.935  0.00  0.00    +0.001 C 
ATOM      6  C   UNL     1      31.849 -22.967 -17.205  0.00  0.00    +0.001 C 
ATOM      7  C   UNL     1      34.224 -23.176 -16.826  0.00  0.00    +0.015 C 
ATOM      8  C   UNL     1      30.014 -24.430 -14.314  0.00  0.00    +0.020 C 
ATOM      9  C   UNL     1      33.164 -22.761 -17.625  0.00  0.00    +0.001 C 
ATOM     10  C   UNL     1      31.075 -24.844 -13.514  0.00  0.00    +0.001 C 
ENDROOT
BRANCH   4  11
ATOM     11  S   UNL     1      28.856 -23.323 -16.472  0.00  0.00    +0.057 S 
ATOM     12  O   UNL     1      29.161 -22.056 -17.115  0.00  0.00    -0.153 OA
ATOM     13  O   UNL     1      28.427 -24.461 -17.265  0.00  0.00    -0.153 OA
BRANCH  11  14
ATOM     14  N   UNL     1      27.725 -23.058 -15.223  0.00  0.00    -0.203 NA
ATOM     15  H   UNL     1      27.783 -23.817 -14.545  0.00  0.00    +0.144 HD
ATOM     16  H   UNL     1      26.783 -23.026 -15.618  0.00  0.00    +0.144 HD
ENDBRANCH  11  14
ENDBRANCH   4  11
BRANCH   3  17
ATOM     17  N   UNL     1      35.090 -24.200 -14.827  0.00  0.00    -0.304 N 
ATOM     18  C   UNL     1      35.706 -25.490 -15.052  0.00  0.00    +0.112 C 
ATOM     19  C   UNL     1      35.628 -23.318 -13.815  0.00  0.00    +0.112 C 
ENDBRANCH   3  17
TORSDOF 3
ENDMDL
MODEL 7
REMARK VINA RESULT:      -7.6      3.032      5.656
REMARK  Name = 65077
REMARK  3 active torsions:
REMARK  status: ('A' for Active; 'I' for Inactive)
REMARK    1  A    between atoms: C_3  and  N_17
REMARK    2  A    between atoms: C_4  and  S_11
REMARK    3  A    between atoms: S_11  and  N_14
REMARK                            x       y       z     vdW  Elec       q    Type
REMARK                         _______ _______ _______ _____ _____    ______ ____
ROOT
ATOM      1  C   UNL     1      33.907 -15.510 -24.039  0.00  0.00    +0.015 C 
ATOM      2  C   UNL     1      33.990 -16.197 -22.804  0.00  0.00    +0.020 C 
ATOM      3  C   UNL     1      33.402 -14.199 -24.063  0.00  0.00    +0.048 C 
ATOM      4  C   UNL     1      34.495 -17.506 -22.780  0.00  0.00    +0.122 C 
ATOM      5  C   UNL     1      34.332 -16.154 -25.212  0.00  0.00    +0.001 C 
ATOM      6  C   UNL     1      33.566 -15.553 -21.631  0.00  0.00    +0.001 C 
ATOM      7  C   UNL     1      32.984 -13.575 -22.887  0.00  0.00    +0.015 C 
ATOM      8  C   UNL     1      34.913 -18.131 -23.956  0.00  0.00    +0.020 C 
ATOM      9  C   UNL     1      33.066 -14.251 -21.674  0.00  0.00    +0.001 C 
ATOM     10  C   UNL     1      34.832 -17.455 -25.170  0.00  0.00    +0.001 C 
ENDROOT
BRANCH   4  11
ATOM     11  S   UNL     1      34.639 -18.444 -21.300  0.00  0.00    +0.057 S 
ATOM     12  O   UNL     1      35.630 -17.799 -20.456  0.00  0.00    -0.153 OA
ATOM     13  O   UNL     1      33.301 -18.698 -20.795  0.00  0.00    -0.153 OA
BRANCH  11  14
ATOM     14  N   UNL     1      35.287 -19.899 -21.911  0.00  0.00    -0.203 NA
ATOM     15  H   UNL     1      36.146 -19.700 -22.424  0.00  0.00    +0.144 HD
ATOM     16  H   UNL     1      34.611 -20.336 -22.538  0.00  0.00    +0.144 HD
ENDBRANCH  11  14
ENDBRANCH   4  11
BRANCH   3  17
ATOM     17  N   UNL     1      33.298 -13.467 -25.272  0.00  0.00    -0.304 N 
ATOM     18  C   UNL     1      32.650 -14.054 -26.425  0.00  0.00    +0.112 C 
ATOM     19  C   UNL     1      33.827 -12.124 -25.356  0.00  0.00    +0.112 C 
ENDBRANCH   3  17
TORSDOF 3
ENDMDL
MODEL 8
REMARK VINA RESULT:      -7.6      3.072      5.590
REMARK  Name = 65077
REMARK  3 active torsions:
REMARK  status: ('A' for Active; 'I' for Inactive)
REMARK    1  A    between atoms: C_3  and  N_17
REMARK    2  A    between atoms: C_4  and  S_11
REMARK    3  A    between atoms: S_11  and  N_14
REMARK                            x       y       z     vdW  Elec       q    Type
REMARK                         _______ _______ _______ _____ _____    ______ ____
ROOT
ATOM      1  C   UNL     1      33.734 -14.968 -23.308  0.00  0.00    +0.015 C 
ATOM      2  C   UNL     1      34.248 -16.188 -22.806  0.00  0.00    +0.020 C 
ATOM      3  C   UNL     1      33.487 -13.909 -22.419  0.00  0.00    +0.048 C 
ATOM      4  C   UNL     1      34.495 -17.246 -23.695  0.00  0.00    +0.122 C 
ATOM      5  C   UNL     1      33.482 -14.845 -24.684  0.00  0.00    +0.001 C 
ATOM      6  C   UNL     1      34.499 -16.312 -21.430  0.00  0.00    +0.001 C 
ATOM      7  C   UNL     1      33.743 -14.051 -21.055  0.00  0.00    +0.015 C 
ATOM      8  C   UNL     1      34.239 -17.106 -25.059  0.00  0.00    +0.020 C 
ATOM      9  C   UNL     1      34.248 -15.249 -20.561  0.00  0.00    +0.001 C 
ATOM     10  C   UNL     1      33.734 -15.906 -25.552  0.00  0.00    +0.001 C 
ENDROOT
BRANCH   4  11
ATOM     11  S   UNL     1      35.131 -18.800 -23.172  0.00  0.00    +0.057 S 
ATOM     12  O   UNL     1      36.526 -18.612 -22.809  0.00  0.00    -0.153 OA
ATOM     13  O   UNL     1      34.197 -19.372 -22.218  0.00  0.00    -0.153 OA
BRANCH  11  14
ATOM     14  N   UNL     1      35.046 -19.681 -24.630  0.00  0.00    -0.203 NA
ATOM     15  H   UNL     1      34.686 -20.616 -24.441  0.00  0.00    +0.144 HD
ATOM     16  H   UNL     1      35.979 -19.753 -25.039  0.00  0.00    +0.144 HD
ENDBRANCH  11  14
ENDBRANCH   4  11
BRANCH   3  17
ATOM     17  N   UNL     1      32.973 -12.668 -22.869  0.00  0.00    -0.304 N 
ATOM     18  C   UNL     1      31.746 -12.142 -22.312  0.00  0.00    +0.112 C 
ATOM     19  C   UNL     1      33.680 -11.913 -23.881  0.00  0.00    +0.112 C 
ENDBRANCH   3  17
TORSDOF 3
ENDMDL
MODEL 9
REMARK VINA RESULT:      -7.6      7.982     10.137
REMARK  Name = 65077
REMARK  3 active torsions:
REMARK  status: ('A' for Active; 'I' for Inactive)
REMARK    1  A    between atoms: C_3  and  N_17
REMARK    2  A    between atoms: C_4  and  S_11
REMARK    3  A    between atoms: S_11  and  N_14
REMARK                            x       y       z     vdW  Elec       q    Type
REMARK                         _______ _______ _______ _____ _____    ______ ____
ROOT
ATOM      1  C   UNL     1      36.011 -23.128 -15.319  0.00  0.00    +0.015 C 
ATOM      2  C   UNL     1      34.904 -23.090 -16.201  0.00  0.00    +0.020 C 
ATOM      3  C   UNL     1      35.868 -23.741 -14.063  0.00  0.00    +0.048 C 
ATOM      4  C   UNL     1      35.046 -22.478 -17.455  0.00  0.00    +0.122 C 
ATOM      5  C   UNL     1      37.227 -22.551 -15.719  0.00  0.00    +0.001 C 
ATOM      6  C   UNL     1      33.688 -23.668 -15.800  0.00  0.00    +0.001 C 
ATOM      7  C   UNL     1      34.652 -24.309 -13.682  0.00  0.00    +0.015 C 
ATOM      8  C   UNL     1      36.262 -21.909 -17.837  0.00  0.00    +0.020 C 
ATOM      9  C   UNL     1      33.565 -24.273 -14.549  0.00  0.00    +0.001 C 
ATOM     10  C   UNL     1      37.350 -21.947 -16.970  0.00  0.00    +0.001 C 
ENDROOT
BRANCH   4  11
ATOM     11  S   UNL     1      33.734 -22.378 -18.621  0.00  0.00    +0.057 S 
ATOM     12  O   UNL     1      32.480 -22.424 -17.887  0.00  0.00    -0.153 OA
ATOM     13  O   UNL     1      34.014 -21.276 -19.523  0.00  0.00    -0.153 OA
BRANCH  11  14
ATOM     14  N   UNL     1      33.945 -23.849 -19.459  0.00  0.00    -0.203 NA
ATOM     15  H   UNL     1      34.398 -23.668 -20.354  0.00  0.00    +0.144 HD
ATOM     16  H   UNL     1      33.035 -24.283 -19.620  0.00  0.00    +0.144 HD
ENDBRANCH  11  14
ENDBRANCH   4  11
BRANCH   3  17
ATOM     17  N   UNL     1      36.944 -23.806 -13.144  0.00  0.00    -0.304 N 
ATOM     18  C   UNL     1      36.995 -22.900 -12.017  0.00  0.00    +0.112 C 
ATOM     19  C   UNL     1      37.992 -24.788 -13.319  0.00  0.00    +0.112 C 
ENDBRANCH   3  17
TORSDOF 3
ENDMDL
