MODEL 1
REMARK VINA RESULT:      -8.0      0.000      0.000
REMARK  Name = 657073
REMARK  5 active torsions:
REMARK  status: ('A' for Active; 'I' for Inactive)
REMARK    1  A    between atoms: C_3  and  O_12
REMARK    2  A    between atoms: O_12  and  C_13
REMARK    3  A    between atoms: C_13  and  C_14
REMARK    4  A    between atoms: C_14  and  C_15
REMARK    5  A    between atoms: C_15  and  N_16
REMARK                            x       y       z     vdW  Elec       q    Type
REMARK                         _______ _______ _______ _____ _____    ______ ____
ROOT
ATOM      1  S   UNL     1      32.713 -14.113 -24.767  0.00  0.00    -0.046 S 
ATOM      2  O   UNL     1      33.542 -15.229 -26.955  0.00  0.00    -0.279 OA
ATOM      3  C   UNL     1      34.618 -16.415 -23.740  0.00  0.00    +0.143 C 
ATOM      4  C   UNL     1      33.962 -15.575 -22.722  0.00  0.00    +0.040 C 
ATOM      5  C   UNL     1      33.098 -14.529 -23.082  0.00  0.00    +0.035 C 
ATOM      6  C   UNL     1      34.454 -16.264 -25.060  0.00  0.00    +0.086 C 
ATOM      7  C   UNL     1      34.191 -15.809 -21.352  0.00  0.00    +0.004 C 
ATOM      8  C   UNL     1      32.488 -13.749 -22.084  0.00  0.00    +0.007 C 
ATOM      9  C   UNL     1      33.608 -15.257 -25.731  0.00  0.00    +0.229 C 
ATOM     10  C   UNL     1      33.581 -15.030 -20.368  0.00  0.00    +0.000 C 
ATOM     11  C   UNL     1      32.728 -13.998 -20.735  0.00  0.00    +0.001 C 
ENDROOT
BRANCH   3  12
ATOM     12  O   UNL     1      35.446 -17.409 -23.243  0.00  0.00    -0.475 OA
BRANCH  12  13
ATOM     13  C   UNL     1      34.972 -18.682 -23.625  0.00  0.00    +0.203 C 
BRANCH  13  14
ATOM     14  C   UNL     1      34.517 -19.431 -22.380  0.00  0.00    +0.025 C 
BRANCH  14  15
ATOM     15  C   UNL     1      35.500 -19.250 -21.228  0.00  0.00    -0.074 C 
BRANCH  15  16
ATOM     16  N   UNL     1      35.149 -20.131 -20.120  0.00  0.00    +0.384 N 
ATOM     17  C   UNL     1      36.037 -21.294 -20.086  0.00  0.00    -0.101 C 
ATOM     18  C   UNL     1      33.754 -20.561 -20.224  0.00  0.00    -0.101 C 
ATOM     19  H   UNL     1      35.264 -19.610 -19.250  0.00  0.00    -0.080 HD
ENDBRANCH  15  16
ENDBRANCH  14  15
ENDBRANCH  13  14
ENDBRANCH  12  13
ENDBRANCH   3  12
TORSDOF 5
ENDMDL
MODEL 2
REMARK VINA RESULT:      -7.7      3.289      6.092
REMARK  Name = 657073
REMARK  5 active torsions:
REMARK  status: ('A' for Active; 'I' for Inactive)
REMARK    1  A    between atoms: C_3  and  O_12
REMARK    2  A    between atoms: O_12  and  C_13
REMARK    3  A    between atoms: C_13  and  C_14
REMARK    4  A    between atoms: C_14  and  C_15
REMARK    5  A    between atoms: C_15  and  N_16
REMARK                            x       y       z     vdW  Elec       q    Type
REMARK                         _______ _______ _______ _____ _____    ______ ____
ROOT
ATOM      1  S   UNL     1      34.530 -17.223 -25.376  0.00  0.00    -0.046 S 
ATOM      2  O   UNL     1      33.371 -15.318 -26.699  0.00  0.00    -0.279 OA
ATOM      3  C   UNL     1      33.718 -15.158 -23.127  0.00  0.00    +0.143 C 
ATOM      4  C   UNL     1      34.420 -16.381 -22.700  0.00  0.00    +0.040 C 
ATOM      5  C   UNL     1      34.821 -17.356 -23.626  0.00  0.00    +0.035 C 
ATOM      6  C   UNL     1      33.410 -14.871 -24.398  0.00  0.00    +0.086 C 
ATOM      7  C   UNL     1      34.706 -16.598 -21.338  0.00  0.00    +0.004 C 
ATOM      8  C   UNL     1      35.490 -18.511 -23.184  0.00  0.00    +0.007 C 
ATOM      9  C   UNL     1      33.706 -15.701 -25.583  0.00  0.00    +0.229 C 
ATOM     10  C   UNL     1      35.372 -17.747 -20.907  0.00  0.00    +0.000 C 
ATOM     11  C   UNL     1      35.764 -18.705 -21.832  0.00  0.00    +0.001 C 
ENDROOT
BRANCH   3  12
ATOM     12  O   UNL     1      33.380 -14.282 -22.107  0.00  0.00    -0.475 OA
BRANCH  12  13
ATOM     13  C   UNL     1      32.450 -13.326 -22.566  0.00  0.00    +0.203 C 
BRANCH  13  14
ATOM     14  C   UNL     1      31.901 -12.560 -21.370  0.00  0.00    +0.025 C 
BRANCH  14  15
ATOM     15  C   UNL     1      31.457 -11.154 -21.763  0.00  0.00    -0.074 C 
BRANCH  15  16
ATOM     16  N   UNL     1      31.247 -10.338 -20.572  0.00  0.00    +0.384 N 
ATOM     17  C   UNL     1      32.086  -9.139 -20.615  0.00  0.00    -0.101 C 
ATOM     18  C   UNL     1      31.529 -11.110 -19.361  0.00  0.00    -0.101 C 
ATOM     19  H   UNL     1      30.269 -10.049 -20.552  0.00  0.00    -0.080 HD
ENDBRANCH  15  16
ENDBRANCH  14  15
ENDBRANCH  13  14
ENDBRANCH  12  13
ENDBRANCH   3  12
TORSDOF 5
ENDMDL
MODEL 3
REMARK VINA RESULT:      -7.7      3.493      6.243
REMARK  Name = 657073
REMARK  5 active torsions:
REMARK  status: ('A' for Active; 'I' for Inactive)
REMARK    1  A    between atoms: C_3  and  O_12
REMARK    2  A    between atoms: O_12  and  C_13
REMARK    3  A    between atoms: C_13  and  C_14
REMARK    4  A    between atoms: C_14  and  C_15
REMARK    5  A    between atoms: C_15  and  N_16
REMARK                            x       y       z     vdW  Elec       q    Type
REMARK                         _______ _______ _______ _____ _____    ______ ____
ROOT
ATOM      1  S   UNL     1      34.212 -16.450 -24.957  0.00  0.00    -0.046 S 
ATOM      2  O   UNL     1      33.341 -15.142 -27.018  0.00  0.00    -0.279 OA
ATOM      3  C   UNL     1      33.245 -13.705 -23.728  0.00  0.00    +0.143 C 
ATOM      4  C   UNL     1      33.816 -14.697 -22.800  0.00  0.00    +0.040 C 
ATOM      5  C   UNL     1      34.273 -15.944 -23.253  0.00  0.00    +0.035 C 
ATOM      6  C   UNL     1      33.116 -13.894 -25.047  0.00  0.00    +0.086 C 
ATOM      7  C   UNL     1      33.916 -14.410 -21.424  0.00  0.00    +0.004 C 
ATOM      8  C   UNL     1      34.815 -16.867 -22.340  0.00  0.00    +0.007 C 
ATOM      9  C   UNL     1      33.510 -15.099 -25.805  0.00  0.00    +0.229 C 
ATOM     10  C   UNL     1      34.455 -15.332 -20.525  0.00  0.00    +0.000 C 
ATOM     11  C   UNL     1      34.905 -16.562 -20.984  0.00  0.00    +0.001 C 
ENDROOT
BRANCH   3  12
ATOM     12  O   UNL     1      32.832 -12.518 -23.144  0.00  0.00    -0.475 OA
BRANCH  12  13
ATOM     13  C   UNL     1      33.505 -11.422 -23.725  0.00  0.00    +0.203 C 
BRANCH  13  14
ATOM     14  C   UNL     1      32.771 -10.141 -23.354  0.00  0.00    +0.025 C 
BRANCH  14  15
ATOM     15  C   UNL     1      31.563 -10.425 -22.467  0.00  0.00    -0.074 C 
BRANCH  15  16
ATOM     16  N   UNL     1      31.947 -10.389 -21.061  0.00  0.00    +0.384 N 
ATOM     17  C   UNL     1      30.958 -11.088 -20.238  0.00  0.00    -0.101 C 
ATOM     18  C   UNL     1      32.102  -9.007 -20.604  0.00  0.00    -0.101 C 
ATOM     19  H   UNL     1      32.845 -10.865 -20.964  0.00  0.00    -0.080 HD
ENDBRANCH  15  16
ENDBRANCH  14  15
ENDBRANCH  13  14
ENDBRANCH  12  13
ENDBRANCH   3  12
TORSDOF 5
ENDMDL
MODEL 4
REMARK VINA RESULT:      -7.7      3.860      6.970
REMARK  Name = 657073
REMARK  5 active torsions:
REMARK  status: ('A' for Active; 'I' for Inactive)
REMARK    1  A    between atoms: C_3  and  O_12
REMARK    2  A    between atoms: O_12  and  C_13
REMARK    3  A    between atoms: C_13  and  C_14
REMARK    4  A    between atoms: C_14  and  C_15
REMARK    5  A    between atoms: C_15  and  N_16
REMARK                            x       y       z     vdW  Elec       q    Type
REMARK                         _______ _______ _______ _____ _____    ______ ____
ROOT
ATOM      1  S   UNL     1      35.011 -16.968 -21.090  0.00  0.00    -0.046 S 
ATOM      2  O   UNL     1      34.809 -14.568 -20.132  0.00  0.00    -0.279 OA
ATOM      3  C   UNL     1      34.232 -15.235 -23.614  0.00  0.00    +0.143 C 
ATOM      4  C   UNL     1      34.419 -16.682 -23.819  0.00  0.00    +0.040 C 
ATOM      5  C   UNL     1      34.765 -17.533 -22.758  0.00  0.00    +0.035 C 
ATOM      6  C   UNL     1      34.368 -14.618 -22.434  0.00  0.00    +0.086 C 
ATOM      7  C   UNL     1      34.252 -17.247 -25.099  0.00  0.00    +0.004 C 
ATOM      8  C   UNL     1      34.934 -18.910 -22.989  0.00  0.00    +0.007 C 
ATOM      9  C   UNL     1      34.721 -15.251 -21.147  0.00  0.00    +0.229 C 
ATOM     10  C   UNL     1      34.421 -18.615 -25.320  0.00  0.00    +0.000 C 
ATOM     11  C   UNL     1      34.763 -19.447 -24.263  0.00  0.00    +0.001 C 
ENDROOT
BRANCH   3  12
ATOM     12  O   UNL     1      33.894 -14.515 -24.750  0.00  0.00    -0.475 OA
BRANCH  12  13
ATOM     13  C   UNL     1      33.162 -13.360 -24.401  0.00  0.00    +0.203 C 
BRANCH  13  14
ATOM     14  C   UNL     1      33.833 -12.145 -25.027  0.00  0.00    +0.025 C 
BRANCH  14  15
ATOM     15  C   UNL     1      33.892 -10.974 -24.051  0.00  0.00    -0.074 C 
BRANCH  15  16
ATOM     16  N   UNL     1      35.042 -10.128 -24.344  0.00  0.00    +0.384 N 
ATOM     17  C   UNL     1      34.726  -8.721 -24.090  0.00  0.00    -0.101 C 
ATOM     18  C   UNL     1      35.476 -10.307 -25.730  0.00  0.00    -0.101 C 
ATOM     19  H   UNL     1      35.807 -10.405 -23.727  0.00  0.00    -0.080 HD
ENDBRANCH  15  16
ENDBRANCH  14  15
ENDBRANCH  13  14
ENDBRANCH  12  13
ENDBRANCH   3  12
TORSDOF 5
ENDMDL
MODEL 5
REMARK VINA RESULT:      -7.6      6.088      9.543
REMARK  Name = 657073
REMARK  5 active torsions:
REMARK  status: ('A' for Active; 'I' for Inactive)
REMARK    1  A    between atoms: C_3  and  O_12
REMARK    2  A    between atoms: O_12  and  C_13
REMARK    3  A    between atoms: C_13  and  C_14
REMARK    4  A    between atoms: C_14  and  C_15
REMARK    5  A    between atoms: C_15  and  N_16
REMARK                            x       y       z     vdW  Elec       q    Type
REMARK                         _______ _______ _______ _____ _____    ______ ____
ROOT
ATOM      1  S   UNL     1      34.041 -24.016 -14.515  0.00  0.00    -0.046 S 
ATOM      2  O   UNL     1      36.246 -23.848 -15.867  0.00  0.00    -0.279 OA
ATOM      3  C   UNL     1      33.098 -22.909 -17.320  0.00  0.00    +0.143 C 
ATOM      4  C   UNL     1      32.063 -23.116 -16.292  0.00  0.00    +0.040 C 
ATOM      5  C   UNL     1      32.385 -23.604 -15.016  0.00  0.00    +0.035 C 
ATOM      6  C   UNL     1      34.401 -23.156 -17.137  0.00  0.00    +0.086 C 
ATOM      7  C   UNL     1      30.713 -22.825 -16.573  0.00  0.00    +0.004 C 
ATOM      8  C   UNL     1      31.372 -23.788 -14.058  0.00  0.00    +0.007 C 
ATOM      9  C   UNL     1      35.034 -23.669 -15.905  0.00  0.00    +0.229 C 
ATOM     10  C   UNL     1      29.714 -23.011 -15.616  0.00  0.00    +0.000 C 
ATOM     11  C   UNL     1      30.044 -23.493 -14.357  0.00  0.00    +0.001 C 
ENDROOT
BRANCH   3  12
ATOM     12  O   UNL     1      32.637 -22.426 -18.535  0.00  0.00    -0.475 OA
BRANCH  12  13
ATOM     13  C   UNL     1      33.719 -22.027 -19.348  0.00  0.00    +0.203 C 
BRANCH  13  14
ATOM     14  C   UNL     1      33.369 -20.708 -20.022  0.00  0.00    +0.025 C 
BRANCH  14  15
ATOM     15  C   UNL     1      34.593 -20.067 -20.667  0.00  0.00    -0.074 C 
BRANCH  15  16
ATOM     16  N   UNL     1      34.188 -18.997 -21.571  0.00  0.00    +0.384 N 
ATOM     17  C   UNL     1      34.647 -19.272 -22.934  0.00  0.00    -0.101 C 
ATOM     18  C   UNL     1      34.706 -17.708 -21.112  0.00  0.00    -0.101 C 
ATOM     19  H   UNL     1      33.168 -18.953 -21.576  0.00  0.00    -0.080 HD
ENDBRANCH  15  16
ENDBRANCH  14  15
ENDBRANCH  13  14
ENDBRANCH  12  13
ENDBRANCH   3  12
TORSDOF 5
ENDMDL
MODEL 6
REMARK VINA RESULT:      -7.6      7.932     10.361
REMARK  Name = 657073
REMARK  5 active torsions:
REMARK  status: ('A' for Active; 'I' for Inactive)
REMARK    1  A    between atoms: C_3  and  O_12
REMARK    2  A    between atoms: O_12  and  C_13
REMARK    3  A    between atoms: C_13  and  C_14
REMARK    4  A    between atoms: C_14  and  C_15
REMARK    5  A    between atoms: C_15  and  N_16
REMARK                            x       y       z     vdW  Elec       q    Type
REMARK                         _______ _______ _______ _____ _____    ______ ____
ROOT
ATOM      1  S   UNL     1      37.341 -22.244 -16.263  0.00  0.00    -0.046 S 
ATOM      2  O   UNL     1      37.656 -23.143 -13.852  0.00  0.00    -0.279 OA
ATOM      3  C   UNL     1      34.515 -23.470 -15.562  0.00  0.00    +0.143 C 
ATOM      4  C   UNL     1      34.679 -22.869 -16.897  0.00  0.00    +0.040 C 
ATOM      5  C   UNL     1      35.897 -22.300 -17.299  0.00  0.00    +0.035 C 
ATOM      6  C   UNL     1      35.483 -23.530 -14.639  0.00  0.00    +0.086 C 
ATOM      7  C   UNL     1      33.603 -22.853 -17.807  0.00  0.00    +0.004 C 
ATOM      8  C   UNL     1      36.019 -21.736 -18.582  0.00  0.00    +0.007 C 
ATOM      9  C   UNL     1      36.861 -23.020 -14.778  0.00  0.00    +0.229 C 
ATOM     10  C   UNL     1      33.733 -22.292 -19.079  0.00  0.00    +0.000 C 
ATOM     11  C   UNL     1      34.942 -21.733 -19.466  0.00  0.00    +0.001 C 
ENDROOT
BRANCH   3  12
ATOM     12  O   UNL     1      33.258 -23.992 -15.298  0.00  0.00    -0.475 OA
BRANCH  12  13
ATOM     13  C   UNL     1      32.976 -23.924 -13.917  0.00  0.00    +0.203 C 
BRANCH  13  14
ATOM     14  C   UNL     1      31.486 -23.672 -13.731  0.00  0.00    +0.025 C 
BRANCH  14  15
ATOM     15  C   UNL     1      30.926 -22.787 -14.840  0.00  0.00    -0.074 C 
BRANCH  15  16
ATOM     16  N   UNL     1      30.214 -23.595 -15.823  0.00  0.00    +0.384 N 
ATOM     17  C   UNL     1      29.200 -22.795 -16.512  0.00  0.00    -0.101 C 
ATOM     18  C   UNL     1      29.595 -24.758 -15.185  0.00  0.00    -0.101 C 
ATOM     19  H   UNL     1      30.891 -23.926 -16.513  0.00  0.00    -0.080 HD
ENDBRANCH  15  16
ENDBRANCH  14  15
ENDBRANCH  13  14
ENDBRANCH  12  13
ENDBRANCH   3  12
TORSDOF 5
ENDMDL
MODEL 7
REMARK VINA RESULT:      -7.5      6.165      9.877
REMARK  Name = 657073
REMARK  5 active torsions:
REMARK  status: ('A' for Active; 'I' for Inactive)
REMARK    1  A    between atoms: C_3  and  O_12
REMARK    2  A    between atoms: O_12  and  C_13
REMARK    3  A    between atoms: C_13  and  C_14
REMARK    4  A    between atoms: C_14  and  C_15
REMARK    5  A    between atoms: C_15  and  N_16
REMARK                            x       y       z     vdW  Elec       q    Type
REMARK                         _______ _______ _______ _____ _____    ______ ____
ROOT
ATOM      1  S   UNL     1      35.384 -23.858 -13.635  0.00  0.00    -0.046 S 
ATOM      2  O   UNL     1      37.892 -23.404 -14.108  0.00  0.00    -0.279 OA
ATOM      3  C   UNL     1      35.396 -22.864 -16.634  0.00  0.00    +0.143 C 
ATOM      4  C   UNL     1      34.092 -23.207 -16.040  0.00  0.00    +0.040 C 
ATOM      5  C   UNL     1      33.985 -23.657 -14.716  0.00  0.00    +0.035 C 
ATOM      6  C   UNL     1      36.563 -22.944 -15.984  0.00  0.00    +0.086 C 
ATOM      7  C   UNL     1      32.911 -23.088 -16.801  0.00  0.00    +0.004 C 
ATOM      8  C   UNL     1      32.724 -23.974 -14.181  0.00  0.00    +0.007 C 
ATOM      9  C   UNL     1      36.763 -23.380 -14.587  0.00  0.00    +0.229 C 
ATOM     10  C   UNL     1      31.663 -23.404 -16.262  0.00  0.00    +0.000 C 
ATOM     11  C   UNL     1      31.570 -23.848 -14.950  0.00  0.00    +0.001 C 
ENDROOT
BRANCH   3  12
ATOM     12  O   UNL     1      35.353 -22.435 -17.952  0.00  0.00    -0.475 OA
BRANCH  12  13
ATOM     13  C   UNL     1      36.493 -21.662 -18.256  0.00  0.00    +0.203 C 
BRANCH  13  14
ATOM     14  C   UNL     1      36.452 -21.283 -19.730  0.00  0.00    +0.025 C 
BRANCH  14  15
ATOM     15  C   UNL     1      35.068 -20.790 -20.142  0.00  0.00    -0.074 C 
BRANCH  15  16
ATOM     16  N   UNL     1      35.130 -19.391 -20.549  0.00  0.00    +0.384 N 
ATOM     17  C   UNL     1      34.149 -19.115 -21.599  0.00  0.00    -0.101 C 
ATOM     18  C   UNL     1      36.476 -19.046 -21.009  0.00  0.00    -0.101 C 
ATOM     19  H   UNL     1      34.907 -18.813 -19.737  0.00  0.00    -0.080 HD
ENDBRANCH  15  16
ENDBRANCH  14  15
ENDBRANCH  13  14
ENDBRANCH  12  13
ENDBRANCH   3  12
TORSDOF 5
ENDMDL
MODEL 8
REMARK VINA RESULT:      -7.5      3.952      7.131
REMARK  Name = 657073
REMARK  5 active torsions:
REMARK  status: ('A' for Active; 'I' for Inactive)
REMARK    1  A    between atoms: C_3  and  O_12
REMARK    2  A    between atoms: O_12  and  C_13
REMARK    3  A    between atoms: C_13  and  C_14
REMARK    4  A    between atoms: C_14  and  C_15
REMARK    5  A    between atoms: C_15  and  N_16
REMARK                            x       y       z     vdW  Elec       q    Type
REMARK                         _______ _______ _______ _____ _____    ______ ____
ROOT
ATOM      1  S   UNL     1      34.905 -16.595 -22.483  0.00  0.00    -0.046 S 
ATOM      2  O   UNL     1      35.043 -16.077 -19.947  0.00  0.00    -0.279 OA
ATOM      3  C   UNL     1      33.209 -13.946 -22.182  0.00  0.00    +0.143 C 
ATOM      4  C   UNL     1      33.326 -14.524 -23.532  0.00  0.00    +0.040 C 
ATOM      5  C   UNL     1      34.058 -15.699 -23.765  0.00  0.00    +0.035 C 
ATOM      6  C   UNL     1      33.770 -14.473 -21.086  0.00  0.00    +0.086 C 
ATOM      7  C   UNL     1      32.698 -13.902 -24.629  0.00  0.00    +0.004 C 
ATOM      8  C   UNL     1      34.147 -16.224 -25.067  0.00  0.00    +0.007 C 
ATOM      9  C   UNL     1      34.590 -15.699 -21.021  0.00  0.00    +0.229 C 
ATOM     10  C   UNL     1      32.792 -14.430 -25.918  0.00  0.00    +0.000 C 
ATOM     11  C   UNL     1      33.518 -15.593 -26.136  0.00  0.00    +0.001 C 
ENDROOT
BRANCH   3  12
ATOM     12  O   UNL     1      32.459 -12.783 -22.099  0.00  0.00    -0.475 OA
BRANCH  12  13
ATOM     13  C   UNL     1      31.987 -12.595 -20.782  0.00  0.00    +0.203 C 
BRANCH  13  14
ATOM     14  C   UNL     1      31.065 -11.383 -20.759  0.00  0.00    +0.025 C 
BRANCH  14  15
ATOM     15  C   UNL     1      31.095 -10.632 -22.086  0.00  0.00    -0.074 C 
BRANCH  15  16
ATOM     16  N   UNL     1      32.309  -9.832 -22.189  0.00  0.00    +0.384 N 
ATOM     17  C   UNL     1      32.203  -8.626 -21.366  0.00  0.00    -0.101 C 
ATOM     18  C   UNL     1      32.575  -9.474 -23.583  0.00  0.00    -0.101 C 
ATOM     19  H   UNL     1      33.090 -10.393 -21.844  0.00  0.00    -0.080 HD
ENDBRANCH  15  16
ENDBRANCH  14  15
ENDBRANCH  13  14
ENDBRANCH  12  13
ENDBRANCH   3  12
TORSDOF 5
ENDMDL
MODEL 9
REMARK VINA RESULT:      -7.4      3.366      6.335
REMARK  Name = 657073
REMARK  5 active torsions:
REMARK  status: ('A' for Active; 'I' for Inactive)
REMARK    1  A    between atoms: C_3  and  O_12
REMARK    2  A    between atoms: O_12  and  C_13
REMARK    3  A    between atoms: C_13  and  C_14
REMARK    4  A    between atoms: C_14  and  C_15
REMARK    5  A    between atoms: C_15  and  N_16
REMARK                            x       y       z     vdW  Elec       q    Type
REMARK                         _______ _______ _______ _____ _____    ______ ____
ROOT
ATOM      1  S   UNL     1      35.303 -18.522 -23.038  0.00  0.00    -0.046 S 
ATOM      2  O   UNL     1      35.946 -18.901 -20.556  0.00  0.00    -0.279 OA
ATOM      3  C   UNL     1      34.531 -15.788 -21.655  0.00  0.00    +0.143 C 
ATOM      4  C   UNL     1      34.279 -15.909 -23.102  0.00  0.00    +0.040 C 
ATOM      5  C   UNL     1      34.589 -17.084 -23.803  0.00  0.00    +0.035 C 
ATOM      6  C   UNL     1      35.059 -16.759 -20.900  0.00  0.00    +0.086 C 
ATOM      7  C   UNL     1      33.716 -14.834 -23.818  0.00  0.00    +0.004 C 
ATOM      8  C   UNL     1      34.333 -17.166 -25.184  0.00  0.00    +0.007 C 
ATOM      9  C   UNL     1      35.478 -18.099 -21.356  0.00  0.00    +0.229 C 
ATOM     10  C   UNL     1      33.465 -14.924 -25.189  0.00  0.00    +0.000 C 
ATOM     11  C   UNL     1      33.775 -16.091 -25.872  0.00  0.00    +0.001 C 
ENDROOT
BRANCH   3  12
ATOM     12  O   UNL     1      34.179 -14.571 -21.093  0.00  0.00    -0.475 OA
BRANCH  12  13
ATOM     13  C   UNL     1      32.872 -14.631 -20.565  0.00  0.00    +0.203 C 
BRANCH  13  14
ATOM     14  C   UNL     1      32.317 -13.218 -20.461  0.00  0.00    +0.025 C 
BRANCH  14  15
ATOM     15  C   UNL     1      31.880 -12.687 -21.823  0.00  0.00    -0.074 C 
BRANCH  15  16
ATOM     16  N   UNL     1      31.028 -11.515 -21.660  0.00  0.00    +0.384 N 
ATOM     17  C   UNL     1      31.547 -10.388 -22.437  0.00  0.00    -0.101 C 
ATOM     18  C   UNL     1      30.918 -11.149 -20.248  0.00  0.00    -0.101 C 
ATOM     19  H   UNL     1      30.097 -11.748 -22.009  0.00  0.00    -0.080 HD
ENDBRANCH  15  16
ENDBRANCH  14  15
ENDBRANCH  13  14
ENDBRANCH  12  13
ENDBRANCH   3  12
TORSDOF 5
ENDMDL
