MODEL 1
REMARK VINA RESULT:      -7.7      0.000      0.000
REMARK  Name = 5790
REMARK  4 active torsions:
REMARK  status: ('A' for Active; 'I' for Inactive)
REMARK    1  A    between atoms: N_4  and  C1*_13
REMARK    2  A    between atoms: C3*_12  and  O3*_16
REMARK    3  A    between atoms: C4*_15  and  C5*_18
REMARK    4  A    between atoms: C5*_18  and  O5*_19
REMARK                            x       y       z     vdW  Elec       q    Type
REMARK                         _______ _______ _______ _____ _____    ______ ____
ROOT
ATOM      1  F   UNL     1      30.632 -23.158 -14.390  0.00  0.00    -0.198 F 
ATOM      2  O   UNL     1      34.300 -23.107 -18.364  0.00  0.00    -0.252 OA
ATOM      3  O   UNL     1      29.952 -22.502 -16.939  0.00  0.00    -0.267 OA
ATOM      4  N   UNL     1      33.817 -23.467 -16.105  0.00  0.00    -0.216 N 
ATOM      5  N   UNL     1      32.136 -22.807 -17.654  0.00  0.00    -0.234 N 
ATOM      6  C   UNL     1      33.485 -23.128 -17.439  0.00  0.00    +0.316 C 
ATOM      7  C   UNL     1      32.841 -23.467 -15.117  0.00  0.00    +0.105 C 
ATOM      8  C   UNL     1      31.568 -23.157 -15.355  0.00  0.00    +0.208 C 
ATOM      9  C   UNL     1      31.120 -22.790 -16.708  0.00  0.00    +0.282 C 
ATOM     10  H   UNL     1      31.882 -22.568 -18.575  0.00  0.00    +0.159 HD
ENDROOT
BRANCH   4  13
ATOM     11  O4* UNL     1      35.127 -24.786 -14.682  0.00  0.00    -0.335 OA
ATOM     12  C3* UNL     1      36.881 -23.259 -14.220  0.00  0.00    +0.144 C 
ATOM     13  C1* UNL     1      35.159 -23.817 -15.740  0.00  0.00    +0.202 C 
ATOM     14  C2* UNL     1      35.964 -22.628 -15.242  0.00  0.00    +0.083 C 
ATOM     15  C4* UNL     1      36.029 -24.378 -13.636  0.00  0.00    +0.173 C 
BRANCH  12  16
ATOM     16  O3* UNL     1      38.022 -23.810 -14.873  0.00  0.00    -0.382 OA
ATOM     17  H3* UNL     1      38.012 -24.776 -14.781  0.00  0.00    +0.210 HD
ENDBRANCH  12  16
BRANCH  15  18
ATOM     18  C5* UNL     1      35.192 -23.925 -12.447  0.00  0.00    +0.169 C 
BRANCH  18  19
ATOM     19  O5* UNL     1      34.884 -25.056 -11.646  0.00  0.00    -0.379 OA
ATOM     20  H5* UNL     1      35.705 -25.442 -11.303  0.00  0.00    +0.211 HD
ENDBRANCH  18  19
ENDBRANCH  15  18
ENDBRANCH   4  13
TORSDOF 4
ENDMDL
MODEL 2
REMARK VINA RESULT:      -7.7      2.016      2.823
REMARK  Name = 5790
REMARK  4 active torsions:
REMARK  status: ('A' for Active; 'I' for Inactive)
REMARK    1  A    between atoms: N_4  and  C1*_13
REMARK    2  A    between atoms: C3*_12  and  O3*_16
REMARK    3  A    between atoms: C4*_15  and  C5*_18
REMARK    4  A    between atoms: C5*_18  and  O5*_19
REMARK                            x       y       z     vdW  Elec       q    Type
REMARK                         _______ _______ _______ _____ _____    ______ ____
ROOT
ATOM      1  F   UNL     1      32.609 -24.121 -15.179  0.00  0.00    -0.198 F 
ATOM      2  O   UNL     1      37.367 -22.082 -16.743  0.00  0.00    -0.252 OA
ATOM      3  O   UNL     1      32.970 -23.123 -17.681  0.00  0.00    -0.267 OA
ATOM      4  N   UNL     1      36.084 -23.079 -15.062  0.00  0.00    -0.216 N 
ATOM      5  N   UNL     1      35.178 -22.601 -17.210  0.00  0.00    -0.234 N 
ATOM      6  C   UNL     1      36.294 -22.554 -16.359  0.00  0.00    +0.316 C 
ATOM      7  C   UNL     1      34.845 -23.592 -14.704  0.00  0.00    +0.105 C 
ATOM      8  C   UNL     1      33.805 -23.622 -15.536  0.00  0.00    +0.208 C 
ATOM      9  C   UNL     1      33.919 -23.102 -16.907  0.00  0.00    +0.282 C 
ATOM     10  H   UNL     1      35.301 -22.241 -18.118  0.00  0.00    +0.159 HD
ENDROOT
BRANCH   4  13
ATOM     11  O4* UNL     1      38.003 -24.210 -14.343  0.00  0.00    -0.335 OA
ATOM     12  C3* UNL     1      37.724 -24.024 -11.995  0.00  0.00    +0.144 C 
ATOM     13  C1* UNL     1      37.137 -23.095 -14.088  0.00  0.00    +0.202 C 
ATOM     14  C2* UNL     1      36.622 -23.236 -12.665  0.00  0.00    +0.083 C 
ATOM     15  C4* UNL     1      38.232 -24.925 -13.113  0.00  0.00    +0.173 C 
BRANCH  12  16
ATOM     16  O3* UNL     1      38.761 -23.140 -11.577  0.00  0.00    -0.382 OA
ATOM     17  H3* UNL     1      39.607 -23.615 -11.570  0.00  0.00    +0.210 HD
ENDBRANCH  12  16
BRANCH  15  18
ATOM     18  C5* UNL     1      37.482 -26.248 -13.194  0.00  0.00    +0.169 C 
BRANCH  18  19
ATOM     19  O5* UNL     1      36.874 -26.508 -11.939  0.00  0.00    -0.379 OA
ATOM     20  H5* UNL     1      36.828 -25.686 -11.425  0.00  0.00    +0.211 HD
ENDBRANCH  18  19
ENDBRANCH  15  18
ENDBRANCH   4  13
TORSDOF 4
ENDMDL
MODEL 3
REMARK VINA RESULT:      -7.7      6.446      8.686
REMARK  Name = 5790
REMARK  4 active torsions:
REMARK  status: ('A' for Active; 'I' for Inactive)
REMARK    1  A    between atoms: N_4  and  C1*_13
REMARK    2  A    between atoms: C3*_12  and  O3*_16
REMARK    3  A    between atoms: C4*_15  and  C5*_18
REMARK    4  A    between atoms: C5*_18  and  O5*_19
REMARK                            x       y       z     vdW  Elec       q    Type
REMARK                         _______ _______ _______ _____ _____    ______ ____
ROOT
ATOM      1  F   UNL     1      32.592 -21.266 -19.823  0.00  0.00    -0.198 F 
ATOM      2  O   UNL     1      37.714 -19.680 -20.516  0.00  0.00    -0.252 OA
ATOM      3  O   UNL     1      34.669 -22.704 -18.821  0.00  0.00    -0.267 OA
ATOM      4  N   UNL     1      35.440 -19.283 -20.886  0.00  0.00    -0.216 N 
ATOM      5  N   UNL     1      36.198 -21.184 -19.672  0.00  0.00    -0.234 N 
ATOM      6  C   UNL     1      36.537 -20.016 -20.373  0.00  0.00    +0.316 C 
ATOM      7  C   UNL     1      34.141 -19.729 -20.683  0.00  0.00    +0.105 C 
ATOM      8  C   UNL     1      33.854 -20.843 -20.013  0.00  0.00    +0.208 C 
ATOM      9  C   UNL     1      34.921 -21.677 -19.439  0.00  0.00    +0.282 C 
ATOM     10  H   UNL     1      36.946 -21.710 -19.306  0.00  0.00    +0.159 HD
ENDROOT
BRANCH   4  13
ATOM     11  O4* UNL     1      35.289 -16.949 -20.798  0.00  0.00    -0.335 OA
ATOM     12  C3* UNL     1      34.500 -16.514 -22.991  0.00  0.00    +0.144 C 
ATOM     13  C1* UNL     1      35.639 -18.068 -21.623  0.00  0.00    +0.202 C 
ATOM     14  C2* UNL     1      34.783 -17.994 -22.877  0.00  0.00    +0.083 C 
ATOM     15  C4* UNL     1      34.426 -16.063 -21.539  0.00  0.00    +0.173 C 
BRANCH  12  16
ATOM     16  O3* UNL     1      35.588 -15.865 -23.645  0.00  0.00    -0.382 OA
ATOM     17  H3* UNL     1      35.375 -14.927 -23.771  0.00  0.00    +0.210 HD
ENDBRANCH  12  16
BRANCH  15  18
ATOM     18  C5* UNL     1      33.025 -16.177 -20.953  0.00  0.00    +0.169 C 
BRANCH  18  19
ATOM     19  O5* UNL     1      32.197 -15.192 -21.552  0.00  0.00    -0.379 OA
ATOM     20  H5* UNL     1      31.319 -15.215 -21.140  0.00  0.00    +0.211 HD
ENDBRANCH  18  19
ENDBRANCH  15  18
ENDBRANCH   4  13
TORSDOF 4
ENDMDL
MODEL 4
REMARK VINA RESULT:      -7.5      1.712      2.277
REMARK  Name = 5790
REMARK  4 active torsions:
REMARK  status: ('A' for Active; 'I' for Inactive)
REMARK    1  A    between atoms: N_4  and  C1*_13
REMARK    2  A    between atoms: C3*_12  and  O3*_16
REMARK    3  A    between atoms: C4*_15  and  C5*_18
REMARK    4  A    between atoms: C5*_18  and  O5*_19
REMARK                            x       y       z     vdW  Elec       q    Type
REMARK                         _______ _______ _______ _____ _____    ______ ____
ROOT
ATOM      1  F   UNL     1      31.335 -24.497 -13.495  0.00  0.00    -0.198 F 
ATOM      2  O   UNL     1      34.875 -22.911 -17.263  0.00  0.00    -0.252 OA
ATOM      3  O   UNL     1      30.518 -23.707 -15.964  0.00  0.00    -0.267 OA
ATOM      4  N   UNL     1      34.494 -23.694 -15.093  0.00  0.00    -0.216 N 
ATOM      5  N   UNL     1      32.707 -23.309 -16.616  0.00  0.00    -0.234 N 
ATOM      6  C   UNL     1      34.091 -23.279 -16.385  0.00  0.00    +0.316 C 
ATOM      7  C   UNL     1      33.549 -24.093 -14.157  0.00  0.00    +0.105 C 
ATOM      8  C   UNL     1      32.241 -24.110 -14.409  0.00  0.00    +0.208 C 
ATOM      9  C   UNL     1      31.719 -23.697 -15.721  0.00  0.00    +0.282 C 
ATOM     10  H   UNL     1      32.403 -23.024 -17.509  0.00  0.00    +0.159 HD
ENDROOT
BRANCH   4  13
ATOM     11  O4* UNL     1      36.601 -24.572 -15.613  0.00  0.00    -0.335 OA
ATOM     12  C3* UNL     1      37.439 -24.930 -13.424  0.00  0.00    +0.144 C 
ATOM     13  C1* UNL     1      35.878 -23.714 -14.718  0.00  0.00    +0.202 C 
ATOM     14  C2* UNL     1      36.099 -24.240 -13.309  0.00  0.00    +0.083 C 
ATOM     15  C4* UNL     1      37.427 -25.470 -14.848  0.00  0.00    +0.173 C 
BRANCH  12  16
ATOM     16  O3* UNL     1      38.486 -23.974 -13.277  0.00  0.00    -0.382 OA
ATOM     17  H3* UNL     1      38.662 -23.829 -12.333  0.00  0.00    +0.210 HD
ENDBRANCH  12  16
BRANCH  15  18
ATOM     18  C5* UNL     1      36.822 -26.863 -14.947  0.00  0.00    +0.169 C 
BRANCH  18  19
ATOM     19  O5* UNL     1      36.770 -27.244 -16.313  0.00  0.00    -0.379 OA
ATOM     20  H5* UNL     1      36.527 -26.476 -16.854  0.00  0.00    +0.211 HD
ENDBRANCH  18  19
ENDBRANCH  15  18
ENDBRANCH   4  13
TORSDOF 4
ENDMDL
MODEL 5
REMARK VINA RESULT:      -7.5      2.066      3.086
REMARK  Name = 5790
REMARK  4 active torsions:
REMARK  status: ('A' for Active; 'I' for Inactive)
REMARK    1  A    between atoms: N_4  and  C1*_13
REMARK    2  A    between atoms: C3*_12  and  O3*_16
REMARK    3  A    between atoms: C4*_15  and  C5*_18
REMARK    4  A    between atoms: C5*_18  and  O5*_19
REMARK                            x       y       z     vdW  Elec       q    Type
REMARK                         _______ _______ _______ _____ _____    ______ ____
ROOT
ATOM      1  F   UNL     1      33.008 -22.546 -18.080  0.00  0.00    -0.198 F 
ATOM      2  O   UNL     1      32.265 -24.674 -13.165  0.00  0.00    -0.252 OA
ATOM      3  O   UNL     1      30.535 -22.703 -16.963  0.00  0.00    -0.267 OA
ATOM      4  N   UNL     1      33.743 -24.101 -14.884  0.00  0.00    -0.216 N 
ATOM      5  N   UNL     1      31.404 -23.692 -15.055  0.00  0.00    -0.234 N 
ATOM      6  C   UNL     1      32.464 -24.193 -14.283  0.00  0.00    +0.316 C 
ATOM      7  C   UNL     1      33.885 -23.547 -16.149  0.00  0.00    +0.105 C 
ATOM      8  C   UNL     1      32.858 -23.079 -16.856  0.00  0.00    +0.208 C 
ATOM      9  C   UNL     1      31.488 -23.128 -16.321  0.00  0.00    +0.282 C 
ATOM     10  H   UNL     1      30.505 -23.745 -14.657  0.00  0.00    +0.159 HD
ENDROOT
BRANCH   4  13
ATOM     11  O4* UNL     1      35.757 -23.459 -13.880  0.00  0.00    -0.335 OA
ATOM     12  C3* UNL     1      37.150 -25.238 -14.602  0.00  0.00    +0.144 C 
ATOM     13  C1* UNL     1      34.916 -24.574 -14.208  0.00  0.00    +0.202 C 
ATOM     14  C2* UNL     1      35.739 -25.530 -15.056  0.00  0.00    +0.083 C 
ATOM     15  C4* UNL     1      37.109 -23.749 -14.285  0.00  0.00    +0.173 C 
BRANCH  12  16
ATOM     16  O3* UNL     1      37.436 -25.977 -13.417  0.00  0.00    -0.382 OA
ATOM     17  H3* UNL     1      38.397 -26.032 -13.294  0.00  0.00    +0.210 HD
ENDBRANCH  12  16
BRANCH  15  18
ATOM     18  C5* UNL     1      37.433 -22.878 -15.492  0.00  0.00    +0.169 C 
BRANCH  18  19
ATOM     19  O5* UNL     1      38.660 -23.313 -16.055  0.00  0.00    -0.379 OA
ATOM     20  H5* UNL     1      39.147 -23.839 -15.402  0.00  0.00    +0.211 HD
ENDBRANCH  18  19
ENDBRANCH  15  18
ENDBRANCH   4  13
TORSDOF 4
ENDMDL
MODEL 6
REMARK VINA RESULT:      -7.3      8.442     10.019
REMARK  Name = 5790
REMARK  4 active torsions:
REMARK  status: ('A' for Active; 'I' for Inactive)
REMARK    1  A    between atoms: N_4  and  C1*_13
REMARK    2  A    between atoms: C3*_12  and  O3*_16
REMARK    3  A    between atoms: C4*_15  and  C5*_18
REMARK    4  A    between atoms: C5*_18  and  O5*_19
REMARK                            x       y       z     vdW  Elec       q    Type
REMARK                         _______ _______ _______ _____ _____    ______ ____
ROOT
ATOM      1  F   UNL     1      33.690 -13.732 -22.642  0.00  0.00    -0.198 F 
ATOM      2  O   UNL     1      34.613 -18.196 -25.550  0.00  0.00    -0.252 OA
ATOM      3  O   UNL     1      33.040 -13.867 -25.278  0.00  0.00    -0.267 OA
ATOM      4  N   UNL     1      34.743 -17.101 -23.489  0.00  0.00    -0.216 N 
ATOM      5  N   UNL     1      33.829 -16.042 -25.414  0.00  0.00    -0.234 N 
ATOM      6  C   UNL     1      34.413 -17.193 -24.863  0.00  0.00    +0.316 C 
ATOM      7  C   UNL     1      34.488 -15.934 -22.782  0.00  0.00    +0.105 C 
ATOM      8  C   UNL     1      33.932 -14.858 -23.336  0.00  0.00    +0.208 C 
ATOM      9  C   UNL     1      33.551 -14.851 -24.757  0.00  0.00    +0.282 C 
ATOM     10  H   UNL     1      33.591 -16.083 -26.368  0.00  0.00    +0.159 HD
ENDROOT
BRANCH   4  13
ATOM     11  O4* UNL     1      34.443 -19.317 -22.798  0.00  0.00    -0.335 OA
ATOM     12  C3* UNL     1      35.471 -19.216 -20.664  0.00  0.00    +0.144 C 
ATOM     13  C1* UNL     1      35.346 -18.203 -22.795  0.00  0.00    +0.202 C 
ATOM     14  C2* UNL     1      35.666 -17.881 -21.345  0.00  0.00    +0.083 C 
ATOM     15  C4* UNL     1      34.341 -19.849 -21.463  0.00  0.00    +0.173 C 
BRANCH  12  16
ATOM     16  O3* UNL     1      36.655 -20.000 -20.794  0.00  0.00    -0.382 OA
ATOM     17  H3* UNL     1      37.429 -19.415 -20.813  0.00  0.00    +0.210 HD
ENDBRANCH  12  16
BRANCH  15  18
ATOM     18  C5* UNL     1      32.962 -19.493 -20.922  0.00  0.00    +0.169 C 
BRANCH  18  19
ATOM     19  O5* UNL     1      32.612 -20.425 -19.910  0.00  0.00    -0.379 OA
ATOM     20  H5* UNL     1      33.275 -21.132 -19.880  0.00  0.00    +0.211 HD
ENDBRANCH  18  19
ENDBRANCH  15  18
ENDBRANCH   4  13
TORSDOF 4
ENDMDL
MODEL 7
REMARK VINA RESULT:      -7.3     14.462     16.068
REMARK  Name = 5790
REMARK  4 active torsions:
REMARK  status: ('A' for Active; 'I' for Inactive)
REMARK    1  A    between atoms: N_4  and  C1*_13
REMARK    2  A    between atoms: C3*_12  and  O3*_16
REMARK    3  A    between atoms: C4*_15  and  C5*_18
REMARK    4  A    between atoms: C5*_18  and  O5*_19
REMARK                            x       y       z     vdW  Elec       q    Type
REMARK                         _______ _______ _______ _____ _____    ______ ____
ROOT
ATOM      1  F   UNL     1      31.573 -13.100 -21.740  0.00  0.00    -0.198 F 
ATOM      2  O   UNL     1      34.796 -10.185 -24.958  0.00  0.00    -0.252 OA
ATOM      3  O   UNL     1      33.575 -14.260 -23.167  0.00  0.00    -0.267 OA
ATOM      4  N   UNL     1      32.999 -10.241 -23.464  0.00  0.00    -0.216 N 
ATOM      5  N   UNL     1      34.189 -12.213 -24.066  0.00  0.00    -0.234 N 
ATOM      6  C   UNL     1      34.047 -10.824 -24.216  0.00  0.00    +0.316 C 
ATOM      7  C   UNL     1      32.196 -11.030 -22.650  0.00  0.00    +0.105 C 
ATOM      8  C   UNL     1      32.357 -12.346 -22.530  0.00  0.00    +0.208 C 
ATOM      9  C   UNL     1      33.417 -13.049 -23.269  0.00  0.00    +0.282 C 
ATOM     10  H   UNL     1      34.912 -12.640 -24.580  0.00  0.00    +0.159 HD
ENDROOT
BRANCH   4  13
ATOM     11  O4* UNL     1      33.507  -8.166 -22.507  0.00  0.00    -0.335 OA
ATOM     12  C3* UNL     1      31.364  -7.153 -22.585  0.00  0.00    +0.144 C 
ATOM     13  C1* UNL     1      32.740  -8.832 -23.521  0.00  0.00    +0.202 C 
ATOM     14  C2* UNL     1      31.278  -8.491 -23.280  0.00  0.00    +0.083 C 
ATOM     15  C4* UNL     1      32.651  -7.266 -21.778  0.00  0.00    +0.173 C 
BRANCH  12  16
ATOM     16  O3* UNL     1      31.490  -6.115 -23.553  0.00  0.00    -0.382 OA
ATOM     17  H3* UNL     1      30.624  -5.701 -23.698  0.00  0.00    +0.210 HD
ENDBRANCH  12  16
BRANCH  15  18
ATOM     18  C5* UNL     1      32.429  -7.852 -20.390  0.00  0.00    +0.169 C 
BRANCH  18  19
ATOM     19  O5* UNL     1      33.198  -7.114 -19.452  0.00  0.00    -0.379 OA
ATOM     20  H5* UNL     1      34.141  -7.282 -19.604  0.00  0.00    +0.211 HD
ENDBRANCH  18  19
ENDBRANCH  15  18
ENDBRANCH   4  13
TORSDOF 4
ENDMDL
MODEL 8
REMARK VINA RESULT:      -7.3      3.600      6.405
REMARK  Name = 5790
REMARK  4 active torsions:
REMARK  status: ('A' for Active; 'I' for Inactive)
REMARK    1  A    between atoms: N_4  and  C1*_13
REMARK    2  A    between atoms: C3*_12  and  O3*_16
REMARK    3  A    between atoms: C4*_15  and  C5*_18
REMARK    4  A    between atoms: C5*_18  and  O5*_19
REMARK                            x       y       z     vdW  Elec       q    Type
REMARK                         _______ _______ _______ _____ _____    ______ ____
ROOT
ATOM      1  F   UNL     1      39.389 -23.781 -16.066  0.00  0.00    -0.198 F 
ATOM      2  O   UNL     1      37.310 -26.634 -11.970  0.00  0.00    -0.252 OA
ATOM      3  O   UNL     1      40.985 -25.070 -14.281  0.00  0.00    -0.267 OA
ATOM      4  N   UNL     1      36.944 -25.299 -13.854  0.00  0.00    -0.216 N 
ATOM      5  N   UNL     1      39.138 -25.856 -13.121  0.00  0.00    -0.234 N 
ATOM      6  C   UNL     1      37.756 -25.978 -12.913  0.00  0.00    +0.316 C 
ATOM      7  C   UNL     1      37.522 -24.578 -14.890  0.00  0.00    +0.105 C 
ATOM      8  C   UNL     1      38.840 -24.483 -15.059  0.00  0.00    +0.208 C 
ATOM      9  C   UNL     1      39.771 -25.151 -14.137  0.00  0.00    +0.282 C 
ATOM     10  H   UNL     1      39.723 -26.320 -12.479  0.00  0.00    +0.159 HD
ENDROOT
BRANCH   4  13
ATOM     11  O4* UNL     1      34.949 -25.155 -15.070  0.00  0.00    -0.335 OA
ATOM     12  C3* UNL     1      33.625 -23.935 -13.527  0.00  0.00    +0.144 C 
ATOM     13  C1* UNL     1      35.513 -25.337 -13.763  0.00  0.00    +0.202 C 
ATOM     14  C2* UNL     1      34.950 -24.244 -12.869  0.00  0.00    +0.083 C 
ATOM     15  C4* UNL     1      33.913 -24.155 -15.005  0.00  0.00    +0.173 C 
BRANCH  12  16
ATOM     16  O3* UNL     1      32.639 -24.864 -13.082  0.00  0.00    -0.382 OA
ATOM     17  H3* UNL     1      31.866 -24.819 -13.667  0.00  0.00    +0.210 HD
ENDBRANCH  12  16
BRANCH  15  18
ATOM     18  C5* UNL     1      34.429 -22.902 -15.701  0.00  0.00    +0.169 C 
BRANCH  18  19
ATOM     19  O5* UNL     1      34.953 -23.264 -16.969  0.00  0.00    -0.379 OA
ATOM     20  H5* UNL     1      35.844 -23.630 -16.857  0.00  0.00    +0.211 HD
ENDBRANCH  18  19
ENDBRANCH  15  18
ENDBRANCH   4  13
TORSDOF 4
ENDMDL
MODEL 9
REMARK VINA RESULT:      -7.1     10.952     12.628
REMARK  Name = 5790
REMARK  4 active torsions:
REMARK  status: ('A' for Active; 'I' for Inactive)
REMARK    1  A    between atoms: N_4  and  C1*_13
REMARK    2  A    between atoms: C3*_12  and  O3*_16
REMARK    3  A    between atoms: C4*_15  and  C5*_18
REMARK    4  A    between atoms: C5*_18  and  O5*_19
REMARK                            x       y       z     vdW  Elec       q    Type
REMARK                         _______ _______ _______ _____ _____    ______ ____
ROOT
ATOM      1  F   UNL     1      32.585 -15.810 -27.044  0.00  0.00    -0.198 F 
ATOM      2  O   UNL     1      34.229 -11.848 -23.752  0.00  0.00    -0.252 OA
ATOM      3  O   UNL     1      32.485 -13.202 -27.805  0.00  0.00    -0.267 OA
ATOM      4  N   UNL     1      33.906 -14.136 -24.107  0.00  0.00    -0.216 N 
ATOM      5  N   UNL     1      33.362 -12.522 -25.769  0.00  0.00    -0.234 N 
ATOM      6  C   UNL     1      33.863 -12.771 -24.482  0.00  0.00    +0.316 C 
ATOM      7  C   UNL     1      33.473 -15.120 -24.986  0.00  0.00    +0.105 C 
ATOM      8  C   UNL     1      33.003 -14.849 -26.202  0.00  0.00    +0.208 C 
ATOM      9  C   UNL     1      32.916 -13.463 -26.688  0.00  0.00    +0.282 C 
ATOM     10  H   UNL     1      33.323 -11.580 -26.052  0.00  0.00    +0.159 HD
ENDROOT
BRANCH   4  13
ATOM     11  O4* UNL     1      35.411 -15.535 -22.986  0.00  0.00    -0.335 OA
ATOM     12  C3* UNL     1      34.075 -16.157 -21.129  0.00  0.00    +0.144 C 
ATOM     13  C1* UNL     1      34.395 -14.537 -22.819  0.00  0.00    +0.202 C 
ATOM     14  C2* UNL     1      33.311 -15.135 -21.938  0.00  0.00    +0.083 C 
ATOM     15  C4* UNL     1      35.142 -16.640 -22.102  0.00  0.00    +0.173 C 
BRANCH  12  16
ATOM     16  O3* UNL     1      34.692 -15.522 -20.011  0.00  0.00    -0.382 OA
ATOM     17  H3* UNL     1      34.119 -15.611 -19.233  0.00  0.00    +0.210 HD
ENDBRANCH  12  16
BRANCH  15  18
ATOM     18  C5* UNL     1      34.679 -17.817 -22.951  0.00  0.00    +0.169 C 
BRANCH  18  19
ATOM     19  O5* UNL     1      35.499 -17.899 -24.106  0.00  0.00    -0.379 OA
ATOM     20  H5* UNL     1      36.274 -18.451 -23.914  0.00  0.00    +0.211 HD
ENDBRANCH  18  19
ENDBRANCH  15  18
ENDBRANCH   4  13
TORSDOF 4
ENDMDL
