MODEL 1
REMARK VINA RESULT:      -6.3      0.000      0.000
REMARK  Name = 9996708
REMARK  5 active torsions:
REMARK  status: ('A' for Active; 'I' for Inactive)
REMARK    1  A    between atoms: C_2  and  O_6
REMARK    2  A    between atoms: C_3  and  C_12
REMARK    3  A    between atoms: C_4  and  O_8
REMARK    4  A    between atoms: C_5  and  O_10
REMARK    5  A    between atoms: C_12  and  O_13
REMARK                            x       y       z     vdW  Elec       q    Type
REMARK                         _______ _______ _______ _____ _____    ______ ____
ROOT
ATOM      1  O   UNL     1      38.235 -26.379 -15.152  0.00  0.00    -0.326 OA
ATOM      2  C   UNL     1      38.575 -25.349 -13.062  0.00  0.00    +0.172 C 
ATOM      3  C   UNL     1      38.896 -25.259 -14.543  0.00  0.00    +0.176 C 
ATOM      4  C   UNL     1      37.153 -25.856 -13.105  0.00  0.00    +0.196 C 
ATOM      5  C   UNL     1      37.198 -26.836 -14.268  0.00  0.00    +0.262 C 
ENDROOT
BRANCH   2   6
ATOM      6  O   UNL     1      38.668 -24.082 -12.441  0.00  0.00    -0.379 OA
ATOM      7  H   UNL     1      39.563 -23.729 -12.560  0.00  0.00    +0.211 HD
ENDBRANCH   2   6
BRANCH   4   8
ATOM      8  O   UNL     1      36.809 -26.505 -11.894  0.00  0.00    -0.378 OA
ATOM      9  H   UNL     1      36.009 -26.097 -11.524  0.00  0.00    +0.211 HD
ENDBRANCH   4   8
BRANCH   5  10
ATOM     10  O   UNL     1      35.931 -26.859 -14.909  0.00  0.00    -0.358 OA
ATOM     11  H   UNL     1      36.030 -26.579 -15.831  0.00  0.00    +0.213 HD
ENDBRANCH   5  10
BRANCH   3  12
ATOM     12  C   UNL     1      40.384 -25.317 -14.840  0.00  0.00    +0.169 C 
BRANCH  12  13
ATOM     13  O   UNL     1      40.581 -26.028 -16.051  0.00  0.00    -0.379 OA
ATOM     14  H   UNL     1      41.445 -26.470 -16.030  0.00  0.00    +0.211 HD
ENDBRANCH  12  13
ENDBRANCH   3  12
TORSDOF 5
ENDMDL
MODEL 2
REMARK VINA RESULT:      -6.1      1.161      2.550
REMARK  Name = 9996708
REMARK  5 active torsions:
REMARK  status: ('A' for Active; 'I' for Inactive)
REMARK    1  A    between atoms: C_2  and  O_6
REMARK    2  A    between atoms: C_3  and  C_12
REMARK    3  A    between atoms: C_4  and  O_8
REMARK    4  A    between atoms: C_5  and  O_10
REMARK    5  A    between atoms: C_12  and  O_13
REMARK                            x       y       z     vdW  Elec       q    Type
REMARK                         _______ _______ _______ _____ _____    ______ ____
ROOT
ATOM      1  O   UNL     1      39.207 -24.428 -12.920  0.00  0.00    -0.326 OA
ATOM      2  C   UNL     1      38.139 -25.971 -14.343  0.00  0.00    +0.172 C 
ATOM      3  C   UNL     1      39.487 -25.521 -13.809  0.00  0.00    +0.176 C 
ATOM      4  C   UNL     1      37.267 -25.781 -13.124  0.00  0.00    +0.196 C 
ATOM      5  C   UNL     1      37.826 -24.497 -12.528  0.00  0.00    +0.262 C 
ENDROOT
BRANCH   2   6
ATOM      6  O   UNL     1      38.179 -27.321 -14.761  0.00  0.00    -0.379 OA
ATOM      7  H   UNL     1      39.025 -27.715 -14.499  0.00  0.00    +0.211 HD
ENDBRANCH   2   6
BRANCH   4   8
ATOM      8  O   UNL     1      35.907 -25.633 -13.491  0.00  0.00    -0.378 OA
ATOM      9  H   UNL     1      35.430 -26.456 -13.302  0.00  0.00    +0.211 HD
ENDBRANCH   4   8
BRANCH   5  10
ATOM     10  O   UNL     1      37.680 -24.536 -11.116  0.00  0.00    -0.358 OA
ATOM     11  H   UNL     1      38.310 -25.170 -10.744  0.00  0.00    +0.213 HD
ENDBRANCH   5  10
BRANCH   3  12
ATOM     12  C   UNL     1      40.443 -25.066 -14.897  0.00  0.00    +0.169 C 
BRANCH  12  13
ATOM     13  O   UNL     1      40.375 -25.982 -15.978  0.00  0.00    -0.379 OA
ATOM     14  H   UNL     1      40.792 -25.589 -16.761  0.00  0.00    +0.211 HD
ENDBRANCH  12  13
ENDBRANCH   3  12
TORSDOF 5
ENDMDL
MODEL 3
REMARK VINA RESULT:      -5.9      1.648      3.167
REMARK  Name = 9996708
REMARK  5 active torsions:
REMARK  status: ('A' for Active; 'I' for Inactive)
REMARK    1  A    between atoms: C_2  and  O_6
REMARK    2  A    between atoms: C_3  and  C_12
REMARK    3  A    between atoms: C_4  and  O_8
REMARK    4  A    between atoms: C_5  and  O_10
REMARK    5  A    between atoms: C_12  and  O_13
REMARK                            x       y       z     vdW  Elec       q    Type
REMARK                         _______ _______ _______ _____ _____    ______ ____
ROOT
ATOM      1  O   UNL     1      37.945 -23.493 -12.911  0.00  0.00    -0.326 OA
ATOM      2  C   UNL     1      36.741 -25.500 -13.171  0.00  0.00    +0.172 C 
ATOM      3  C   UNL     1      38.095 -24.844 -13.375  0.00  0.00    +0.176 C 
ATOM      4  C   UNL     1      36.299 -24.857 -11.878  0.00  0.00    +0.196 C 
ATOM      5  C   UNL     1      36.801 -23.430 -12.043  0.00  0.00    +0.262 C 
ENDROOT
BRANCH   2   6
ATOM      6  O   UNL     1      36.866 -26.903 -13.051  0.00  0.00    -0.379 OA
ATOM      7  H   UNL     1      37.691 -27.116 -12.587  0.00  0.00    +0.211 HD
ENDBRANCH   2   6
BRANCH   4   8
ATOM      8  O   UNL     1      34.890 -24.899 -11.746  0.00  0.00    -0.378 OA
ATOM      9  H   UNL     1      34.651 -25.488 -11.013  0.00  0.00    +0.211 HD
ENDBRANCH   4   8
BRANCH   5  10
ATOM     10  O   UNL     1      37.135 -22.902 -10.768  0.00  0.00    -0.358 OA
ATOM     11  H   UNL     1      38.076 -23.055 -10.592  0.00  0.00    +0.213 HD
ENDBRANCH   5  10
BRANCH   3  12
ATOM     12  C   UNL     1      38.551 -24.842 -14.823  0.00  0.00    +0.169 C 
BRANCH  12  13
ATOM     13  O   UNL     1      38.296 -26.120 -15.384  0.00  0.00    -0.379 OA
ATOM     14  H   UNL     1      37.363 -26.350 -15.251  0.00  0.00    +0.211 HD
ENDBRANCH  12  13
ENDBRANCH   3  12
TORSDOF 5
ENDMDL
MODEL 4
REMARK VINA RESULT:      -5.7      2.527      2.981
REMARK  Name = 9996708
REMARK  5 active torsions:
REMARK  status: ('A' for Active; 'I' for Inactive)
REMARK    1  A    between atoms: C_2  and  O_6
REMARK    2  A    between atoms: C_3  and  C_12
REMARK    3  A    between atoms: C_4  and  O_8
REMARK    4  A    between atoms: C_5  and  O_10
REMARK    5  A    between atoms: C_12  and  O_13
REMARK                            x       y       z     vdW  Elec       q    Type
REMARK                         _______ _______ _______ _____ _____    ______ ____
ROOT
ATOM      1  O   UNL     1      36.000 -24.416 -13.517  0.00  0.00    -0.326 OA
ATOM      2  C   UNL     1      37.718 -23.993 -11.963  0.00  0.00    +0.172 C 
ATOM      3  C   UNL     1      37.349 -23.932 -13.434  0.00  0.00    +0.176 C 
ATOM      4  C   UNL     1      36.406 -23.614 -11.319  0.00  0.00    +0.196 C 
ATOM      5  C   UNL     1      35.396 -24.314 -12.215  0.00  0.00    +0.262 C 
ENDROOT
BRANCH   2   6
ATOM      6  O   UNL     1      38.747 -23.072 -11.655  0.00  0.00    -0.379 OA
ATOM      7  H   UNL     1      38.379 -22.176 -11.624  0.00  0.00    +0.211 HD
ENDBRANCH   2   6
BRANCH   4   8
ATOM      8  O   UNL     1      36.337 -24.092  -9.988  0.00  0.00    -0.378 OA
ATOM      9  H   UNL     1      35.452 -24.455  -9.821  0.00  0.00    +0.211 HD
ENDBRANCH   4   8
BRANCH   5  10
ATOM     10  O   UNL     1      34.196 -23.555 -12.249  0.00  0.00    -0.358 OA
ATOM     11  H   UNL     1      33.660 -23.763 -11.469  0.00  0.00    +0.213 HD
ENDBRANCH   5  10
BRANCH   3  12
ATOM     12  C   UNL     1      38.252 -24.774 -14.317  0.00  0.00    +0.169 C 
BRANCH  12  13
ATOM     13  O   UNL     1      38.711 -23.976 -15.396  0.00  0.00    -0.379 OA
ATOM     14  H   UNL     1      38.972 -24.550 -16.134  0.00  0.00    +0.211 HD
ENDBRANCH  12  13
ENDBRANCH   3  12
TORSDOF 5
ENDMDL
MODEL 5
REMARK VINA RESULT:      -5.6      2.074      3.519
REMARK  Name = 9996708
REMARK  5 active torsions:
REMARK  status: ('A' for Active; 'I' for Inactive)
REMARK    1  A    between atoms: C_2  and  O_6
REMARK    2  A    between atoms: C_3  and  C_12
REMARK    3  A    between atoms: C_4  and  O_8
REMARK    4  A    between atoms: C_5  and  O_10
REMARK    5  A    between atoms: C_12  and  O_13
REMARK                            x       y       z     vdW  Elec       q    Type
REMARK                         _______ _______ _______ _____ _____    ______ ____
ROOT
ATOM      1  O   UNL     1      37.157 -25.320 -11.536  0.00  0.00    -0.326 OA
ATOM      2  C   UNL     1      36.065 -24.939 -13.587  0.00  0.00    +0.172 C 
ATOM      3  C   UNL     1      37.067 -25.830 -12.875  0.00  0.00    +0.176 C 
ATOM      4  C   UNL     1      35.077 -24.669 -12.478  0.00  0.00    +0.196 C 
ATOM      5  C   UNL     1      35.986 -24.530 -11.266  0.00  0.00    +0.262 C 
ENDROOT
BRANCH   2   6
ATOM      6  O   UNL     1      35.468 -25.610 -14.679  0.00  0.00    -0.379 OA
ATOM      7  H   UNL     1      34.602 -25.954 -14.412  0.00  0.00    +0.211 HD
ENDBRANCH   2   6
BRANCH   4   8
ATOM      8  O   UNL     1      34.352 -23.478 -12.722  0.00  0.00    -0.378 OA
ATOM      9  H   UNL     1      33.507 -23.694 -13.146  0.00  0.00    +0.211 HD
ENDBRANCH   4   8
BRANCH   5  10
ATOM     10  O   UNL     1      35.298 -24.984 -10.110  0.00  0.00    -0.358 OA
ATOM     11  H   UNL     1      35.484 -24.389  -9.369  0.00  0.00    +0.213 HD
ENDBRANCH   5  10
BRANCH   3  12
ATOM     12  C   UNL     1      38.441 -25.826 -13.520  0.00  0.00    +0.169 C 
BRANCH  12  13
ATOM     13  O   UNL     1      38.444 -26.751 -14.596  0.00  0.00    -0.379 OA
ATOM     14  H   UNL     1      39.172 -26.539 -15.201  0.00  0.00    +0.211 HD
ENDBRANCH  12  13
ENDBRANCH   3  12
TORSDOF 5
ENDMDL
MODEL 6
REMARK VINA RESULT:      -5.6      1.687      2.251
REMARK  Name = 9996708
REMARK  5 active torsions:
REMARK  status: ('A' for Active; 'I' for Inactive)
REMARK    1  A    between atoms: C_2  and  O_6
REMARK    2  A    between atoms: C_3  and  C_12
REMARK    3  A    between atoms: C_4  and  O_8
REMARK    4  A    between atoms: C_5  and  O_10
REMARK    5  A    between atoms: C_12  and  O_13
REMARK                            x       y       z     vdW  Elec       q    Type
REMARK                         _______ _______ _______ _____ _____    ______ ____
ROOT
ATOM      1  O   UNL     1      38.761 -26.160 -13.183  0.00  0.00    -0.326 OA
ATOM      2  C   UNL     1      37.979 -24.385 -14.518  0.00  0.00    +0.172 C 
ATOM      3  C   UNL     1      38.769 -25.681 -14.536  0.00  0.00    +0.176 C 
ATOM      4  C   UNL     1      36.906 -24.715 -13.508  0.00  0.00    +0.196 C 
ATOM      5  C   UNL     1      37.674 -25.533 -12.481  0.00  0.00    +0.262 C 
ENDROOT
BRANCH   2   6
ATOM      6  O   UNL     1      37.438 -24.098 -15.793  0.00  0.00    -0.379 OA
ATOM      7  H   UNL     1      36.993 -24.886 -16.140  0.00  0.00    +0.211 HD
ENDBRANCH   2   6
BRANCH   4   8
ATOM      8  O   UNL     1      36.369 -23.536 -12.935  0.00  0.00    -0.378 OA
ATOM      9  H   UNL     1      36.570 -22.778 -13.507  0.00  0.00    +0.211 HD
ENDBRANCH   4   8
BRANCH   5  10
ATOM     10  O   UNL     1      36.801 -26.490 -11.898  0.00  0.00    -0.358 OA
ATOM     11  H   UNL     1      35.949 -26.072 -11.702  0.00  0.00    +0.213 HD
ENDBRANCH   5  10
BRANCH   3  12
ATOM     12  C   UNL     1      40.201 -25.506 -15.010  0.00  0.00    +0.169 C 
BRANCH  12  13
ATOM     13  O   UNL     1      41.023 -26.445 -14.337  0.00  0.00    -0.379 OA
ATOM     14  H   UNL     1      41.931 -26.106 -14.292  0.00  0.00    +0.211 HD
ENDBRANCH  12  13
ENDBRANCH   3  12
TORSDOF 5
ENDMDL
MODEL 7
REMARK VINA RESULT:      -5.5      1.951      3.708
REMARK  Name = 9996708
REMARK  5 active torsions:
REMARK  status: ('A' for Active; 'I' for Inactive)
REMARK    1  A    between atoms: C_2  and  O_6
REMARK    2  A    between atoms: C_3  and  C_12
REMARK    3  A    between atoms: C_4  and  O_8
REMARK    4  A    between atoms: C_5  and  O_10
REMARK    5  A    between atoms: C_12  and  O_13
REMARK                            x       y       z     vdW  Elec       q    Type
REMARK                         _______ _______ _______ _____ _____    ______ ____
ROOT
ATOM      1  O   UNL     1      37.560 -23.180 -13.959  0.00  0.00    -0.326 OA
ATOM      2  C   UNL     1      37.540 -25.454 -13.349  0.00  0.00    +0.172 C 
ATOM      3  C   UNL     1      37.170 -24.055 -12.890  0.00  0.00    +0.176 C 
ATOM      4  C   UNL     1      37.230 -25.365 -14.825  0.00  0.00    +0.196 C 
ATOM      5  C   UNL     1      37.688 -23.955 -15.163  0.00  0.00    +0.262 C 
ENDROOT
BRANCH   2   6
ATOM      6  O   UNL     1      36.751 -26.431 -12.700  0.00  0.00    -0.379 OA
ATOM      7  H   UNL     1      36.873 -27.288 -13.137  0.00  0.00    +0.211 HD
ENDBRANCH   2   6
BRANCH   4   8
ATOM      8  O   UNL     1      37.959 -26.336 -15.556  0.00  0.00    -0.378 OA
ATOM      9  H   UNL     1      37.351 -26.834 -16.125  0.00  0.00    +0.211 HD
ENDBRANCH   4   8
BRANCH   5  10
ATOM     10  O   UNL     1      36.879 -23.439 -16.210  0.00  0.00    -0.358 OA
ATOM     11  H   UNL     1      35.946 -23.484 -15.949  0.00  0.00    +0.213 HD
ENDBRANCH   5  10
BRANCH   3  12
ATOM     12  C   UNL     1      37.865 -23.641 -11.606  0.00  0.00    +0.169 C 
BRANCH  12  13
ATOM     13  O   UNL     1      37.428 -22.339 -11.249  0.00  0.00    -0.379 OA
ATOM     14  H   UNL     1      36.967 -22.376 -10.396  0.00  0.00    +0.211 HD
ENDBRANCH  12  13
ENDBRANCH   3  12
TORSDOF 5
ENDMDL
MODEL 8
REMARK VINA RESULT:      -5.5      1.496      3.842
REMARK  Name = 9996708
REMARK  5 active torsions:
REMARK  status: ('A' for Active; 'I' for Inactive)
REMARK    1  A    between atoms: C_2  and  O_6
REMARK    2  A    between atoms: C_3  and  C_12
REMARK    3  A    between atoms: C_4  and  O_8
REMARK    4  A    between atoms: C_5  and  O_10
REMARK    5  A    between atoms: C_12  and  O_13
REMARK                            x       y       z     vdW  Elec       q    Type
REMARK                         _______ _______ _______ _____ _____    ______ ____
ROOT
ATOM      1  O   UNL     1      39.014 -24.327 -12.773  0.00  0.00    -0.326 OA
ATOM      2  C   UNL     1      37.205 -25.633 -13.525  0.00  0.00    +0.172 C 
ATOM      3  C   UNL     1      37.589 -24.284 -12.945  0.00  0.00    +0.176 C 
ATOM      4  C   UNL     1      38.382 -25.906 -14.430  0.00  0.00    +0.196 C 
ATOM      5  C   UNL     1      39.546 -25.367 -13.611  0.00  0.00    +0.262 C 
ENDROOT
BRANCH   2   6
ATOM      6  O   UNL     1      35.990 -25.554 -14.244  0.00  0.00    -0.379 OA
ATOM      7  H   UNL     1      35.719 -24.626 -14.320  0.00  0.00    +0.211 HD
ENDBRANCH   2   6
BRANCH   4   8
ATOM      8  O   UNL     1      38.522 -27.293 -14.678  0.00  0.00    -0.378 OA
ATOM      9  H   UNL     1      37.645 -27.688 -14.806  0.00  0.00    +0.211 HD
ENDBRANCH   4   8
BRANCH   5  10
ATOM     10  O   UNL     1      40.547 -24.875 -14.489  0.00  0.00    -0.358 OA
ATOM     11  H   UNL     1      41.398 -24.845 -14.025  0.00  0.00    +0.213 HD
ENDBRANCH   5  10
BRANCH   3  12
ATOM     12  C   UNL     1      36.919 -23.988 -11.615  0.00  0.00    +0.169 C 
BRANCH  12  13
ATOM     13  O   UNL     1      37.461 -22.788 -11.088  0.00  0.00    -0.379 OA
ATOM     14  H   UNL     1      37.117 -22.031 -11.587  0.00  0.00    +0.211 HD
ENDBRANCH  12  13
ENDBRANCH   3  12
TORSDOF 5
ENDMDL
MODEL 9
REMARK VINA RESULT:      -5.5      1.610      3.724
REMARK  Name = 9996708
REMARK  5 active torsions:
REMARK  status: ('A' for Active; 'I' for Inactive)
REMARK    1  A    between atoms: C_2  and  O_6
REMARK    2  A    between atoms: C_3  and  C_12
REMARK    3  A    between atoms: C_4  and  O_8
REMARK    4  A    between atoms: C_5  and  O_10
REMARK    5  A    between atoms: C_12  and  O_13
REMARK                            x       y       z     vdW  Elec       q    Type
REMARK                         _______ _______ _______ _____ _____    ______ ____
ROOT
ATOM      1  O   UNL     1      36.664 -26.103 -13.338  0.00  0.00    -0.326 OA
ATOM      2  C   UNL     1      37.948 -24.201 -12.811  0.00  0.00    +0.172 C 
ATOM      3  C   UNL     1      36.958 -25.208 -12.254  0.00  0.00    +0.176 C 
ATOM      4  C   UNL     1      38.770 -25.077 -13.726  0.00  0.00    +0.196 C 
ATOM      5  C   UNL     1      37.715 -26.003 -14.314  0.00  0.00    +0.262 C 
ENDROOT
BRANCH   2   6
ATOM      6  O   UNL     1      38.730 -23.629 -11.781  0.00  0.00    -0.379 OA
ATOM      7  H   UNL     1      39.543 -24.145 -11.667  0.00  0.00    +0.211 HD
ENDBRANCH   2   6
BRANCH   4   8
ATOM      8  O   UNL     1      39.403 -24.308 -14.732  0.00  0.00    -0.378 OA
ATOM      9  H   UNL     1      39.047 -24.556 -15.600  0.00  0.00    +0.211 HD
ENDBRANCH   4   8
BRANCH   5  10
ATOM     10  O   UNL     1      38.302 -27.267 -14.587  0.00  0.00    -0.358 OA
ATOM     11  H   UNL     1      37.637 -27.855 -14.975  0.00  0.00    +0.213 HD
ENDBRANCH   5  10
BRANCH   3  12
ATOM     12  C   UNL     1      35.675 -24.574 -11.748  0.00  0.00    +0.169 C 
BRANCH  12  13
ATOM     13  O   UNL     1      35.338 -25.157 -10.500  0.00  0.00    -0.379 OA
ATOM     14  H   UNL     1      34.384 -25.335 -10.474  0.00  0.00    +0.211 HD
ENDBRANCH  12  13
ENDBRANCH   3  12
TORSDOF 5
ENDMDL
