MODEL 1
REMARK VINA RESULT:      -7.2      0.000      0.000
REMARK  Name = 1237170
REMARK  2 active torsions:
REMARK  status: ('A' for Active; 'I' for Inactive)
REMARK    1  A    between atoms: C_1  and  C_8
REMARK    2  A    between atoms: C_6  and  N_12
REMARK                            x       y       z     vdW  Elec       q    Type
REMARK                         _______ _______ _______ _____ _____    ______ ____
ROOT
ATOM      1  C   UNL     1      34.585 -19.316 -21.137  0.00  0.00    +0.007 C 
ATOM      2  C   UNL     1      35.752 -19.958 -20.722  0.00  0.00    -0.000 C 
ATOM      3  C   UNL     1      33.340 -19.807 -20.739  0.00  0.00    -0.000 C 
ATOM      4  C   UNL     1      35.675 -21.091 -19.911  0.00  0.00    +0.024 C 
ATOM      5  C   UNL     1      33.263 -20.939 -19.928  0.00  0.00    +0.024 C 
ATOM      6  C   UNL     1      34.431 -21.581 -19.515  0.00  0.00    +0.143 C 
ENDROOT
BRANCH   1   8
ATOM      7  O   UNL     1      35.907 -17.882 -22.673  0.00  0.00    -0.346 OA
ATOM      8  C   UNL     1      34.666 -18.106 -22.003  0.00  0.00    +0.167 C 
ATOM      9  C   UNL     1      34.788 -18.263 -23.484  0.00  0.00    +0.177 C 
ENDBRANCH   1   8
BRANCH   6  12
ATOM     10  O   UNL     1      34.852 -22.691 -17.538  0.00  0.00    -0.126 OA
ATOM     11  O   UNL     1      33.786 -23.761 -19.131  0.00  0.00    -0.126 OA
ATOM     12  N   UNL     1      34.353 -22.734 -18.689  0.00  0.00    +0.058 N 
ENDBRANCH   6  12
TORSDOF 2
ENDMDL
MODEL 2
REMARK VINA RESULT:      -7.2      0.024      1.395
REMARK  Name = 1237170
REMARK  2 active torsions:
REMARK  status: ('A' for Active; 'I' for Inactive)
REMARK    1  A    between atoms: C_1  and  C_8
REMARK    2  A    between atoms: C_6  and  N_12
REMARK                            x       y       z     vdW  Elec       q    Type
REMARK                         _______ _______ _______ _____ _____    ______ ____
ROOT
ATOM      1  C   UNL     1      34.586 -19.300 -21.137  0.00  0.00    +0.007 C 
ATOM      2  C   UNL     1      33.344 -19.793 -20.736  0.00  0.00    -0.000 C 
ATOM      3  C   UNL     1      35.755 -19.943 -20.729  0.00  0.00    -0.000 C 
ATOM      4  C   UNL     1      33.272 -20.926 -19.925  0.00  0.00    +0.024 C 
ATOM      5  C   UNL     1      35.683 -21.076 -19.918  0.00  0.00    +0.024 C 
ATOM      6  C   UNL     1      34.440 -21.567 -19.516  0.00  0.00    +0.143 C 
ENDROOT
BRANCH   1   8
ATOM      7  O   UNL     1      35.910 -17.853 -22.658  0.00  0.00    -0.346 OA
ATOM      8  C   UNL     1      34.664 -18.091 -22.003  0.00  0.00    +0.167 C 
ATOM      9  C   UNL     1      34.806 -18.248 -23.483  0.00  0.00    +0.177 C 
ENDBRANCH   1   8
BRANCH   6  12
ATOM     10  O   UNL     1      34.897 -22.688 -17.554  0.00  0.00    -0.126 OA
ATOM     11  O   UNL     1      33.771 -23.738 -19.119  0.00  0.00    -0.126 OA
ATOM     12  N   UNL     1      34.366 -22.720 -18.691  0.00  0.00    +0.058 N 
ENDBRANCH   6  12
TORSDOF 2
ENDMDL
MODEL 3
REMARK VINA RESULT:      -6.9      4.099      6.943
REMARK  Name = 1237170
REMARK  2 active torsions:
REMARK  status: ('A' for Active; 'I' for Inactive)
REMARK    1  A    between atoms: C_1  and  C_8
REMARK    2  A    between atoms: C_6  and  N_12
REMARK                            x       y       z     vdW  Elec       q    Type
REMARK                         _______ _______ _______ _____ _____    ______ ____
ROOT
ATOM      1  C   UNL     1      35.331 -17.667 -22.870  0.00  0.00    +0.007 C 
ATOM      2  C   UNL     1      34.988 -16.375 -22.470  0.00  0.00    -0.000 C 
ATOM      3  C   UNL     1      35.036 -18.097 -24.165  0.00  0.00    -0.000 C 
ATOM      4  C   UNL     1      34.348 -15.515 -23.363  0.00  0.00    +0.024 C 
ATOM      5  C   UNL     1      34.397 -17.236 -25.058  0.00  0.00    +0.024 C 
ATOM      6  C   UNL     1      34.053 -15.945 -24.656  0.00  0.00    +0.143 C 
ENDROOT
BRANCH   1   8
ATOM      7  O   UNL     1      35.828 -18.318 -20.527  0.00  0.00    -0.346 OA
ATOM      8  C   UNL     1      36.014 -18.586 -21.917  0.00  0.00    +0.167 C 
ATOM      9  C   UNL     1      35.201 -19.495 -21.054  0.00  0.00    +0.177 C 
ENDBRANCH   1   8
BRANCH   6  12
ATOM     10  O   UNL     1      33.532 -15.268 -26.797  0.00  0.00    -0.126 OA
ATOM     11  O   UNL     1      32.714 -14.124 -25.112  0.00  0.00    -0.126 OA
ATOM     12  N   UNL     1      33.402 -15.069 -25.565  0.00  0.00    +0.058 N 
ENDBRANCH   6  12
TORSDOF 2
ENDMDL
MODEL 4
REMARK VINA RESULT:      -6.9      4.114      6.957
REMARK  Name = 1237170
REMARK  2 active torsions:
REMARK  status: ('A' for Active; 'I' for Inactive)
REMARK    1  A    between atoms: C_1  and  C_8
REMARK    2  A    between atoms: C_6  and  N_12
REMARK                            x       y       z     vdW  Elec       q    Type
REMARK                         _______ _______ _______ _____ _____    ______ ____
ROOT
ATOM      1  C   UNL     1      35.308 -17.676 -22.913  0.00  0.00    +0.007 C 
ATOM      2  C   UNL     1      34.975 -18.108 -24.198  0.00  0.00    -0.000 C 
ATOM      3  C   UNL     1      35.004 -16.374 -22.515  0.00  0.00    -0.000 C 
ATOM      4  C   UNL     1      34.341 -17.237 -25.084  0.00  0.00    +0.024 C 
ATOM      5  C   UNL     1      34.370 -15.503 -23.402  0.00  0.00    +0.024 C 
ATOM      6  C   UNL     1      34.038 -15.936 -24.686  0.00  0.00    +0.143 C 
ENDROOT
BRANCH   1   8
ATOM      7  O   UNL     1      35.861 -18.306 -20.576  0.00  0.00    -0.346 OA
ATOM      8  C   UNL     1      35.985 -18.606 -21.967  0.00  0.00    +0.167 C 
ATOM      9  C   UNL     1      35.166 -19.464 -21.058  0.00  0.00    +0.177 C 
ENDBRANCH   1   8
BRANCH   6  12
ATOM     10  O   UNL     1      33.483 -15.266 -26.821  0.00  0.00    -0.126 OA
ATOM     11  O   UNL     1      32.748 -14.076 -25.129  0.00  0.00    -0.126 OA
ATOM     12  N   UNL     1      33.392 -15.049 -25.588  0.00  0.00    +0.058 N 
ENDBRANCH   6  12
TORSDOF 2
ENDMDL
MODEL 5
REMARK VINA RESULT:      -6.8      2.014      5.066
REMARK  Name = 1237170
REMARK  2 active torsions:
REMARK  status: ('A' for Active; 'I' for Inactive)
REMARK    1  A    between atoms: C_1  and  C_8
REMARK    2  A    between atoms: C_6  and  N_12
REMARK                            x       y       z     vdW  Elec       q    Type
REMARK                         _______ _______ _______ _____ _____    ______ ____
ROOT
ATOM      1  C   UNL     1      34.064 -22.089 -19.181  0.00  0.00    +0.007 C 
ATOM      2  C   UNL     1      35.420 -21.816 -19.366  0.00  0.00    -0.000 C 
ATOM      3  C   UNL     1      33.102 -21.243 -19.733  0.00  0.00    -0.000 C 
ATOM      4  C   UNL     1      35.813 -20.697 -20.101  0.00  0.00    +0.024 C 
ATOM      5  C   UNL     1      33.494 -20.124 -20.468  0.00  0.00    +0.024 C 
ATOM      6  C   UNL     1      34.851 -19.852 -20.651  0.00  0.00    +0.143 C 
ENDROOT
BRANCH   1   8
ATOM      7  O   UNL     1      34.361 -23.539 -17.188  0.00  0.00    -0.346 OA
ATOM      8  C   UNL     1      33.644 -23.283 -18.397  0.00  0.00    +0.167 C 
ATOM      9  C   UNL     1      33.001 -23.103 -17.060  0.00  0.00    +0.177 C 
ENDBRANCH   1   8
BRANCH   6  12
ATOM     10  O   UNL     1      35.392 -18.822 -22.642  0.00  0.00    -0.126 OA
ATOM     11  O   UNL     1      35.449 -17.629 -20.800  0.00  0.00    -0.126 OA
ATOM     12  N   UNL     1      35.251 -18.713 -21.400  0.00  0.00    +0.058 N 
ENDBRANCH   6  12
TORSDOF 2
ENDMDL
MODEL 6
REMARK VINA RESULT:      -6.7      2.030      4.944
REMARK  Name = 1237170
REMARK  2 active torsions:
REMARK  status: ('A' for Active; 'I' for Inactive)
REMARK    1  A    between atoms: C_1  and  C_8
REMARK    2  A    between atoms: C_6  and  N_12
REMARK                            x       y       z     vdW  Elec       q    Type
REMARK                         _______ _______ _______ _____ _____    ______ ____
ROOT
ATOM      1  C   UNL     1      34.300 -21.357 -19.854  0.00  0.00    +0.007 C 
ATOM      2  C   UNL     1      35.628 -20.953 -19.999  0.00  0.00    -0.000 C 
ATOM      3  C   UNL     1      33.267 -20.519 -20.276  0.00  0.00    -0.000 C 
ATOM      4  C   UNL     1      35.922 -19.711 -20.563  0.00  0.00    +0.024 C 
ATOM      5  C   UNL     1      33.561 -19.277 -20.840  0.00  0.00    +0.024 C 
ATOM      6  C   UNL     1      34.889 -18.874 -20.984  0.00  0.00    +0.143 C 
ENDROOT
BRANCH   1   8
ATOM      7  O   UNL     1      34.668 -23.012 -18.041  0.00  0.00    -0.346 OA
ATOM      8  C   UNL     1      33.986 -22.682 -19.251  0.00  0.00    +0.167 C 
ATOM      9  C   UNL     1      33.262 -22.749 -17.945  0.00  0.00    +0.177 C 
ENDBRANCH   1   8
BRANCH   6  12
ATOM     10  O   UNL     1      35.194 -16.595 -20.822  0.00  0.00    -0.126 OA
ATOM     11  O   UNL     1      35.442 -17.545 -22.785  0.00  0.00    -0.126 OA
ATOM     12  N   UNL     1      35.189 -17.611 -21.559  0.00  0.00    +0.058 N 
ENDBRANCH   6  12
TORSDOF 2
ENDMDL
MODEL 7
REMARK VINA RESULT:      -6.6      2.622      3.566
REMARK  Name = 1237170
REMARK  2 active torsions:
REMARK  status: ('A' for Active; 'I' for Inactive)
REMARK    1  A    between atoms: C_1  and  C_8
REMARK    2  A    between atoms: C_6  and  N_12
REMARK                            x       y       z     vdW  Elec       q    Type
REMARK                         _______ _______ _______ _____ _____    ______ ____
ROOT
ATOM      1  C   UNL     1      34.914 -17.121 -23.538  0.00  0.00    +0.007 C 
ATOM      2  C   UNL     1      34.998 -16.716 -22.206  0.00  0.00    -0.000 C 
ATOM      3  C   UNL     1      34.823 -18.479 -23.849  0.00  0.00    -0.000 C 
ATOM      4  C   UNL     1      34.994 -17.667 -21.185  0.00  0.00    +0.024 C 
ATOM      5  C   UNL     1      34.818 -19.430 -22.828  0.00  0.00    +0.024 C 
ATOM      6  C   UNL     1      34.903 -19.023 -21.496  0.00  0.00    +0.143 C 
ENDROOT
BRANCH   1   8
ATOM      7  O   UNL     1      34.512 -16.555 -25.922  0.00  0.00    -0.346 OA
ATOM      8  C   UNL     1      34.919 -16.106 -24.628  0.00  0.00    +0.167 C 
ATOM      9  C   UNL     1      33.626 -15.663 -25.233  0.00  0.00    +0.177 C 
ENDBRANCH   1   8
BRANCH   6  12
ATOM     10  O   UNL     1      33.816 -20.549 -20.153  0.00  0.00    -0.126 OA
ATOM     11  O   UNL     1      35.974 -20.262 -19.873  0.00  0.00    -0.126 OA
ATOM     12  N   UNL     1      34.898 -19.991 -20.457  0.00  0.00    +0.058 N 
ENDBRANCH   6  12
TORSDOF 2
ENDMDL
MODEL 8
REMARK VINA RESULT:      -6.4      6.957      8.397
REMARK  Name = 1237170
REMARK  2 active torsions:
REMARK  status: ('A' for Active; 'I' for Inactive)
REMARK    1  A    between atoms: C_1  and  C_8
REMARK    2  A    between atoms: C_6  and  N_12
REMARK                            x       y       z     vdW  Elec       q    Type
REMARK                         _______ _______ _______ _____ _____    ______ ____
ROOT
ATOM      1  C   UNL     1      31.422 -24.333 -14.727  0.00  0.00    +0.007 C 
ATOM      2  C   UNL     1      31.613 -23.340 -15.689  0.00  0.00    -0.000 C 
ATOM      3  C   UNL     1      30.148 -24.858 -14.512  0.00  0.00    -0.000 C 
ATOM      4  C   UNL     1      30.530 -22.872 -16.433  0.00  0.00    +0.024 C 
ATOM      5  C   UNL     1      29.065 -24.391 -15.257  0.00  0.00    +0.024 C 
ATOM      6  C   UNL     1      29.257 -23.397 -16.218  0.00  0.00    +0.143 C 
ENDROOT
BRANCH   1   8
ATOM      7  O   UNL     1      33.873 -24.668 -14.512  0.00  0.00    -0.346 OA
ATOM      8  C   UNL     1      32.579 -24.832 -13.932  0.00  0.00    +0.167 C 
ATOM      9  C   UNL     1      33.564 -23.861 -13.367  0.00  0.00    +0.177 C 
ENDBRANCH   1   8
BRANCH   6  12
ATOM     10  O   UNL     1      27.550 -23.718 -17.734  0.00  0.00    -0.126 OA
ATOM     11  O   UNL     1      27.814 -21.719 -16.867  0.00  0.00    -0.126 OA
ATOM     12  N   UNL     1      28.155 -22.921 -16.976  0.00  0.00    +0.058 N 
ENDBRANCH   6  12
TORSDOF 2
ENDMDL
MODEL 9
REMARK VINA RESULT:      -6.2      3.299      5.937
REMARK  Name = 1237170
REMARK  2 active torsions:
REMARK  status: ('A' for Active; 'I' for Inactive)
REMARK    1  A    between atoms: C_1  and  C_8
REMARK    2  A    between atoms: C_6  and  N_12
REMARK                            x       y       z     vdW  Elec       q    Type
REMARK                         _______ _______ _______ _____ _____    ______ ____
ROOT
ATOM      1  C   UNL     1      35.025 -19.038 -21.512  0.00  0.00    +0.007 C 
ATOM      2  C   UNL     1      34.995 -17.665 -21.266  0.00  0.00    -0.000 C 
ATOM      3  C   UNL     1      34.878 -19.515 -22.816  0.00  0.00    -0.000 C 
ATOM      4  C   UNL     1      34.816 -16.770 -22.321  0.00  0.00    +0.024 C 
ATOM      5  C   UNL     1      34.699 -18.620 -23.871  0.00  0.00    +0.024 C 
ATOM      6  C   UNL     1      34.668 -17.247 -23.622  0.00  0.00    +0.143 C 
ENDROOT
BRANCH   1   8
ATOM      7  O   UNL     1      35.701 -21.294 -20.726  0.00  0.00    -0.346 OA
ATOM      8  C   UNL     1      35.217 -19.994 -20.386  0.00  0.00    +0.167 C 
ATOM      9  C   UNL     1      36.596 -20.431 -20.012  0.00  0.00    +0.177 C 
ENDBRANCH   1   8
BRANCH   6  12
ATOM     10  O   UNL     1      34.846 -16.677 -25.849  0.00  0.00    -0.126 OA
ATOM     11  O   UNL     1      33.969 -15.217 -24.464  0.00  0.00    -0.126 OA
ATOM     12  N   UNL     1      34.486 -16.336 -24.696  0.00  0.00    +0.058 N 
ENDBRANCH   6  12
TORSDOF 2
ENDMDL
