MODEL 1
REMARK VINA RESULT:      -7.0      0.000      0.000
REMARK  Name = 6951294
REMARK  6 active torsions:
REMARK  status: ('A' for Active; 'I' for Inactive)
REMARK    1  A    between atoms: C_1  and  S_2
REMARK    2  A    between atoms: C_1  and  C_10
REMARK    3  A    between atoms: S_2  and  C_3
REMARK    4  A    between atoms: C_3  and  C_4
REMARK    5  A    between atoms: C_10  and  N_11
REMARK    6  A    between atoms: C_10  and  C_17
REMARK                            x       y       z     vdW  Elec       q    Type
REMARK                         _______ _______ _______ _____ _____    ______ ____
ROOT
ATOM      1  C   UNK     1      35.322 -16.280 -23.137  0.00  0.00    +0.047 C 
ENDROOT
BRANCH   1   2
ATOM      2  S   UNK     1      34.933 -18.052 -23.313  0.00  0.00    -0.137 S 
BRANCH   2   3
ATOM      3  C   UNK     1      35.855 -18.659 -21.884  0.00  0.00    +0.084 C 
BRANCH   3   4
ATOM      4  C   UNK     1      35.044 -19.611 -21.048  0.00  0.00    -0.011 C 
ATOM      5  C   UNK     1      33.662 -19.483 -21.010  0.00  0.00    -0.003 C 
ATOM      6  C   UNK     1      35.688 -20.608 -20.326  0.00  0.00    -0.003 C 
ATOM      7  C   UNK     1      32.910 -20.366 -20.235  0.00  0.00    -0.000 C 
ATOM      8  C   UNK     1      34.937 -21.491 -19.552  0.00  0.00    -0.000 C 
ATOM      9  C   UNK     1      33.548 -21.370 -19.505  0.00  0.00    -0.000 C 
ENDBRANCH   3   4
ENDBRANCH   2   3
ENDBRANCH   1   2
BRANCH   1  10
ATOM     10  C   UNK     1      34.167 -15.454 -22.563  0.00  0.00    +0.051 C 
BRANCH  10  11
ATOM     11  N   UNK     1      34.409 -14.029 -22.957  0.00  0.00    +0.389 N 
ATOM     12  H   UNK     1      33.858 -13.413 -22.360  0.00  0.00    -0.088 HD
ATOM     13  H   UNK     1      34.137 -13.893 -23.931  0.00  0.00    -0.088 HD
ATOM     14  H   UNK     1      35.400 -13.810 -22.848  0.00  0.00    -0.088 HD
ENDBRANCH  10  11
BRANCH  10  17
ATOM     15  O   UNK     1      32.629 -15.729 -20.779  0.00  0.00    -0.248 OA
ATOM     16  O   UNK     1      34.860 -15.714 -20.303  0.00  0.00    -0.248 OA
ATOM     17  C   UNK     1      33.858 -15.661 -21.070  0.00  0.00    +0.346 C 
ENDBRANCH  10  17
ENDBRANCH   1  10
TORSDOF 6
ENDMDL
MODEL 2
REMARK VINA RESULT:      -7.0      0.086      1.294
REMARK  Name = 6951294
REMARK  6 active torsions:
REMARK  status: ('A' for Active; 'I' for Inactive)
REMARK    1  A    between atoms: C_1  and  S_2
REMARK    2  A    between atoms: C_1  and  C_10
REMARK    3  A    between atoms: S_2  and  C_3
REMARK    4  A    between atoms: C_3  and  C_4
REMARK    5  A    between atoms: C_10  and  N_11
REMARK    6  A    between atoms: C_10  and  C_17
REMARK                            x       y       z     vdW  Elec       q    Type
REMARK                         _______ _______ _______ _____ _____    ______ ____
ROOT
ATOM      1  C   UNK     1      35.308 -16.282 -23.081  0.00  0.00    +0.047 C 
ENDROOT
BRANCH   1   2
ATOM      2  S   UNK     1      34.909 -18.050 -23.280  0.00  0.00    -0.137 S 
BRANCH   2   3
ATOM      3  C   UNK     1      35.837 -18.680 -21.864  0.00  0.00    +0.084 C 
BRANCH   3   4
ATOM      4  C   UNK     1      35.023 -19.631 -21.031  0.00  0.00    -0.011 C 
ATOM      5  C   UNK     1      35.662 -20.637 -20.317  0.00  0.00    -0.003 C 
ATOM      6  C   UNK     1      33.642 -19.492 -20.985  0.00  0.00    -0.003 C 
ATOM      7  C   UNK     1      34.907 -21.518 -19.544  0.00  0.00    -0.000 C 
ATOM      8  C   UNK     1      32.886 -20.374 -20.212  0.00  0.00    -0.000 C 
ATOM      9  C   UNK     1      33.519 -21.388 -19.492  0.00  0.00    -0.000 C 
ENDBRANCH   3   4
ENDBRANCH   2   3
ENDBRANCH   1   2
BRANCH   1  10
ATOM     10  C   UNK     1      34.152 -15.455 -22.511  0.00  0.00    +0.051 C 
BRANCH  10  11
ATOM     11  N   UNK     1      34.340 -14.048 -22.993  0.00  0.00    +0.389 N 
ATOM     12  H   UNK     1      34.278 -13.407 -22.202  0.00  0.00    -0.088 HD
ATOM     13  H   UNK     1      33.615 -13.821 -23.673  0.00  0.00    -0.088 HD
ATOM     14  H   UNK     1      35.257 -13.960 -23.432  0.00  0.00    -0.088 HD
ENDBRANCH  10  11
BRANCH  10  17
ATOM     15  O   UNK     1      32.690 -15.530 -20.645  0.00  0.00    -0.248 OA
ATOM     16  O   UNK     1      34.936 -15.703 -20.279  0.00  0.00    -0.248 OA
ATOM     17  C   UNK     1      33.904 -15.584 -20.998  0.00  0.00    +0.346 C 
ENDBRANCH  10  17
ENDBRANCH   1  10
TORSDOF 6
ENDMDL
MODEL 3
REMARK VINA RESULT:      -7.0      2.332      2.586
REMARK  Name = 6951294
REMARK  6 active torsions:
REMARK  status: ('A' for Active; 'I' for Inactive)
REMARK    1  A    between atoms: C_1  and  S_2
REMARK    2  A    between atoms: C_1  and  C_10
REMARK    3  A    between atoms: S_2  and  C_3
REMARK    4  A    between atoms: C_3  and  C_4
REMARK    5  A    between atoms: C_10  and  N_11
REMARK    6  A    between atoms: C_10  and  C_17
REMARK                            x       y       z     vdW  Elec       q    Type
REMARK                         _______ _______ _______ _____ _____    ______ ____
ROOT
ATOM      1  C   UNK     1      34.600 -16.708 -23.551  0.00  0.00    +0.047 C 
ENDROOT
BRANCH   1   2
ATOM      2  S   UNK     1      34.878 -16.890 -21.758  0.00  0.00    -0.137 S 
BRANCH   2   3
ATOM      3  C   UNK     1      35.724 -18.485 -21.793  0.00  0.00    +0.084 C 
BRANCH   3   4
ATOM      4  C   UNK     1      34.993 -19.532 -20.998  0.00  0.00    -0.011 C 
ATOM      5  C   UNK     1      33.605 -19.513 -20.953  0.00  0.00    -0.003 C 
ATOM      6  C   UNK     1      35.715 -20.504 -20.318  0.00  0.00    -0.003 C 
ATOM      7  C   UNK     1      32.927 -20.484 -20.216  0.00  0.00    -0.000 C 
ATOM      8  C   UNK     1      35.038 -21.475 -19.580  0.00  0.00    -0.000 C 
ATOM      9  C   UNK     1      33.643 -21.465 -19.529  0.00  0.00    -0.000 C 
ENDBRANCH   3   4
ENDBRANCH   2   3
ENDBRANCH   1   2
BRANCH   1  10
ATOM     10  C   UNK     1      34.061 -15.331 -23.949  0.00  0.00    +0.051 C 
BRANCH  10  11
ATOM     11  N   UNK     1      33.134 -14.890 -22.857  0.00  0.00    +0.389 N 
ATOM     12  H   UNK     1      32.975 -15.664 -22.213  0.00  0.00    -0.088 HD
ATOM     13  H   UNK     1      32.246 -14.595 -23.262  0.00  0.00    -0.088 HD
ATOM     14  H   UNK     1      33.553 -14.108 -22.353  0.00  0.00    -0.088 HD
ENDBRANCH  10  11
BRANCH  10  17
ATOM     15  O   UNK     1      33.926 -16.048 -26.206  0.00  0.00    -0.248 OA
ATOM     16  O   UNK     1      32.638 -14.285 -25.543  0.00  0.00    -0.248 OA
ATOM     17  C   UNK     1      33.477 -15.214 -25.369  0.00  0.00    +0.346 C 
ENDBRANCH  10  17
ENDBRANCH   1  10
TORSDOF 6
ENDMDL
MODEL 4
REMARK VINA RESULT:      -7.0      2.407      2.944
REMARK  Name = 6951294
REMARK  6 active torsions:
REMARK  status: ('A' for Active; 'I' for Inactive)
REMARK    1  A    between atoms: C_1  and  S_2
REMARK    2  A    between atoms: C_1  and  C_10
REMARK    3  A    between atoms: S_2  and  C_3
REMARK    4  A    between atoms: C_3  and  C_4
REMARK    5  A    between atoms: C_10  and  N_11
REMARK    6  A    between atoms: C_10  and  C_17
REMARK                            x       y       z     vdW  Elec       q    Type
REMARK                         _______ _______ _______ _____ _____    ______ ____
ROOT
ATOM      1  C   UNK     1      35.271 -16.378 -23.309  0.00  0.00    +0.047 C 
ENDROOT
BRANCH   1   2
ATOM      2  S   UNK     1      34.884 -16.963 -21.626  0.00  0.00    -0.137 S 
BRANCH   2   3
ATOM      3  C   UNK     1      35.693 -18.574 -21.724  0.00  0.00    +0.084 C 
BRANCH   3   4
ATOM      4  C   UNK     1      34.970 -19.621 -20.922  0.00  0.00    -0.011 C 
ATOM      5  C   UNK     1      35.700 -20.589 -20.245  0.00  0.00    -0.003 C 
ATOM      6  C   UNK     1      33.583 -19.607 -20.869  0.00  0.00    -0.003 C 
ATOM      7  C   UNK     1      35.030 -21.561 -19.500  0.00  0.00    -0.000 C 
ATOM      8  C   UNK     1      32.912 -20.578 -20.125  0.00  0.00    -0.000 C 
ATOM      9  C   UNK     1      33.636 -21.556 -19.441  0.00  0.00    -0.000 C 
ENDBRANCH   3   4
ENDBRANCH   2   3
ENDBRANCH   1   2
BRANCH   1  10
ATOM     10  C   UNK     1      34.167 -16.671 -24.328  0.00  0.00    +0.051 C 
BRANCH  10  11
ATOM     11  N   UNK     1      34.639 -17.819 -25.168  0.00  0.00    +0.389 N 
ATOM     12  H   UNK     1      35.494 -18.205 -24.768  0.00  0.00    -0.088 HD
ATOM     13  H   UNK     1      34.824 -17.493 -26.117  0.00  0.00    -0.088 HD
ATOM     14  H   UNK     1      33.918 -18.541 -25.192  0.00  0.00    -0.088 HD
ENDBRANCH  10  11
BRANCH  10  17
ATOM     15  O   UNK     1      33.142 -14.535 -24.434  0.00  0.00    -0.248 OA
ATOM     16  O   UNK     1      33.746 -15.553 -26.385  0.00  0.00    -0.248 OA
ATOM     17  C   UNK     1      33.642 -15.466 -25.128  0.00  0.00    +0.346 C 
ENDBRANCH  10  17
ENDBRANCH   1  10
TORSDOF 6
ENDMDL
MODEL 5
REMARK VINA RESULT:      -6.8      7.128      9.005
REMARK  Name = 6951294
REMARK  6 active torsions:
REMARK  status: ('A' for Active; 'I' for Inactive)
REMARK    1  A    between atoms: C_1  and  S_2
REMARK    2  A    between atoms: C_1  and  C_10
REMARK    3  A    between atoms: S_2  and  C_3
REMARK    4  A    between atoms: C_3  and  C_4
REMARK    5  A    between atoms: C_10  and  N_11
REMARK    6  A    between atoms: C_10  and  C_17
REMARK                            x       y       z     vdW  Elec       q    Type
REMARK                         _______ _______ _______ _____ _____    ______ ____
ROOT
ATOM      1  C   UNK     1      35.472 -24.551 -14.820  0.00  0.00    +0.047 C 
ENDROOT
BRANCH   1   2
ATOM      2  S   UNK     1      35.322 -22.899 -15.576  0.00  0.00    -0.137 S 
BRANCH   2   3
ATOM      3  C   UNK     1      34.278 -23.354 -16.978  0.00  0.00    +0.084 C 
BRANCH   3   4
ATOM      4  C   UNK     1      34.438 -22.407 -18.135  0.00  0.00    -0.011 C 
ATOM      5  C   UNK     1      33.316 -21.988 -18.837  0.00  0.00    -0.003 C 
ATOM      6  C   UNK     1      35.706 -21.964 -18.488  0.00  0.00    -0.003 C 
ATOM      7  C   UNK     1      33.464 -21.110 -19.911  0.00  0.00    -0.000 C 
ATOM      8  C   UNK     1      35.855 -21.086 -19.561  0.00  0.00    -0.000 C 
ATOM      9  C   UNK     1      34.734 -20.659 -20.273  0.00  0.00    -0.000 C 
ENDBRANCH   3   4
ENDBRANCH   2   3
ENDBRANCH   1   2
BRANCH   1  10
ATOM     10  C   UNK     1      36.911 -25.072 -14.771  0.00  0.00    +0.051 C 
BRANCH  10  11
ATOM     11  N   UNK     1      37.760 -24.090 -15.519  0.00  0.00    +0.389 N 
ATOM     12  H   UNK     1      37.290 -23.185 -15.544  0.00  0.00    -0.088 HD
ATOM     13  H   UNK     1      37.906 -24.423 -16.472  0.00  0.00    -0.088 HD
ATOM     14  H   UNK     1      38.661 -23.993 -15.051  0.00  0.00    -0.088 HD
ENDBRANCH  10  11
BRANCH  10  17
ATOM     15  O   UNK     1      36.263 -26.996 -15.996  0.00  0.00    -0.248 OA
ATOM     16  O   UNK     1      38.098 -27.130 -14.647  0.00  0.00    -0.248 OA
ATOM     17  C   UNK     1      37.118 -26.540 -15.184  0.00  0.00    +0.346 C 
ENDBRANCH  10  17
ENDBRANCH   1  10
TORSDOF 6
ENDMDL
MODEL 6
REMARK VINA RESULT:      -6.7      1.877      1.999
REMARK  Name = 6951294
REMARK  6 active torsions:
REMARK  status: ('A' for Active; 'I' for Inactive)
REMARK    1  A    between atoms: C_1  and  S_2
REMARK    2  A    between atoms: C_1  and  C_10
REMARK    3  A    between atoms: S_2  and  C_3
REMARK    4  A    between atoms: C_3  and  C_4
REMARK    5  A    between atoms: C_10  and  N_11
REMARK    6  A    between atoms: C_10  and  C_17
REMARK                            x       y       z     vdW  Elec       q    Type
REMARK                         _______ _______ _______ _____ _____    ______ ____
ROOT
ATOM      1  C   UNK     1      34.970 -16.418 -23.064  0.00  0.00    +0.047 C 
ENDROOT
BRANCH   1   2
ATOM      2  S   UNK     1      35.160 -18.205 -23.367  0.00  0.00    -0.137 S 
BRANCH   2   3
ATOM      3  C   UNK     1      35.918 -18.652 -21.790  0.00  0.00    +0.084 C 
BRANCH   3   4
ATOM      4  C   UNK     1      35.070 -19.615 -21.005  0.00  0.00    -0.011 C 
ATOM      5  C   UNK     1      33.688 -19.479 -21.020  0.00  0.00    -0.003 C 
ATOM      6  C   UNK     1      35.680 -20.628 -20.276  0.00  0.00    -0.003 C 
ATOM      7  C   UNK     1      32.902 -20.372 -20.292  0.00  0.00    -0.000 C 
ATOM      8  C   UNK     1      34.894 -21.521 -19.549  0.00  0.00    -0.000 C 
ATOM      9  C   UNK     1      33.504 -21.393 -19.556  0.00  0.00    -0.000 C 
ENDBRANCH   3   4
ENDBRANCH   2   3
ENDBRANCH   1   2
BRANCH   1  10
ATOM     10  C   UNK     1      33.944 -15.748 -23.982  0.00  0.00    +0.051 C 
BRANCH  10  11
ATOM     11  N   UNK     1      34.191 -16.264 -25.367  0.00  0.00    +0.389 N 
ATOM     12  H   UNK     1      33.373 -16.781 -25.688  0.00  0.00    -0.088 HD
ATOM     13  H   UNK     1      35.003 -16.882 -25.360  0.00  0.00    -0.088 HD
ATOM     14  H   UNK     1      34.367 -15.480 -25.995  0.00  0.00    -0.088 HD
ENDBRANCH  10  11
BRANCH  10  17
ATOM     15  O   UNK     1      33.402 -13.636 -24.917  0.00  0.00    -0.248 OA
ATOM     16  O   UNK     1      34.223 -13.708 -22.790  0.00  0.00    -0.248 OA
ATOM     17  C   UNK     1      33.839 -14.215 -23.881  0.00  0.00    +0.346 C 
ENDBRANCH  10  17
ENDBRANCH   1  10
TORSDOF 6
ENDMDL
MODEL 7
REMARK VINA RESULT:      -6.7      1.484      2.059
REMARK  Name = 6951294
REMARK  6 active torsions:
REMARK  status: ('A' for Active; 'I' for Inactive)
REMARK    1  A    between atoms: C_1  and  S_2
REMARK    2  A    between atoms: C_1  and  C_10
REMARK    3  A    between atoms: S_2  and  C_3
REMARK    4  A    between atoms: C_3  and  C_4
REMARK    5  A    between atoms: C_10  and  N_11
REMARK    6  A    between atoms: C_10  and  C_17
REMARK                            x       y       z     vdW  Elec       q    Type
REMARK                         _______ _______ _______ _____ _____    ______ ____
ROOT
ATOM      1  C   UNK     1      35.212 -16.370 -23.443  0.00  0.00    +0.047 C 
ENDROOT
BRANCH   1   2
ATOM      2  S   UNK     1      35.261 -18.192 -23.466  0.00  0.00    -0.137 S 
BRANCH   2   3
ATOM      3  C   UNK     1      35.877 -18.451 -21.788  0.00  0.00    +0.084 C 
BRANCH   3   4
ATOM      4  C   UNK     1      35.053 -19.456 -21.031  0.00  0.00    -0.011 C 
ATOM      5  C   UNK     1      35.687 -20.473 -20.330  0.00  0.00    -0.003 C 
ATOM      6  C   UNK     1      33.668 -19.354 -21.041  0.00  0.00    -0.003 C 
ATOM      7  C   UNK     1      34.924 -21.405 -19.627  0.00  0.00    -0.000 C 
ATOM      8  C   UNK     1      32.904 -20.285 -20.339  0.00  0.00    -0.000 C 
ATOM      9  C   UNK     1      33.531 -21.312 -19.632  0.00  0.00    -0.000 C 
ENDBRANCH   3   4
ENDBRANCH   2   3
ENDBRANCH   1   2
BRANCH   1  10
ATOM     10  C   UNK     1      33.840 -15.791 -23.802  0.00  0.00    +0.051 C 
BRANCH  10  11
ATOM     11  N   UNK     1      33.763 -15.743 -25.298  0.00  0.00    +0.389 N 
ATOM     12  H   UNK     1      34.625 -16.115 -25.695  0.00  0.00    -0.088 HD
ATOM     13  H   UNK     1      33.638 -14.777 -25.602  0.00  0.00    -0.088 HD
ATOM     14  H   UNK     1      32.972 -16.304 -25.615  0.00  0.00    -0.088 HD
ENDBRANCH  10  11
BRANCH  10  17
ATOM     15  O   UNK     1      32.532 -14.582 -22.237  0.00  0.00    -0.248 OA
ATOM     16  O   UNK     1      34.071 -13.445 -23.480  0.00  0.00    -0.248 OA
ATOM     17  C   UNK     1      33.451 -14.478 -23.100  0.00  0.00    +0.346 C 
ENDBRANCH  10  17
ENDBRANCH   1  10
TORSDOF 6
ENDMDL
MODEL 8
REMARK VINA RESULT:      -6.6      8.160     10.065
REMARK  Name = 6951294
REMARK  6 active torsions:
REMARK  status: ('A' for Active; 'I' for Inactive)
REMARK    1  A    between atoms: C_1  and  S_2
REMARK    2  A    between atoms: C_1  and  C_10
REMARK    3  A    between atoms: S_2  and  C_3
REMARK    4  A    between atoms: C_3  and  C_4
REMARK    5  A    between atoms: C_10  and  N_11
REMARK    6  A    between atoms: C_10  and  C_17
REMARK                            x       y       z     vdW  Elec       q    Type
REMARK                         _______ _______ _______ _____ _____    ______ ____
ROOT
ATOM      1  C   UNK     1      38.099 -24.451 -14.802  0.00  0.00    +0.047 C 
ENDROOT
BRANCH   1   2
ATOM      2  S   UNK     1      36.304 -24.600 -15.080  0.00  0.00    -0.137 S 
BRANCH   2   3
ATOM      3  C   UNK     1      35.940 -22.850 -15.337  0.00  0.00    +0.084 C 
BRANCH   3   4
ATOM      4  C   UNK     1      35.523 -22.559 -16.752  0.00  0.00    -0.011 C 
ATOM      5  C   UNK     1      36.395 -21.887 -17.598  0.00  0.00    -0.003 C 
ATOM      6  C   UNK     1      34.272 -22.967 -17.196  0.00  0.00    -0.003 C 
ATOM      7  C   UNK     1      36.009 -21.617 -18.911  0.00  0.00    -0.000 C 
ATOM      8  C   UNK     1      33.885 -22.698 -18.508  0.00  0.00    -0.000 C 
ATOM      9  C   UNK     1      34.753 -22.022 -19.366  0.00  0.00    -0.000 C 
ENDBRANCH   3   4
ENDBRANCH   2   3
ENDBRANCH   1   2
BRANCH   1  10
ATOM     10  C   UNK     1      38.836 -25.793 -14.827  0.00  0.00    +0.051 C 
BRANCH  10  11
ATOM     11  N   UNK     1      38.047 -26.742 -13.978  0.00  0.00    +0.389 N 
ATOM     12  H   UNK     1      38.683 -27.381 -13.502  0.00  0.00    -0.088 HD
ATOM     13  H   UNK     1      37.407 -27.275 -14.567  0.00  0.00    -0.088 HD
ATOM     14  H   UNK     1      37.513 -26.215 -13.286  0.00  0.00    -0.088 HD
ENDBRANCH  10  11
BRANCH  10  17
ATOM     15  O   UNK     1      40.788 -24.614 -14.175  0.00  0.00    -0.248 OA
ATOM     16  O   UNK     1      40.963 -26.841 -14.640  0.00  0.00    -0.248 OA
ATOM     17  C   UNK     1      40.341 -25.750 -14.508  0.00  0.00    +0.346 C 
ENDBRANCH  10  17
ENDBRANCH   1  10
TORSDOF 6
ENDMDL
MODEL 9
REMARK VINA RESULT:      -6.6      8.020      9.806
REMARK  Name = 6951294
REMARK  6 active torsions:
REMARK  status: ('A' for Active; 'I' for Inactive)
REMARK    1  A    between atoms: C_1  and  S_2
REMARK    2  A    between atoms: C_1  and  C_10
REMARK    3  A    between atoms: S_2  and  C_3
REMARK    4  A    between atoms: C_3  and  C_4
REMARK    5  A    between atoms: C_10  and  N_11
REMARK    6  A    between atoms: C_10  and  C_17
REMARK                            x       y       z     vdW  Elec       q    Type
REMARK                         _______ _______ _______ _____ _____    ______ ____
ROOT
ATOM      1  C   UNK     1      37.874 -24.417 -14.346  0.00  0.00    +0.047 C 
ENDROOT
BRANCH   1   2
ATOM      2  S   UNK     1      36.470 -23.276 -14.572  0.00  0.00    -0.137 S 
BRANCH   2   3
ATOM      3  C   UNK     1      37.110 -22.364 -15.994  0.00  0.00    +0.084 C 
BRANCH   3   4
ATOM      4  C   UNK     1      36.109 -22.285 -17.114  0.00  0.00    -0.011 C 
ATOM      5  C   UNK     1      34.852 -22.850 -16.950  0.00  0.00    -0.003 C 
ATOM      6  C   UNK     1      36.456 -21.648 -18.298  0.00  0.00    -0.003 C 
ATOM      7  C   UNK     1      33.924 -22.777 -17.989  0.00  0.00    -0.000 C 
ATOM      8  C   UNK     1      35.528 -21.574 -19.337  0.00  0.00    -0.000 C 
ATOM      9  C   UNK     1      34.262 -22.139 -19.183  0.00  0.00    -0.000 C 
ENDBRANCH   3   4
ENDBRANCH   2   3
ENDBRANCH   1   2
BRANCH   1  10
ATOM     10  C   UNK     1      37.920 -25.062 -12.958  0.00  0.00    +0.051 C 
BRANCH  10  11
ATOM     11  N   UNK     1      36.867 -26.128 -12.935  0.00  0.00    +0.389 N 
ATOM     12  H   UNK     1      36.217 -25.947 -12.171  0.00  0.00    -0.088 HD
ATOM     13  H   UNK     1      37.308 -27.038 -12.798  0.00  0.00    -0.088 HD
ATOM     14  H   UNK     1      36.362 -26.125 -13.821  0.00  0.00    -0.088 HD
ENDBRANCH  10  11
BRANCH  10  17
ATOM     15  O   UNK     1      38.796 -23.227 -11.738  0.00  0.00    -0.248 OA
ATOM     16  O   UNK     1      36.960 -24.304 -10.918  0.00  0.00    -0.248 OA
ATOM     17  C   UNK     1      37.881 -24.099 -11.758  0.00  0.00    +0.346 C 
ENDBRANCH  10  17
ENDBRANCH   1  10
TORSDOF 6
ENDMDL
