MODEL 1
REMARK VINA RESULT:      -8.9      0.000      0.000
REMARK  Name = 447722
REMARK  5 active torsions:
REMARK  status: ('A' for Active; 'I' for Inactive)
REMARK    1  A    between atoms: C_2  and  C_20
REMARK    2  A    between atoms: C_3  and  O_16
REMARK    3  A    between atoms: C_4  and  O_18
REMARK    4  A    between atoms: C_5  and  N_6
REMARK    5  A    between atoms: C_20  and  O_22
REMARK                            x       y       z     vdW  Elec       q    Type
REMARK                         _______ _______ _______ _____ _____    ______ ____
ROOT
ATOM      1  O   UNL     1      34.543 -16.874 -20.947  0.00  0.00    -0.333 OA
ATOM      2  C   UNL     1      34.212 -15.826 -21.888  0.00  0.00    +0.173 C 
ATOM      3  C   UNL     1      34.476 -16.396 -23.278  0.00  0.00    +0.171 C 
ATOM      4  C   UNL     1      34.240 -17.879 -23.069  0.00  0.00    +0.187 C 
ATOM      5  C   UNL     1      34.817 -18.085 -21.677  0.00  0.00    +0.225 C 
ENDROOT
BRANCH   5   6
ATOM      6  N   UNL     1      34.256 -19.229 -20.963  0.00  0.00    -0.247 N 
ATOM      7  N   UNL     1      32.730 -20.660 -20.186  0.00  0.00    -0.244 NA
ATOM      8  N   UNL     1      36.263 -20.201 -20.000  0.00  0.00    -0.228 NA
ATOM      9  N   UNL     1      35.745 -22.193 -18.689  0.00  0.00    -0.247 NA
ATOM     10  C   UNL     1      34.942 -20.153 -20.224  0.00  0.00    +0.151 C 
ATOM     11  C   UNL     1      32.931 -19.578 -20.909  0.00  0.00    +0.223 C 
ATOM     12  C   UNL     1      33.978 -21.030 -19.751  0.00  0.00    +0.122 C 
ATOM     13  C   UNL     1      34.421 -22.082 -18.957  0.00  0.00    +0.076 C 
ATOM     14  C   UNL     1      36.571 -21.260 -19.219  0.00  0.00    +0.252 C 
ATOM     15  C   UNL     1      33.517 -23.110 -18.370  0.00  0.00    +0.053 C 
ENDBRANCH   5   6
BRANCH   3  16
ATOM     16  O   UNL     1      35.846 -16.175 -23.613  0.00  0.00    -0.379 OA
ATOM     17  H   UNL     1      35.937 -16.122 -24.577  0.00  0.00    +0.211 HD
ENDBRANCH   3  16
BRANCH   4  18
ATOM     18  O   UNL     1      34.888 -18.683 -24.034  0.00  0.00    -0.378 OA
ATOM     19  H   UNL     1      34.963 -18.192 -24.866  0.00  0.00    +0.211 HD
ENDBRANCH   4  18
BRANCH   2  20
ATOM     20  C   UNL     1      32.758 -15.432 -21.673  0.00  0.00    +0.140 C 
ATOM     21  C   UNL     1      32.606 -13.935 -21.447  0.00  0.00    +0.034 C 
BRANCH  20  22
ATOM     22  O   UNL     1      32.244 -16.132 -20.546  0.00  0.00    -0.382 OA
ATOM     23  H   UNL     1      32.847 -16.021 -19.794  0.00  0.00    +0.210 HD
ENDBRANCH  20  22
ENDBRANCH   2  20
TORSDOF 5
ENDMDL
MODEL 2
REMARK VINA RESULT:      -8.7      6.083      9.411
REMARK  Name = 447722
REMARK  5 active torsions:
REMARK  status: ('A' for Active; 'I' for Inactive)
REMARK    1  A    between atoms: C_2  and  C_20
REMARK    2  A    between atoms: C_3  and  O_16
REMARK    3  A    between atoms: C_4  and  O_18
REMARK    4  A    between atoms: C_5  and  N_6
REMARK    5  A    between atoms: C_20  and  O_22
REMARK                            x       y       z     vdW  Elec       q    Type
REMARK                         _______ _______ _______ _____ _____    ______ ____
ROOT
ATOM      1  O   UNL     1      37.634 -23.526 -14.388  0.00  0.00    -0.333 OA
ATOM      2  C   UNL     1      38.103 -24.776 -13.831  0.00  0.00    +0.173 C 
ATOM      3  C   UNL     1      36.890 -25.698 -13.761  0.00  0.00    +0.171 C 
ATOM      4  C   UNL     1      36.032 -25.191 -14.903  0.00  0.00    +0.187 C 
ATOM      5  C   UNL     1      36.269 -23.691 -14.818  0.00  0.00    +0.225 C 
ENDROOT
BRANCH   5   6
ATOM      6  N   UNL     1      36.061 -22.983 -16.078  0.00  0.00    -0.247 N 
ATOM      7  N   UNL     1      36.521 -21.745 -17.876  0.00  0.00    -0.244 NA
ATOM      8  N   UNL     1      33.709 -23.436 -16.479  0.00  0.00    -0.228 NA
ATOM      9  N   UNL     1      32.943 -22.397 -18.550  0.00  0.00    -0.247 NA
ATOM     10  C   UNL     1      34.895 -22.895 -16.789  0.00  0.00    +0.151 C 
ATOM     11  C   UNL     1      37.007 -22.275 -16.774  0.00  0.00    +0.223 C 
ATOM     12  C   UNL     1      35.203 -22.124 -17.899  0.00  0.00    +0.122 C 
ATOM     13  C   UNL     1      34.171 -21.879 -18.799  0.00  0.00    +0.076 C 
ATOM     14  C   UNL     1      32.790 -23.131 -17.423  0.00  0.00    +0.252 C 
ATOM     15  C   UNL     1      34.333 -21.071 -20.040  0.00  0.00    +0.053 C 
ENDBRANCH   5   6
BRANCH   3  16
ATOM     16  O   UNL     1      36.213 -25.475 -12.523  0.00  0.00    -0.379 OA
ATOM     17  H   UNL     1      36.856 -25.487 -11.797  0.00  0.00    +0.211 HD
ENDBRANCH   3  16
BRANCH   4  18
ATOM     18  O   UNL     1      34.664 -25.517 -14.755  0.00  0.00    -0.378 OA
ATOM     19  H   UNL     1      34.315 -25.092 -13.956  0.00  0.00    +0.211 HD
ENDBRANCH   4  18
BRANCH   2  20
ATOM     20  C   UNL     1      39.208 -25.315 -14.727  0.00  0.00    +0.140 C 
ATOM     21  C   UNL     1      40.413 -25.777 -13.923  0.00  0.00    +0.034 C 
BRANCH  20  22
ATOM     22  O   UNL     1      39.613 -24.298 -15.636  0.00  0.00    -0.382 OA
ATOM     23  H   UNL     1      40.251 -24.665 -16.269  0.00  0.00    +0.210 HD
ENDBRANCH  20  22
ENDBRANCH   2  20
TORSDOF 5
ENDMDL
MODEL 3
REMARK VINA RESULT:      -8.4      6.694      9.904
REMARK  Name = 447722
REMARK  5 active torsions:
REMARK  status: ('A' for Active; 'I' for Inactive)
REMARK    1  A    between atoms: C_2  and  C_20
REMARK    2  A    between atoms: C_3  and  O_16
REMARK    3  A    between atoms: C_4  and  O_18
REMARK    4  A    between atoms: C_5  and  N_6
REMARK    5  A    between atoms: C_20  and  O_22
REMARK                            x       y       z     vdW  Elec       q    Type
REMARK                         _______ _______ _______ _____ _____    ______ ____
ROOT
ATOM      1  O   UNL     1      37.587 -23.552 -13.867  0.00  0.00    -0.333 OA
ATOM      2  C   UNL     1      38.320 -24.551 -13.119  0.00  0.00    +0.173 C 
ATOM      3  C   UNL     1      37.344 -25.126 -12.098  0.00  0.00    +0.171 C 
ATOM      4  C   UNL     1      36.008 -24.951 -12.793  0.00  0.00    +0.187 C 
ATOM      5  C   UNL     1      36.199 -23.610 -13.485  0.00  0.00    +0.225 C 
ENDROOT
BRANCH   5   6
ATOM      6  N   UNL     1      35.356 -23.422 -14.663  0.00  0.00    -0.247 N 
ATOM      7  N   UNL     1      33.538 -23.463 -15.955  0.00  0.00    -0.244 NA
ATOM      8  N   UNL     1      36.944 -22.435 -16.214  0.00  0.00    -0.228 NA
ATOM      9  N   UNL     1      35.902 -21.956 -18.368  0.00  0.00    -0.247 NA
ATOM     10  C   UNL     1      35.732 -22.891 -15.866  0.00  0.00    +0.151 C 
ATOM     11  C   UNL     1      34.029 -23.750 -14.768  0.00  0.00    +0.223 C 
ATOM     12  C   UNL     1      34.591 -22.926 -16.652  0.00  0.00    +0.122 C 
ATOM     13  C   UNL     1      34.705 -22.433 -17.948  0.00  0.00    +0.076 C 
ATOM     14  C   UNL     1      36.932 -21.986 -17.488  0.00  0.00    +0.252 C 
ATOM     15  C   UNL     1      33.577 -22.399 -18.919  0.00  0.00    +0.053 C 
ENDBRANCH   5   6
BRANCH   3  16
ATOM     16  O   UNL     1      37.378 -24.316 -10.923  0.00  0.00    -0.379 OA
ATOM     17  H   UNL     1      37.541 -24.877 -10.149  0.00  0.00    +0.211 HD
ENDBRANCH   3  16
BRANCH   4  18
ATOM     18  O   UNL     1      34.916 -24.930 -11.896  0.00  0.00    -0.378 OA
ATOM     19  H   UNL     1      34.887 -25.765 -11.403  0.00  0.00    +0.211 HD
ENDBRANCH   4  18
BRANCH   2  20
ATOM     20  C   UNL     1      38.840 -25.595 -14.098  0.00  0.00    +0.140 C 
ATOM     21  C   UNL     1      40.360 -25.645 -14.114  0.00  0.00    +0.034 C 
BRANCH  20  22
ATOM     22  O   UNL     1      38.366 -25.289 -15.405  0.00  0.00    -0.382 OA
ATOM     23  H   UNL     1      37.496 -24.864 -15.342  0.00  0.00    +0.210 HD
ENDBRANCH  20  22
ENDBRANCH   2  20
TORSDOF 5
ENDMDL
MODEL 4
REMARK VINA RESULT:      -8.4      7.723     10.344
REMARK  Name = 447722
REMARK  5 active torsions:
REMARK  status: ('A' for Active; 'I' for Inactive)
REMARK    1  A    between atoms: C_2  and  C_20
REMARK    2  A    between atoms: C_3  and  O_16
REMARK    3  A    between atoms: C_4  and  O_18
REMARK    4  A    between atoms: C_5  and  N_6
REMARK    5  A    between atoms: C_20  and  O_22
REMARK                            x       y       z     vdW  Elec       q    Type
REMARK                         _______ _______ _______ _____ _____    ______ ____
ROOT
ATOM      1  O   UNL     1      37.592 -23.363 -13.878  0.00  0.00    -0.333 OA
ATOM      2  C   UNL     1      38.545 -24.329 -13.377  0.00  0.00    +0.173 C 
ATOM      3  C   UNL     1      37.799 -25.178 -12.352  0.00  0.00    +0.171 C 
ATOM      4  C   UNL     1      36.372 -25.118 -12.860  0.00  0.00    +0.187 C 
ATOM      5  C   UNL     1      36.287 -23.684 -13.358  0.00  0.00    +0.225 C 
ENDROOT
BRANCH   5   6
ATOM      6  N   UNL     1      35.278 -23.471 -14.392  0.00  0.00    -0.247 N 
ATOM      7  N   UNL     1      34.409 -23.024 -16.398  0.00  0.00    -0.244 NA
ATOM      8  N   UNL     1      33.237 -23.832 -13.127  0.00  0.00    -0.228 NA
ATOM      9  N   UNL     1      31.260 -23.561 -14.532  0.00  0.00    -0.247 NA
ATOM     10  C   UNL     1      33.921 -23.548 -14.244  0.00  0.00    +0.151 C 
ATOM     11  C   UNL     1      35.520 -23.154 -15.704  0.00  0.00    +0.223 C 
ATOM     12  C   UNL     1      33.401 -23.267 -15.499  0.00  0.00    +0.122 C 
ATOM     13  C   UNL     1      32.016 -23.281 -15.622  0.00  0.00    +0.076 C 
ATOM     14  C   UNL     1      31.908 -23.815 -13.370  0.00  0.00    +0.252 C 
ATOM     15  C   UNL     1      31.299 -23.001 -16.898  0.00  0.00    +0.053 C 
ENDBRANCH   5   6
BRANCH   3  16
ATOM     16  O   UNL     1      37.878 -24.537 -11.079  0.00  0.00    -0.379 OA
ATOM     17  H   UNL     1      38.224 -23.638 -11.191  0.00  0.00    +0.211 HD
ENDBRANCH   3  16
BRANCH   4  18
ATOM     18  O   UNL     1      35.416 -25.384 -11.853  0.00  0.00    -0.378 OA
ATOM     19  H   UNL     1      35.685 -26.169 -11.351  0.00  0.00    +0.211 HD
ENDBRANCH   4  18
BRANCH   2  20
ATOM     20  C   UNL     1      39.067 -25.141 -14.553  0.00  0.00    +0.140 C 
ATOM     21  C   UNL     1      40.371 -25.848 -14.217  0.00  0.00    +0.034 C 
BRANCH  20  22
ATOM     22  O   UNL     1      39.276 -24.275 -15.664  0.00  0.00    -0.382 OA
ATOM     23  H   UNL     1      39.964 -24.647 -16.239  0.00  0.00    +0.210 HD
ENDBRANCH  20  22
ENDBRANCH   2  20
TORSDOF 5
ENDMDL
MODEL 5
REMARK VINA RESULT:      -8.3      6.895      9.567
REMARK  Name = 447722
REMARK  5 active torsions:
REMARK  status: ('A' for Active; 'I' for Inactive)
REMARK    1  A    between atoms: C_2  and  C_20
REMARK    2  A    between atoms: C_3  and  O_16
REMARK    3  A    between atoms: C_4  and  O_18
REMARK    4  A    between atoms: C_5  and  N_6
REMARK    5  A    between atoms: C_20  and  O_22
REMARK                            x       y       z     vdW  Elec       q    Type
REMARK                         _______ _______ _______ _____ _____    ______ ____
ROOT
ATOM      1  O   UNL     1      36.421 -25.300 -13.428  0.00  0.00    -0.333 OA
ATOM      2  C   UNL     1      37.775 -24.875 -13.145  0.00  0.00    +0.173 C 
ATOM      3  C   UNL     1      38.248 -24.099 -14.369  0.00  0.00    +0.171 C 
ATOM      4  C   UNL     1      36.950 -23.538 -14.918  0.00  0.00    +0.187 C 
ATOM      5  C   UNL     1      35.989 -24.687 -14.659  0.00  0.00    +0.225 C 
ENDROOT
BRANCH   5   6
ATOM      6  N   UNL     1      34.592 -24.280 -14.542  0.00  0.00    -0.247 N 
ATOM      7  N   UNL     1      32.608 -23.875 -13.604  0.00  0.00    -0.244 NA
ATOM      8  N   UNL     1      34.108 -23.627 -16.831  0.00  0.00    -0.228 NA
ATOM      9  N   UNL     1      31.803 -22.862 -17.069  0.00  0.00    -0.247 NA
ATOM     10  C   UNL     1      33.786 -23.810 -15.542  0.00  0.00    +0.151 C 
ATOM     11  C   UNL     1      33.837 -24.300 -13.397  0.00  0.00    +0.223 C 
ATOM     12  C   UNL     1      32.562 -23.565 -14.940  0.00  0.00    +0.122 C 
ATOM     13  C   UNL     1      31.548 -23.072 -15.755  0.00  0.00    +0.076 C 
ATOM     14  C   UNL     1      33.049 -23.148 -17.519  0.00  0.00    +0.252 C 
ATOM     15  C   UNL     1      30.177 -22.757 -15.266  0.00  0.00    +0.053 C 
ENDBRANCH   5   6
BRANCH   3  16
ATOM     16  O   UNL     1      38.804 -25.018 -15.310  0.00  0.00    -0.379 OA
ATOM     17  H   UNL     1      38.469 -24.814 -16.197  0.00  0.00    +0.211 HD
ENDBRANCH   3  16
BRANCH   4  18
ATOM     18  O   UNL     1      37.025 -23.213 -16.291  0.00  0.00    -0.378 OA
ATOM     19  H   UNL     1      37.247 -22.273 -16.389  0.00  0.00    +0.211 HD
ENDBRANCH   4  18
BRANCH   2  20
ATOM     20  C   UNL     1      37.756 -24.032 -11.878  0.00  0.00    +0.140 C 
ATOM     21  C   UNL     1      36.364 -23.960 -11.268  0.00  0.00    +0.034 C 
BRANCH  20  22
ATOM     22  O   UNL     1      38.202 -22.715 -12.184  0.00  0.00    -0.382 OA
ATOM     23  H   UNL     1      38.884 -22.757 -12.873  0.00  0.00    +0.210 HD
ENDBRANCH  20  22
ENDBRANCH   2  20
TORSDOF 5
ENDMDL
MODEL 6
REMARK VINA RESULT:      -8.2      6.580      8.973
REMARK  Name = 447722
REMARK  5 active torsions:
REMARK  status: ('A' for Active; 'I' for Inactive)
REMARK    1  A    between atoms: C_2  and  C_20
REMARK    2  A    between atoms: C_3  and  O_16
REMARK    3  A    between atoms: C_4  and  O_18
REMARK    4  A    between atoms: C_5  and  N_6
REMARK    5  A    between atoms: C_20  and  O_22
REMARK                            x       y       z     vdW  Elec       q    Type
REMARK                         _______ _______ _______ _____ _____    ______ ____
ROOT
ATOM      1  O   UNL     1      35.237 -24.717 -14.768  0.00  0.00    -0.333 OA
ATOM      2  C   UNL     1      36.274 -24.344 -13.829  0.00  0.00    +0.173 C 
ATOM      3  C   UNL     1      37.074 -23.228 -14.492  0.00  0.00    +0.171 C 
ATOM      4  C   UNL     1      36.040 -22.578 -15.390  0.00  0.00    +0.187 C 
ATOM      5  C   UNL     1      35.251 -23.787 -15.868  0.00  0.00    +0.225 C 
ENDROOT
BRANCH   5   6
ATOM      6  N   UNL     1      33.881 -23.481 -16.272  0.00  0.00    -0.247 N 
ATOM      7  N   UNL     1      32.165 -22.951 -17.597  0.00  0.00    -0.244 NA
ATOM      8  N   UNL     1      32.721 -23.665 -14.146  0.00  0.00    -0.228 NA
ATOM      9  N   UNL     1      30.335 -23.214 -14.393  0.00  0.00    -0.247 NA
ATOM     10  C   UNL     1      32.777 -23.438 -15.466  0.00  0.00    +0.151 C 
ATOM     11  C   UNL     1      33.460 -23.181 -17.542  0.00  0.00    +0.223 C 
ATOM     12  C   UNL     1      31.725 -23.108 -16.306  0.00  0.00    +0.122 C 
ATOM     13  C   UNL     1      30.466 -22.998 -15.724  0.00  0.00    +0.076 C 
ATOM     14  C   UNL     1      31.454 -23.529 -13.697  0.00  0.00    +0.252 C 
ATOM     15  C   UNL     1      29.234 -22.651 -16.485  0.00  0.00    +0.053 C 
ENDBRANCH   5   6
BRANCH   3  16
ATOM     16  O   UNL     1      38.101 -23.812 -15.294  0.00  0.00    -0.379 OA
ATOM     17  H   UNL     1      38.959 -23.435 -15.045  0.00  0.00    +0.211 HD
ENDBRANCH   3  16
BRANCH   4  18
ATOM     18  O   UNL     1      36.613 -21.863 -16.466  0.00  0.00    -0.378 OA
ATOM     19  H   UNL     1      35.918 -21.381 -16.940  0.00  0.00    +0.211 HD
ENDBRANCH   4  18
BRANCH   2  20
ATOM     20  C   UNL     1      35.610 -23.910 -12.531  0.00  0.00    +0.140 C 
ATOM     21  C   UNL     1      36.630 -23.665 -11.430  0.00  0.00    +0.034 C 
BRANCH  20  22
ATOM     22  O   UNL     1      34.698 -24.918 -12.110  0.00  0.00    -0.382 OA
ATOM     23  H   UNL     1      33.823 -24.523 -11.966  0.00  0.00    +0.210 HD
ENDBRANCH  20  22
ENDBRANCH   2  20
TORSDOF 5
ENDMDL
MODEL 7
REMARK VINA RESULT:      -8.0      7.020      8.710
REMARK  Name = 447722
REMARK  5 active torsions:
REMARK  status: ('A' for Active; 'I' for Inactive)
REMARK    1  A    between atoms: C_2  and  C_20
REMARK    2  A    between atoms: C_3  and  O_16
REMARK    3  A    between atoms: C_4  and  O_18
REMARK    4  A    between atoms: C_5  and  N_6
REMARK    5  A    between atoms: C_20  and  O_22
REMARK                            x       y       z     vdW  Elec       q    Type
REMARK                         _______ _______ _______ _____ _____    ______ ____
ROOT
ATOM      1  O   UNL     1      33.734 -22.889 -14.752  0.00  0.00    -0.333 OA
ATOM      2  C   UNL     1      32.432 -23.471 -14.996  0.00  0.00    +0.173 C 
ATOM      3  C   UNL     1      32.326 -23.673 -16.504  0.00  0.00    +0.171 C 
ATOM      4  C   UNL     1      33.775 -23.871 -16.906  0.00  0.00    +0.187 C 
ATOM      5  C   UNL     1      34.482 -22.890 -15.983  0.00  0.00    +0.225 C 
ENDROOT
BRANCH   5   6
ATOM      6  N   UNL     1      35.877 -23.229 -15.712  0.00  0.00    -0.247 N 
ATOM      7  N   UNL     1      38.075 -22.956 -15.440  0.00  0.00    -0.244 NA
ATOM      8  N   UNL     1      35.698 -25.612 -15.278  0.00  0.00    -0.228 NA
ATOM      9  N   UNL     1      37.875 -26.589 -14.768  0.00  0.00    -0.247 NA
ATOM     10  C   UNL     1      36.377 -24.462 -15.399  0.00  0.00    +0.151 C 
ATOM     11  C   UNL     1      36.937 -22.359 -15.724  0.00  0.00    +0.223 C 
ATOM     12  C   UNL     1      37.741 -24.271 -15.235  0.00  0.00    +0.122 C 
ATOM     13  C   UNL     1      38.497 -25.392 -14.907  0.00  0.00    +0.076 C 
ATOM     14  C   UNL     1      36.535 -26.623 -14.960  0.00  0.00    +0.252 C 
ATOM     15  C   UNL     1      39.971 -25.359 -14.697  0.00  0.00    +0.053 C 
ENDBRANCH   5   6
BRANCH   3  16
ATOM     16  O   UNL     1      31.829 -22.473 -17.096  0.00  0.00    -0.379 OA
ATOM     17  H   UNL     1      31.576 -21.849 -16.397  0.00  0.00    +0.211 HD
ENDBRANCH   3  16
BRANCH   4  18
ATOM     18  O   UNL     1      34.015 -23.580 -18.268  0.00  0.00    -0.378 OA
ATOM     19  H   UNL     1      34.548 -22.772 -18.337  0.00  0.00    +0.211 HD
ENDBRANCH   4  18
BRANCH   2  20
ATOM     20  C   UNL     1      32.335 -24.773 -14.214  0.00  0.00    +0.140 C 
ATOM     21  C   UNL     1      30.983 -24.924 -13.535  0.00  0.00    +0.034 C 
BRANCH  20  22
ATOM     22  O   UNL     1      33.361 -24.804 -13.227  0.00  0.00    -0.382 OA
ATOM     23  H   UNL     1      33.533 -23.903 -12.911  0.00  0.00    +0.210 HD
ENDBRANCH  20  22
ENDBRANCH   2  20
TORSDOF 5
ENDMDL
MODEL 8
REMARK VINA RESULT:      -8.0      4.899      7.774
REMARK  Name = 447722
REMARK  5 active torsions:
REMARK  status: ('A' for Active; 'I' for Inactive)
REMARK    1  A    between atoms: C_2  and  C_20
REMARK    2  A    between atoms: C_3  and  O_16
REMARK    3  A    between atoms: C_4  and  O_18
REMARK    4  A    between atoms: C_5  and  N_6
REMARK    5  A    between atoms: C_20  and  O_22
REMARK                            x       y       z     vdW  Elec       q    Type
REMARK                         _______ _______ _______ _____ _____    ______ ____
ROOT
ATOM      1  O   UNL     1      35.384 -24.287 -16.114  0.00  0.00    -0.333 OA
ATOM      2  C   UNL     1      35.859 -24.266 -14.747  0.00  0.00    +0.173 C 
ATOM      3  C   UNL     1      36.914 -23.168 -14.675  0.00  0.00    +0.171 C 
ATOM      4  C   UNL     1      36.456 -22.207 -15.754  0.00  0.00    +0.187 C 
ATOM      5  C   UNL     1      35.951 -23.167 -16.820  0.00  0.00    +0.225 C 
ENDROOT
BRANCH   5   6
ATOM      6  N   UNL     1      34.951 -22.591 -17.715  0.00  0.00    -0.247 N 
ATOM      7  N   UNL     1      32.957 -22.190 -18.633  0.00  0.00    -0.244 NA
ATOM      8  N   UNL     1      36.337 -21.143 -19.086  0.00  0.00    -0.228 NA
ATOM      9  N   UNL     1      35.007 -19.963 -20.758  0.00  0.00    -0.247 NA
ATOM     10  C   UNL     1      35.168 -21.686 -18.717  0.00  0.00    +0.151 C 
ATOM     11  C   UNL     1      33.606 -22.862 -17.705  0.00  0.00    +0.223 C 
ATOM     12  C   UNL     1      33.920 -21.452 -19.273  0.00  0.00    +0.122 C 
ATOM     13  C   UNL     1      33.863 -20.552 -20.332  0.00  0.00    +0.076 C 
ATOM     14  C   UNL     1      36.156 -20.290 -20.118  0.00  0.00    +0.252 C 
ATOM     15  C   UNL     1      32.604 -20.189 -21.039  0.00  0.00    +0.053 C 
ENDBRANCH   5   6
BRANCH   3  16
ATOM     16  O   UNL     1      38.179 -23.721 -15.037  0.00  0.00    -0.379 OA
ATOM     17  H   UNL     1      38.241 -24.631 -14.705  0.00  0.00    +0.211 HD
ENDBRANCH   3  16
BRANCH   4  18
ATOM     18  O   UNL     1      37.496 -21.382 -16.238  0.00  0.00    -0.378 OA
ATOM     19  H   UNL     1      38.219 -21.936 -16.572  0.00  0.00    +0.211 HD
ENDBRANCH   4  18
BRANCH   2  20
ATOM     20  C   UNL     1      34.670 -24.009 -13.831  0.00  0.00    +0.140 C 
ATOM     21  C   UNL     1      35.067 -24.058 -12.364  0.00  0.00    +0.034 C 
BRANCH  20  22
ATOM     22  O   UNL     1      33.667 -24.988 -14.079  0.00  0.00    -0.382 OA
ATOM     23  H   UNL     1      32.838 -24.715 -13.656  0.00  0.00    +0.210 HD
ENDBRANCH  20  22
ENDBRANCH   2  20
TORSDOF 5
ENDMDL
MODEL 9
REMARK VINA RESULT:      -8.0      5.606      8.299
REMARK  Name = 447722
REMARK  5 active torsions:
REMARK  status: ('A' for Active; 'I' for Inactive)
REMARK    1  A    between atoms: C_2  and  C_20
REMARK    2  A    between atoms: C_3  and  O_16
REMARK    3  A    between atoms: C_4  and  O_18
REMARK    4  A    between atoms: C_5  and  N_6
REMARK    5  A    between atoms: C_20  and  O_22
REMARK                            x       y       z     vdW  Elec       q    Type
REMARK                         _______ _______ _______ _____ _____    ______ ____
ROOT
ATOM      1  O   UNL     1      34.316 -24.104 -17.226  0.00  0.00    -0.333 OA
ATOM      2  C   UNL     1      33.287 -23.212 -17.715  0.00  0.00    +0.173 C 
ATOM      3  C   UNL     1      32.474 -22.783 -16.498  0.00  0.00    +0.171 C 
ATOM      4  C   UNL     1      33.496 -22.867 -15.381  0.00  0.00    +0.187 C 
ATOM      5  C   UNL     1      34.287 -24.101 -15.786  0.00  0.00    +0.225 C 
ENDROOT
BRANCH   5   6
ATOM      6  N   UNL     1      35.652 -24.131 -15.266  0.00  0.00    -0.247 N 
ATOM      7  N   UNL     1      37.573 -23.393 -14.405  0.00  0.00    -0.244 NA
ATOM      8  N   UNL     1      36.168 -26.497 -15.461  0.00  0.00    -0.228 NA
ATOM      9  N   UNL     1      38.426 -26.982 -14.674  0.00  0.00    -0.247 NA
ATOM     10  C   UNL     1      36.458 -25.228 -15.138  0.00  0.00    +0.151 C 
ATOM     11  C   UNL     1      36.368 -23.054 -14.812  0.00  0.00    +0.223 C 
ATOM     12  C   UNL     1      37.644 -24.749 -14.603  0.00  0.00    +0.122 C 
ATOM     13  C   UNL     1      38.650 -25.680 -14.371  0.00  0.00    +0.076 C 
ATOM     14  C   UNL     1      37.217 -27.305 -15.193  0.00  0.00    +0.252 C 
ATOM     15  C   UNL     1      39.982 -25.330 -13.803  0.00  0.00    +0.053 C 
ENDBRANCH   5   6
BRANCH   3  16
ATOM     16  O   UNL     1      31.443 -23.744 -16.271  0.00  0.00    -0.379 OA
ATOM     17  H   UNL     1      31.838 -24.578 -15.976  0.00  0.00    +0.211 HD
ENDBRANCH   3  16
BRANCH   4  18
ATOM     18  O   UNL     1      32.909 -23.012 -14.104  0.00  0.00    -0.378 OA
ATOM     19  H   UNL     1      32.740 -23.951 -13.931  0.00  0.00    +0.211 HD
ENDBRANCH   4  18
BRANCH   2  20
ATOM     20  C   UNL     1      33.961 -22.044 -18.421  0.00  0.00    +0.140 C 
ATOM     21  C   UNL     1      33.163 -21.577 -19.629  0.00  0.00    +0.034 C 
BRANCH  20  22
ATOM     22  O   UNL     1      35.262 -22.439 -18.842  0.00  0.00    -0.382 OA
ATOM     23  H   UNL     1      35.316 -22.393 -19.810  0.00  0.00    +0.210 HD
ENDBRANCH  20  22
ENDBRANCH   2  20
TORSDOF 5
ENDMDL
