MODEL 1
REMARK VINA RESULT:     -11.2      0.000      0.000
REMARK  Name = 77993
REMARK  6 active torsions:
REMARK  status: ('A' for Active; 'I' for Inactive)
REMARK    1  A    between atoms: C_2  and  C_11
REMARK    2  A    between atoms: C_7  and  C_19
REMARK    3  A    between atoms: C_11  and  C_13
REMARK    4  A    between atoms: C_19  and  C_20
REMARK    5  A    between atoms: C_20  and  S_21
REMARK    6  A    between atoms: S_21  and  C_24
REMARK                            x       y       z     vdW  Elec       q    Type
REMARK                         _______ _______ _______ _____ _____    ______ ____
ROOT
ATOM      1  N   UNL     1      33.478 -23.698 -16.000  0.00  0.00    -0.312 N 
ATOM      2  C   UNL     1      35.602 -23.187 -15.737  0.00  0.00    -0.008 C 
ATOM      3  C   UNL     1      35.199 -22.679 -16.990  0.00  0.00    +0.010 C 
ATOM      4  C   UNL     1      34.542 -23.806 -15.144  0.00  0.00    +0.058 C 
ATOM      5  C   UNL     1      33.850 -23.014 -17.136  0.00  0.00    +0.048 C 
ATOM      6  C   UNL     1      35.836 -21.966 -18.025  0.00  0.00    -0.003 C 
ATOM      7  C   UNL     1      35.102 -21.616 -19.164  0.00  0.00    -0.020 C 
ATOM      8  C   UNL     1      33.105 -22.670 -18.268  0.00  0.00    +0.014 C 
ATOM      9  C   UNL     1      33.758 -21.963 -19.282  0.00  0.00    -0.003 C 
ATOM     10  H   UNL     1      32.577 -24.056 -15.828  0.00  0.00    +0.152 HD
ENDROOT
BRANCH   2  11
ATOM     11  C   UNL     1      36.972 -23.071 -15.144  0.00  0.00    +0.007 C 
BRANCH  11  13
ATOM     12  N   UNL     1      37.706 -23.780 -12.860  0.00  0.00    +0.387 N 
ATOM     13  C   UNL     1      37.297 -24.222 -14.200  0.00  0.00    -0.054 C 
ATOM     14  C   UNL     1      38.514 -25.019 -14.676  0.00  0.00    -0.023 C 
ATOM     15  C   UNL     1      39.207 -25.494 -13.403  0.00  0.00    -0.025 C 
ATOM     16  C   UNL     1      38.365 -24.945 -12.263  0.00  0.00    -0.077 C 
ATOM     17  C   UNL     1      36.592 -23.319 -12.040  0.00  0.00    -0.101 C 
ATOM     18  H   UNL     1      38.322 -22.970 -12.919  0.00  0.00    -0.080 HD
ENDBRANCH  11  13
ENDBRANCH   2  11
BRANCH   7  19
ATOM     19  C   UNL     1      35.771 -20.861 -20.266  0.00  0.00    +0.052 C 
BRANCH  19  20
ATOM     20  C   UNL     1      34.900 -19.767 -20.890  0.00  0.00    +0.161 C 
BRANCH  20  21
ATOM     21  S   UNL     1      35.836 -18.348 -21.367  0.00  0.00    +0.009 S 
ATOM     22  O   UNL     1      37.219 -18.745 -21.565  0.00  0.00    -0.169 OA
ATOM     23  O   UNL     1      35.507 -17.271 -20.448  0.00  0.00    -0.169 OA
BRANCH  21  24
ATOM     24  C   UNL     1      35.187 -17.923 -22.956  0.00  0.00    +0.106 C 
ATOM     25  C   UNL     1      34.822 -18.933 -23.829  0.00  0.00    +0.018 C 
ATOM     26  C   UNL     1      35.056 -16.587 -23.297  0.00  0.00    +0.018 C 
ATOM     27  C   UNL     1      34.310 -18.597 -25.083  0.00  0.00    +0.001 C 
ATOM     28  C   UNL     1      34.544 -16.252 -24.551  0.00  0.00    +0.001 C 
ATOM     29  C   UNL     1      34.171 -17.257 -25.443  0.00  0.00    +0.000 C 
ENDBRANCH  21  24
ENDBRANCH  20  21
ENDBRANCH  19  20
ENDBRANCH   7  19
TORSDOF 6
ENDMDL
MODEL 2
REMARK VINA RESULT:     -11.0      1.198      1.827
REMARK  Name = 77993
REMARK  6 active torsions:
REMARK  status: ('A' for Active; 'I' for Inactive)
REMARK    1  A    between atoms: C_2  and  C_11
REMARK    2  A    between atoms: C_7  and  C_19
REMARK    3  A    between atoms: C_11  and  C_13
REMARK    4  A    between atoms: C_19  and  C_20
REMARK    5  A    between atoms: C_20  and  S_21
REMARK    6  A    between atoms: S_21  and  C_24
REMARK                            x       y       z     vdW  Elec       q    Type
REMARK                         _______ _______ _______ _____ _____    ______ ____
ROOT
ATOM      1  N   UNL     1      33.540 -23.604 -16.317  0.00  0.00    -0.312 N 
ATOM      2  C   UNL     1      35.670 -23.137 -16.023  0.00  0.00    -0.008 C 
ATOM      3  C   UNL     1      35.275 -22.547 -17.242  0.00  0.00    +0.010 C 
ATOM      4  C   UNL     1      34.602 -23.778 -15.470  0.00  0.00    +0.058 C 
ATOM      5  C   UNL     1      33.922 -22.855 -17.408  0.00  0.00    +0.048 C 
ATOM      6  C   UNL     1      35.921 -21.779 -18.231  0.00  0.00    -0.003 C 
ATOM      7  C   UNL     1      35.193 -21.349 -19.345  0.00  0.00    -0.020 C 
ATOM      8  C   UNL     1      33.182 -22.433 -18.517  0.00  0.00    +0.014 C 
ATOM      9  C   UNL     1      33.845 -21.673 -19.485  0.00  0.00    -0.003 C 
ATOM     10  H   UNL     1      32.635 -23.961 -16.168  0.00  0.00    +0.152 HD
ENDROOT
BRANCH   2  11
ATOM     11  C   UNL     1      37.041 -23.074 -15.423  0.00  0.00    +0.007 C 
BRANCH  11  13
ATOM     12  N   UNL     1      37.599 -23.764 -13.084  0.00  0.00    +0.387 N 
ATOM     13  C   UNL     1      37.303 -24.217 -14.450  0.00  0.00    -0.054 C 
ATOM     14  C   UNL     1      38.563 -25.002 -14.822  0.00  0.00    -0.023 C 
ATOM     15  C   UNL     1      39.158 -25.462 -13.496  0.00  0.00    -0.025 C 
ATOM     16  C   UNL     1      38.221 -24.918 -12.429  0.00  0.00    -0.077 C 
ATOM     17  C   UNL     1      36.418 -23.312 -12.358  0.00  0.00    -0.101 C 
ATOM     18  H   UNL     1      38.209 -22.946 -13.099  0.00  0.00    -0.080 HD
ENDBRANCH  11  13
ENDBRANCH   2  11
BRANCH   7  19
ATOM     19  C   UNL     1      35.872 -20.536 -20.398  0.00  0.00    +0.052 C 
BRANCH  19  20
ATOM     20  C   UNL     1      34.959 -19.515 -21.083  0.00  0.00    +0.161 C 
BRANCH  20  21
ATOM     21  S   UNL     1      35.802 -18.574 -22.316  0.00  0.00    +0.009 S 
ATOM     22  O   UNL     1      35.385 -19.041 -23.627  0.00  0.00    -0.169 OA
ATOM     23  O   UNL     1      37.211 -18.542 -21.964  0.00  0.00    -0.169 OA
BRANCH  21  24
ATOM     24  C   UNL     1      35.157 -16.940 -22.121  0.00  0.00    +0.106 C 
ATOM     25  C   UNL     1      34.828 -16.489 -20.854  0.00  0.00    +0.018 C 
ATOM     26  C   UNL     1      34.992 -16.140 -23.240  0.00  0.00    +0.018 C 
ATOM     27  C   UNL     1      34.319 -15.199 -20.701  0.00  0.00    +0.001 C 
ATOM     28  C   UNL     1      34.483 -14.850 -23.086  0.00  0.00    +0.001 C 
ATOM     29  C   UNL     1      34.147 -14.380 -21.817  0.00  0.00    +0.000 C 
ENDBRANCH  21  24
ENDBRANCH  20  21
ENDBRANCH  19  20
ENDBRANCH   7  19
TORSDOF 6
ENDMDL
MODEL 3
REMARK VINA RESULT:     -11.0      5.577      8.851
REMARK  Name = 77993
REMARK  6 active torsions:
REMARK  status: ('A' for Active; 'I' for Inactive)
REMARK    1  A    between atoms: C_2  and  C_11
REMARK    2  A    between atoms: C_7  and  C_19
REMARK    3  A    between atoms: C_11  and  C_13
REMARK    4  A    between atoms: C_19  and  C_20
REMARK    5  A    between atoms: C_20  and  S_21
REMARK    6  A    between atoms: S_21  and  C_24
REMARK                            x       y       z     vdW  Elec       q    Type
REMARK                         _______ _______ _______ _____ _____    ______ ____
ROOT
ATOM      1  N   UNL     1      35.193 -17.639 -24.376  0.00  0.00    -0.312 N 
ATOM      2  C   UNL     1      35.312 -17.987 -22.207  0.00  0.00    -0.008 C 
ATOM      3  C   UNL     1      34.562 -16.808 -22.403  0.00  0.00    +0.010 C 
ATOM      4  C   UNL     1      35.690 -18.483 -23.419  0.00  0.00    +0.058 C 
ATOM      5  C   UNL     1      34.499 -16.607 -23.784  0.00  0.00    +0.048 C 
ATOM      6  C   UNL     1      33.925 -15.882 -21.553  0.00  0.00    -0.003 C 
ATOM      7  C   UNL     1      33.251 -14.793 -22.115  0.00  0.00    -0.020 C 
ATOM      8  C   UNL     1      33.829 -15.522 -24.359  0.00  0.00    +0.014 C 
ATOM      9  C   UNL     1      33.205 -14.617 -23.496  0.00  0.00    -0.003 C 
ATOM     10  H   UNL     1      35.313 -17.753 -25.346  0.00  0.00    +0.152 HD
ENDROOT
BRANCH   2  11
ATOM     11  C   UNL     1      35.645 -18.604 -20.883  0.00  0.00    +0.007 C 
BRANCH  11  13
ATOM     12  N   UNL     1      33.979 -20.260 -20.024  0.00  0.00    +0.387 N 
ATOM     13  C   UNL     1      35.213 -20.062 -20.796  0.00  0.00    -0.054 C 
ATOM     14  C   UNL     1      36.229 -20.910 -20.027  0.00  0.00    -0.023 C 
ATOM     15  C   UNL     1      35.406 -21.976 -19.312  0.00  0.00    -0.025 C 
ATOM     16  C   UNL     1      33.963 -21.688 -19.697  0.00  0.00    -0.077 C 
ATOM     17  C   UNL     1      32.776 -19.865 -20.748  0.00  0.00    -0.101 C 
ATOM     18  H   UNL     1      33.974 -19.668 -19.193  0.00  0.00    -0.080 HD
ENDBRANCH  11  13
ENDBRANCH   2  11
BRANCH   7  19
ATOM     19  C   UNL     1      32.574 -13.807 -21.220  0.00  0.00    +0.052 C 
BRANCH  19  20
ATOM     20  C   UNL     1      32.252 -12.470 -21.895  0.00  0.00    +0.161 C 
BRANCH  20  21
ATOM     21  S   UNL     1      31.373 -11.370 -20.832  0.00  0.00    +0.009 S 
ATOM     22  O   UNL     1      31.781 -11.620 -19.460  0.00  0.00    -0.169 OA
ATOM     23  O   UNL     1      29.968 -11.424 -21.200  0.00  0.00    -0.169 OA
BRANCH  21  24
ATOM     24  C   UNL     1      31.987  -9.771 -21.270  0.00  0.00    +0.106 C 
ATOM     25  C   UNL     1      32.181  -9.463 -22.606  0.00  0.00    +0.018 C 
ATOM     26  C   UNL     1      32.263  -8.855 -20.268  0.00  0.00    +0.018 C 
ATOM     27  C   UNL     1      32.665  -8.202 -22.951  0.00  0.00    +0.001 C 
ATOM     28  C   UNL     1      32.748  -7.593 -20.614  0.00  0.00    +0.001 C 
ATOM     29  C   UNL     1      32.948  -7.267 -21.954  0.00  0.00    +0.000 C 
ENDBRANCH  21  24
ENDBRANCH  20  21
ENDBRANCH  19  20
ENDBRANCH   7  19
TORSDOF 6
ENDMDL
MODEL 4
REMARK VINA RESULT:     -10.8      2.278      4.122
REMARK  Name = 77993
REMARK  6 active torsions:
REMARK  status: ('A' for Active; 'I' for Inactive)
REMARK    1  A    between atoms: C_2  and  C_11
REMARK    2  A    between atoms: C_7  and  C_19
REMARK    3  A    between atoms: C_11  and  C_13
REMARK    4  A    between atoms: C_19  and  C_20
REMARK    5  A    between atoms: C_20  and  S_21
REMARK    6  A    between atoms: S_21  and  C_24
REMARK                            x       y       z     vdW  Elec       q    Type
REMARK                         _______ _______ _______ _____ _____    ______ ____
ROOT
ATOM      1  N   UNL     1      35.851 -22.975 -15.960  0.00  0.00    -0.312 N 
ATOM      2  C   UNL     1      33.845 -23.315 -16.798  0.00  0.00    -0.008 C 
ATOM      3  C   UNL     1      34.566 -22.544 -17.734  0.00  0.00    +0.010 C 
ATOM      4  C   UNL     1      34.641 -23.570 -15.721  0.00  0.00    +0.058 C 
ATOM      5  C   UNL     1      35.834 -22.341 -17.183  0.00  0.00    +0.048 C 
ATOM      6  C   UNL     1      34.281 -21.992 -18.998  0.00  0.00    -0.003 C 
ATOM      7  C   UNL     1      35.270 -21.260 -19.663  0.00  0.00    -0.020 C 
ATOM      8  C   UNL     1      36.833 -21.612 -17.836  0.00  0.00    +0.014 C 
ATOM      9  C   UNL     1      36.527 -21.073 -19.089  0.00  0.00    -0.003 C 
ATOM     10  H   UNL     1      36.621 -22.998 -15.348  0.00  0.00    +0.152 HD
ENDROOT
BRANCH   2  11
ATOM     11  C   UNL     1      32.430 -23.782 -16.952  0.00  0.00    +0.007 C 
BRANCH  11  13
ATOM     12  N   UNL     1      30.918 -24.345 -15.040  0.00  0.00    +0.387 N 
ATOM     13  C   UNL     1      31.524 -23.271 -15.840  0.00  0.00    -0.054 C 
ATOM     14  C   UNL     1      30.300 -22.538 -16.396  0.00  0.00    -0.023 C 
ATOM     15  C   UNL     1      29.175 -22.825 -15.409  0.00  0.00    -0.025 C 
ATOM     16  C   UNL     1      29.798 -23.710 -14.341  0.00  0.00    -0.077 C 
ATOM     17  C   UNL     1      31.851 -24.962 -14.104  0.00  0.00    -0.101 C 
ATOM     18  H   UNL     1      30.620 -25.116 -15.638  0.00  0.00    -0.080 HD
ENDBRANCH  11  13
ENDBRANCH   2  11
BRANCH   7  19
ATOM     19  C   UNL     1      34.975 -20.671 -21.003  0.00  0.00    +0.052 C 
BRANCH  19  20
ATOM     20  C   UNL     1      34.342 -19.277 -20.946  0.00  0.00    +0.161 C 
BRANCH  20  21
ATOM     21  S   UNL     1      35.490 -17.997 -21.347  0.00  0.00    +0.009 S 
ATOM     22  O   UNL     1      36.798 -18.592 -21.556  0.00  0.00    -0.169 OA
ATOM     23  O   UNL     1      35.318 -16.928 -20.378  0.00  0.00    -0.169 OA
BRANCH  21  24
ATOM     24  C   UNL     1      34.935 -17.403 -22.916  0.00  0.00    +0.106 C 
ATOM     25  C   UNL     1      34.866 -18.279 -23.986  0.00  0.00    +0.018 C 
ATOM     26  C   UNL     1      34.578 -16.071 -23.047  0.00  0.00    +0.018 C 
ATOM     27  C   UNL     1      34.428 -17.810 -25.224  0.00  0.00    +0.001 C 
ATOM     28  C   UNL     1      34.139 -15.602 -24.286  0.00  0.00    +0.001 C 
ATOM     29  C   UNL     1      34.065 -16.471 -25.373  0.00  0.00    +0.000 C 
ENDBRANCH  21  24
ENDBRANCH  20  21
ENDBRANCH  19  20
ENDBRANCH   7  19
TORSDOF 6
ENDMDL
MODEL 5
REMARK VINA RESULT:     -10.7      5.730     11.926
REMARK  Name = 77993
REMARK  6 active torsions:
REMARK  status: ('A' for Active; 'I' for Inactive)
REMARK    1  A    between atoms: C_2  and  C_11
REMARK    2  A    between atoms: C_7  and  C_19
REMARK    3  A    between atoms: C_11  and  C_13
REMARK    4  A    between atoms: C_19  and  C_20
REMARK    5  A    between atoms: C_20  and  S_21
REMARK    6  A    between atoms: S_21  and  C_24
REMARK                            x       y       z     vdW  Elec       q    Type
REMARK                         _______ _______ _______ _____ _____    ______ ____
ROOT
ATOM      1  N   UNL     1      33.262 -13.309 -26.497  0.00  0.00    -0.312 N 
ATOM      2  C   UNL     1      33.813 -12.054 -24.776  0.00  0.00    -0.008 C 
ATOM      3  C   UNL     1      33.953 -13.400 -24.376  0.00  0.00    +0.010 C 
ATOM      4  C   UNL     1      33.392 -12.014 -26.071  0.00  0.00    +0.058 C 
ATOM      5  C   UNL     1      33.599 -14.178 -25.482  0.00  0.00    +0.048 C 
ATOM      6  C   UNL     1      34.344 -14.050 -23.189  0.00  0.00    -0.003 C 
ATOM      7  C   UNL     1      34.366 -15.448 -23.151  0.00  0.00    -0.020 C 
ATOM      8  C   UNL     1      33.616 -15.576 -25.459  0.00  0.00    +0.014 C 
ATOM      9  C   UNL     1      34.007 -16.198 -24.270  0.00  0.00    -0.003 C 
ATOM     10  H   UNL     1      32.971 -13.581 -27.397  0.00  0.00    +0.152 HD
ENDROOT
BRANCH   2  11
ATOM     11  C   UNL     1      34.083 -10.854 -23.921  0.00  0.00    +0.007 C 
BRANCH  11  13
ATOM     12  N   UNL     1      33.042  -9.005 -22.597  0.00  0.00    +0.387 N 
ATOM     13  C   UNL     1      32.805 -10.224 -23.383  0.00  0.00    -0.054 C 
ATOM     14  C   UNL     1      32.100 -11.138 -22.378  0.00  0.00    -0.023 C 
ATOM     15  C   UNL     1      31.444 -10.201 -21.372  0.00  0.00    -0.025 C 
ATOM     16  C   UNL     1      31.805  -8.800 -21.838  0.00  0.00    -0.077 C 
ATOM     17  C   UNL     1      33.363  -7.843 -23.417  0.00  0.00    -0.101 C 
ATOM     18  H   UNL     1      33.857  -9.117 -21.994  0.00  0.00    -0.080 HD
ENDBRANCH  11  13
ENDBRANCH   2  11
BRANCH   7  19
ATOM     19  C   UNL     1      34.778 -16.144 -21.895  0.00  0.00    +0.052 C 
BRANCH  19  20
ATOM     20  C   UNL     1      34.125 -17.515 -21.699  0.00  0.00    +0.161 C 
BRANCH  20  21
ATOM     21  S   UNL     1      35.232 -18.847 -22.040  0.00  0.00    +0.009 S 
ATOM     22  O   UNL     1      36.589 -18.408 -21.765  0.00  0.00    -0.169 OA
ATOM     23  O   UNL     1      34.888 -19.387 -23.344  0.00  0.00    -0.169 OA
BRANCH  21  24
ATOM     24  C   UNL     1      34.825 -20.063 -20.824  0.00  0.00    +0.106 C 
ATOM     25  C   UNL     1      33.497 -20.274 -20.496  0.00  0.00    +0.018 C 
ATOM     26  C   UNL     1      35.843 -20.782 -20.220  0.00  0.00    +0.018 C 
ATOM     27  C   UNL     1      33.176 -21.234 -19.537  0.00  0.00    +0.001 C 
ATOM     28  C   UNL     1      35.522 -21.742 -19.260  0.00  0.00    +0.001 C 
ATOM     29  C   UNL     1      34.190 -21.968 -18.919  0.00  0.00    +0.000 C 
ENDBRANCH  21  24
ENDBRANCH  20  21
ENDBRANCH  19  20
ENDBRANCH   7  19
TORSDOF 6
ENDMDL
MODEL 6
REMARK VINA RESULT:     -10.7      3.763      9.940
REMARK  Name = 77993
REMARK  6 active torsions:
REMARK  status: ('A' for Active; 'I' for Inactive)
REMARK    1  A    between atoms: C_2  and  C_11
REMARK    2  A    between atoms: C_7  and  C_19
REMARK    3  A    between atoms: C_11  and  C_13
REMARK    4  A    between atoms: C_19  and  C_20
REMARK    5  A    between atoms: C_20  and  S_21
REMARK    6  A    between atoms: S_21  and  C_24
REMARK                            x       y       z     vdW  Elec       q    Type
REMARK                         _______ _______ _______ _____ _____    ______ ____
ROOT
ATOM      1  N   UNL     1      32.648 -21.098 -20.284  0.00  0.00    -0.312 N 
ATOM      2  C   UNL     1      34.460 -19.979 -20.835  0.00  0.00    -0.008 C 
ATOM      3  C   UNL     1      34.800 -20.826 -19.759  0.00  0.00    +0.010 C 
ATOM      4  C   UNL     1      33.145 -20.156 -21.145  0.00  0.00    +0.058 C 
ATOM      5  C   UNL     1      33.637 -21.526 -19.426  0.00  0.00    +0.048 C 
ATOM      6  C   UNL     1      35.975 -21.078 -19.024  0.00  0.00    -0.003 C 
ATOM      7  C   UNL     1      35.945 -22.017 -17.988  0.00  0.00    -0.020 C 
ATOM      8  C   UNL     1      33.591 -22.467 -18.393  0.00  0.00    +0.014 C 
ATOM      9  C   UNL     1      34.770 -22.699 -17.678  0.00  0.00    -0.003 C 
ATOM     10  H   UNL     1      31.719 -21.424 -20.280  0.00  0.00    +0.152 HD
ENDROOT
BRANCH   2  11
ATOM     11  C   UNL     1      35.389 -19.034 -21.533  0.00  0.00    +0.007 C 
BRANCH  11  13
ATOM     12  N   UNL     1      35.114 -17.985 -23.787  0.00  0.00    +0.387 N 
ATOM     13  C   UNL     1      34.647 -18.020 -22.394  0.00  0.00    -0.054 C 
ATOM     14  C   UNL     1      34.895 -16.584 -21.923  0.00  0.00    -0.023 C 
ATOM     15  C   UNL     1      34.869 -15.734 -23.188  0.00  0.00    -0.025 C 
ATOM     16  C   UNL     1      34.614 -16.715 -24.322  0.00  0.00    -0.077 C 
ATOM     17  C   UNL     1      34.647 -19.117 -24.579  0.00  0.00    -0.101 C 
ATOM     18  H   UNL     1      36.130 -18.055 -23.830  0.00  0.00    -0.080 HD
ENDBRANCH  11  13
ENDBRANCH   2  11
BRANCH   7  19
ATOM     19  C   UNL     1      37.187 -22.288 -17.204  0.00  0.00    +0.052 C 
BRANCH  19  20
ATOM     20  C   UNL     1      36.960 -22.392 -15.693  0.00  0.00    +0.161 C 
BRANCH  20  21
ATOM     21  S   UNL     1      37.353 -23.992 -15.059  0.00  0.00    +0.009 S 
ATOM     22  O   UNL     1      38.798 -24.140 -15.027  0.00  0.00    -0.169 OA
ATOM     23  O   UNL     1      36.533 -24.962 -15.764  0.00  0.00    -0.169 OA
BRANCH  21  24
ATOM     24  C   UNL     1      36.803 -23.933 -13.380  0.00  0.00    +0.106 C 
ATOM     25  C   UNL     1      35.714 -24.697 -12.998  0.00  0.00    +0.018 C 
ATOM     26  C   UNL     1      37.472 -23.123 -12.478  0.00  0.00    +0.018 C 
ATOM     27  C   UNL     1      35.280 -24.650 -11.673  0.00  0.00    +0.001 C 
ATOM     28  C   UNL     1      37.038 -23.077 -11.153  0.00  0.00    +0.001 C 
ATOM     29  C   UNL     1      35.943 -23.840 -10.751  0.00  0.00    +0.000 C 
ENDBRANCH  21  24
ENDBRANCH  20  21
ENDBRANCH  19  20
ENDBRANCH   7  19
TORSDOF 6
ENDMDL
MODEL 7
REMARK VINA RESULT:     -10.6      6.491     12.397
REMARK  Name = 77993
REMARK  6 active torsions:
REMARK  status: ('A' for Active; 'I' for Inactive)
REMARK    1  A    between atoms: C_2  and  C_11
REMARK    2  A    between atoms: C_7  and  C_19
REMARK    3  A    between atoms: C_11  and  C_13
REMARK    4  A    between atoms: C_19  and  C_20
REMARK    5  A    between atoms: C_20  and  S_21
REMARK    6  A    between atoms: S_21  and  C_24
REMARK                            x       y       z     vdW  Elec       q    Type
REMARK                         _______ _______ _______ _____ _____    ______ ____
ROOT
ATOM      1  N   UNL     1      31.248 -11.582 -20.678  0.00  0.00    -0.312 N 
ATOM      2  C   UNL     1      32.298 -11.072 -22.543  0.00  0.00    -0.008 C 
ATOM      3  C   UNL     1      32.672 -12.387 -22.196  0.00  0.00    +0.010 C 
ATOM      4  C   UNL     1      31.428 -10.593 -21.609  0.00  0.00    +0.058 C 
ATOM      5  C   UNL     1      31.995 -12.689 -21.011  0.00  0.00    +0.048 C 
ATOM      6  C   UNL     1      33.518 -13.362 -22.760  0.00  0.00    -0.003 C 
ATOM      7  C   UNL     1      33.656 -14.599 -22.122  0.00  0.00    -0.020 C 
ATOM      8  C   UNL     1      32.123 -13.921 -20.362  0.00  0.00    +0.014 C 
ATOM      9  C   UNL     1      32.968 -14.873 -20.940  0.00  0.00    -0.003 C 
ATOM     10  H   UNL     1      30.667 -11.512 -19.886  0.00  0.00    +0.152 HD
ENDROOT
BRANCH   2  11
ATOM     11  C   UNL     1      32.773 -10.314 -23.744  0.00  0.00    +0.007 C 
BRANCH  11  13
ATOM     12  N   UNL     1      32.355  -7.881 -24.151  0.00  0.00    +0.387 N 
ATOM     13  C   UNL     1      33.147  -8.875 -23.413  0.00  0.00    -0.054 C 
ATOM     14  C   UNL     1      34.579  -8.547 -23.844  0.00  0.00    -0.023 C 
ATOM     15  C   UNL     1      34.552  -7.077 -24.247  0.00  0.00    -0.025 C 
ATOM     16  C   UNL     1      33.114  -6.633 -24.037  0.00  0.00    -0.077 C 
ATOM     17  C   UNL     1      30.998  -7.729 -23.637  0.00  0.00    -0.101 C 
ATOM     18  H   UNL     1      32.222  -8.172 -25.119  0.00  0.00    -0.080 HD
ENDBRANCH  11  13
ENDBRANCH   2  11
BRANCH   7  19
ATOM     19  C   UNL     1      34.552 -15.637 -22.714  0.00  0.00    +0.052 C 
BRANCH  19  20
ATOM     20  C   UNL     1      35.059 -16.671 -21.705  0.00  0.00    +0.161 C 
BRANCH  20  21
ATOM     21  S   UNL     1      35.399 -18.234 -22.453  0.00  0.00    +0.009 S 
ATOM     22  O   UNL     1      36.836 -18.447 -22.458  0.00  0.00    -0.169 OA
ATOM     23  O   UNL     1      34.643 -18.307 -23.691  0.00  0.00    -0.169 OA
BRANCH  21  24
ATOM     24  C   UNL     1      34.708 -19.406 -21.324  0.00  0.00    +0.106 C 
ATOM     25  C   UNL     1      33.342 -19.400 -21.095  0.00  0.00    +0.018 C 
ATOM     26  C   UNL     1      35.545 -20.309 -20.690  0.00  0.00    +0.018 C 
ATOM     27  C   UNL     1      32.798 -20.325 -20.204  0.00  0.00    +0.001 C 
ATOM     28  C   UNL     1      34.999 -21.234 -19.799  0.00  0.00    +0.001 C 
ATOM     29  C   UNL     1      33.627 -21.242 -19.557  0.00  0.00    +0.000 C 
ENDBRANCH  21  24
ENDBRANCH  20  21
ENDBRANCH  19  20
ENDBRANCH   7  19
TORSDOF 6
ENDMDL
MODEL 8
REMARK VINA RESULT:     -10.6      4.444     10.408
REMARK  Name = 77993
REMARK  6 active torsions:
REMARK  status: ('A' for Active; 'I' for Inactive)
REMARK    1  A    between atoms: C_2  and  C_11
REMARK    2  A    between atoms: C_7  and  C_19
REMARK    3  A    between atoms: C_11  and  C_13
REMARK    4  A    between atoms: C_19  and  C_20
REMARK    5  A    between atoms: C_20  and  S_21
REMARK    6  A    between atoms: S_21  and  C_24
REMARK                            x       y       z     vdW  Elec       q    Type
REMARK                         _______ _______ _______ _____ _____    ______ ____
ROOT
ATOM      1  N   UNL     1      35.125 -16.796 -24.769  0.00  0.00    -0.312 N 
ATOM      2  C   UNL     1      34.668 -15.675 -22.932  0.00  0.00    -0.008 C 
ATOM      3  C   UNL     1      34.550 -17.048 -22.627  0.00  0.00    +0.010 C 
ATOM      4  C   UNL     1      35.020 -15.537 -24.242  0.00  0.00    +0.058 C 
ATOM      5  C   UNL     1      34.844 -17.739 -23.805  0.00  0.00    +0.048 C 
ATOM      6  C   UNL     1      34.223 -17.785 -21.472  0.00  0.00    -0.003 C 
ATOM      7  C   UNL     1      34.202 -19.182 -21.538  0.00  0.00    -0.020 C 
ATOM      8  C   UNL     1      34.827 -19.135 -23.885  0.00  0.00    +0.014 C 
ATOM      9  C   UNL     1      34.499 -19.846 -22.727  0.00  0.00    -0.003 C 
ATOM     10  H   UNL     1      35.367 -16.999 -25.701  0.00  0.00    +0.152 HD
ENDROOT
BRANCH   2  11
ATOM     11  C   UNL     1      34.446 -14.543 -21.977  0.00  0.00    +0.007 C 
BRANCH  11  13
ATOM     12  N   UNL     1      33.257 -12.471 -22.717  0.00  0.00    +0.387 N 
ATOM     13  C   UNL     1      33.114 -13.841 -22.206  0.00  0.00    -0.054 C 
ATOM     14  C   UNL     1      32.349 -13.632 -20.897  0.00  0.00    -0.023 C 
ATOM     15  C   UNL     1      31.590 -12.323 -21.078  0.00  0.00    -0.025 C 
ATOM     16  C   UNL     1      31.957 -11.839 -22.472  0.00  0.00    -0.077 C 
ATOM     17  C   UNL     1      33.619 -12.416 -24.129  0.00  0.00    -0.101 C 
ATOM     18  H   UNL     1      34.022 -11.988 -22.246  0.00  0.00    -0.080 HD
ENDBRANCH  11  13
ENDBRANCH   2  11
BRANCH   7  19
ATOM     19  C   UNL     1      33.855 -19.971 -20.318  0.00  0.00    +0.052 C 
BRANCH  19  20
ATOM     20  C   UNL     1      34.792 -21.153 -20.052  0.00  0.00    +0.161 C 
BRANCH  20  21
ATOM     21  S   UNL     1      34.021 -22.427 -19.104  0.00  0.00    +0.009 S 
ATOM     22  O   UNL     1      34.184 -23.691 -19.801  0.00  0.00    -0.169 OA
ATOM     23  O   UNL     1      32.696 -21.962 -18.731  0.00  0.00    -0.169 OA
BRANCH  21  24
ATOM     24  C   UNL     1      34.999 -22.517 -17.634  0.00  0.00    +0.106 C 
ATOM     25  C   UNL     1      34.459 -23.093 -16.497  0.00  0.00    +0.018 C 
ATOM     26  C   UNL     1      36.288 -22.011 -17.648  0.00  0.00    +0.018 C 
ATOM     27  C   UNL     1      35.232 -23.164 -15.338  0.00  0.00    +0.001 C 
ATOM     28  C   UNL     1      37.060 -22.082 -16.488  0.00  0.00    +0.001 C 
ATOM     29  C   UNL     1      36.532 -22.659 -15.334  0.00  0.00    +0.000 C 
ENDBRANCH  21  24
ENDBRANCH  20  21
ENDBRANCH  19  20
ENDBRANCH   7  19
TORSDOF 6
ENDMDL
MODEL 9
REMARK VINA RESULT:     -10.4      4.992      8.579
REMARK  Name = 77993
REMARK  6 active torsions:
REMARK  status: ('A' for Active; 'I' for Inactive)
REMARK    1  A    between atoms: C_2  and  C_11
REMARK    2  A    between atoms: C_7  and  C_19
REMARK    3  A    between atoms: C_11  and  C_13
REMARK    4  A    between atoms: C_19  and  C_20
REMARK    5  A    between atoms: C_20  and  S_21
REMARK    6  A    between atoms: S_21  and  C_24
REMARK                            x       y       z     vdW  Elec       q    Type
REMARK                         _______ _______ _______ _____ _____    ______ ____
ROOT
ATOM      1  N   UNL     1      35.038 -17.744 -24.545  0.00  0.00    -0.312 N 
ATOM      2  C   UNL     1      35.271 -17.823 -22.359  0.00  0.00    -0.008 C 
ATOM      3  C   UNL     1      34.582 -16.631 -22.665  0.00  0.00    +0.010 C 
ATOM      4  C   UNL     1      35.543 -18.492 -23.515  0.00  0.00    +0.058 C 
ATOM      5  C   UNL     1      34.445 -16.602 -24.056  0.00  0.00    +0.048 C 
ATOM      6  C   UNL     1      34.055 -15.565 -21.911  0.00  0.00    -0.003 C 
ATOM      7  C   UNL     1      33.413 -14.512 -22.571  0.00  0.00    -0.020 C 
ATOM      8  C   UNL     1      33.806 -15.556 -24.730  0.00  0.00    +0.014 C 
ATOM      9  C   UNL     1      33.291 -14.509 -23.960  0.00  0.00    -0.003 C 
ATOM     10  H   UNL     1      35.090 -17.988 -25.497  0.00  0.00    +0.152 HD
ENDROOT
BRANCH   2  11
ATOM     11  C   UNL     1      35.648 -18.289 -20.986  0.00  0.00    +0.007 C 
BRANCH  11  13
ATOM     12  N   UNL     1      34.365 -20.214 -20.035  0.00  0.00    +0.387 N 
ATOM     13  C   UNL     1      35.528 -19.799 -20.831  0.00  0.00    -0.054 C 
ATOM     14  C   UNL     1      36.701 -20.384 -20.039  0.00  0.00    -0.023 C 
ATOM     15  C   UNL     1      36.118 -21.564 -19.269  0.00  0.00    -0.025 C 
ATOM     16  C   UNL     1      34.646 -21.598 -19.647  0.00  0.00    -0.077 C 
ATOM     17  C   UNL     1      33.103 -20.109 -20.760  0.00  0.00    -0.101 C 
ATOM     18  H   UNL     1      34.240 -19.599 -19.231  0.00  0.00    -0.080 HD
ENDBRANCH  11  13
ENDBRANCH   2  11
BRANCH   7  19
ATOM     19  C   UNL     1      32.853 -13.378 -21.777  0.00  0.00    +0.052 C 
BRANCH  19  20
ATOM     20  C   UNL     1      31.749 -12.598 -22.497  0.00  0.00    +0.161 C 
BRANCH  20  21
ATOM     21  S   UNL     1      31.848 -10.859 -22.204  0.00  0.00    +0.009 S 
ATOM     22  O   UNL     1      32.307 -10.641 -20.843  0.00  0.00    -0.169 OA
ATOM     23  O   UNL     1      30.608 -10.260 -22.664  0.00  0.00    -0.169 OA
BRANCH  21  24
ATOM     24  C   UNL     1      33.144 -10.319 -23.279  0.00  0.00    +0.106 C 
ATOM     25  C   UNL     1      33.648  -9.037 -23.140  0.00  0.00    +0.018 C 
ATOM     26  C   UNL     1      33.631 -11.189 -24.240  0.00  0.00    +0.018 C 
ATOM     27  C   UNL     1      34.670  -8.611 -23.987  0.00  0.00    +0.001 C 
ATOM     28  C   UNL     1      34.654 -10.762 -25.088  0.00  0.00    +0.001 C 
ATOM     29  C   UNL     1      35.173  -9.474 -24.962  0.00  0.00    +0.000 C 
ENDBRANCH  21  24
ENDBRANCH  20  21
ENDBRANCH  19  20
ENDBRANCH   7  19
TORSDOF 6
ENDMDL
