MODEL 1
REMARK VINA RESULT:      -5.9      0.000      0.000
REMARK  Name = 42300
REMARK  2 active torsions:
REMARK  status: ('A' for Active; 'I' for Inactive)
REMARK    1  A    between atoms: C_2  and  C_8
REMARK    2  A    between atoms: C_8  and  O_9
REMARK                            x       y       z     vdW  Elec       q    Type
REMARK                         _______ _______ _______ _____ _____    ______ ____
ROOT
ATOM      1  I   UNL     1      35.303 -17.935 -22.755  0.00  0.00    -0.043 I 
ATOM      2  C   UNL     1      35.264 -21.006 -19.687  0.00  0.00    +0.007 C 
ATOM      3  C   UNL     1      35.663 -20.048 -20.617  0.00  0.00    +0.004 C 
ATOM      4  C   UNL     1      33.908 -21.283 -19.509  0.00  0.00    -0.002 C 
ATOM      5  C   UNL     1      34.707 -19.364 -21.369  0.00  0.00    +0.030 C 
ATOM      6  C   UNL     1      32.952 -20.600 -20.261  0.00  0.00    +0.000 C 
ATOM      7  C   UNL     1      33.352 -19.640 -21.191  0.00  0.00    +0.006 C 
ENDROOT
BRANCH   2   8
ATOM      8  C   UNL     1      36.285 -21.737 -18.881  0.00  0.00    +0.164 C 
BRANCH   8   9
ATOM      9  O   UNL     1      35.637 -22.450 -17.834  0.00  0.00    -0.377 OA
ATOM     10  H   UNL     1      36.170 -23.224 -17.592  0.00  0.00    +0.211 HD
ENDBRANCH   8   9
ENDBRANCH   2   8
TORSDOF 2
ENDMDL
MODEL 2
REMARK VINA RESULT:      -5.6      1.243      2.353
REMARK  Name = 42300
REMARK  2 active torsions:
REMARK  status: ('A' for Active; 'I' for Inactive)
REMARK    1  A    between atoms: C_2  and  C_8
REMARK    2  A    between atoms: C_8  and  O_9
REMARK                            x       y       z     vdW  Elec       q    Type
REMARK                         _______ _______ _______ _____ _____    ______ ____
ROOT
ATOM      1  I   UNL     1      35.033 -17.938 -22.370  0.00  0.00    -0.043 I 
ATOM      2  C   UNL     1      34.596 -21.284 -19.638  0.00  0.00    +0.007 C 
ATOM      3  C   UNL     1      34.348 -20.254 -20.545  0.00  0.00    +0.004 C 
ATOM      4  C   UNL     1      35.898 -21.531 -19.202  0.00  0.00    -0.002 C 
ATOM      5  C   UNL     1      35.402 -19.472 -21.018  0.00  0.00    +0.030 C 
ATOM      6  C   UNL     1      36.952 -20.749 -19.674  0.00  0.00    +0.000 C 
ATOM      7  C   UNL     1      36.704 -19.719 -20.582  0.00  0.00    +0.006 C 
ENDROOT
BRANCH   2   8
ATOM      8  C   UNL     1      33.470 -22.122 -19.133  0.00  0.00    +0.164 C 
BRANCH   8   9
ATOM      9  O   UNL     1      33.811 -23.497 -19.261  0.00  0.00    -0.377 OA
ATOM     10  H   UNL     1      33.542 -23.817 -20.136  0.00  0.00    +0.211 HD
ENDBRANCH   8   9
ENDBRANCH   2   8
TORSDOF 2
ENDMDL
MODEL 3
REMARK VINA RESULT:      -5.5      3.418      4.457
REMARK  Name = 42300
REMARK  2 active torsions:
REMARK  status: ('A' for Active; 'I' for Inactive)
REMARK    1  A    between atoms: C_2  and  C_8
REMARK    2  A    between atoms: C_8  and  O_9
REMARK                            x       y       z     vdW  Elec       q    Type
REMARK                         _______ _______ _______ _____ _____    ______ ____
ROOT
ATOM      1  I   UNL     1      33.855 -14.266 -23.419  0.00  0.00    -0.043 I 
ATOM      2  C   UNL     1      34.900 -18.418 -22.700  0.00  0.00    +0.007 C 
ATOM      3  C   UNL     1      34.600 -17.066 -22.541  0.00  0.00    +0.004 C 
ATOM      4  C   UNL     1      34.908 -18.986 -23.975  0.00  0.00    -0.002 C 
ATOM      5  C   UNL     1      34.304 -16.281 -23.656  0.00  0.00    +0.030 C 
ATOM      6  C   UNL     1      34.614 -18.201 -25.090  0.00  0.00    +0.000 C 
ATOM      7  C   UNL     1      34.312 -16.848 -24.930  0.00  0.00    +0.006 C 
ENDROOT
BRANCH   2   8
ATOM      8  C   UNL     1      35.214 -19.259 -21.509  0.00  0.00    +0.164 C 
BRANCH   8   9
ATOM      9  O   UNL     1      35.956 -18.489 -20.570  0.00  0.00    -0.377 OA
ATOM     10  H   UNL     1      36.667 -19.033 -20.196  0.00  0.00    +0.211 HD
ENDBRANCH   8   9
ENDBRANCH   2   8
TORSDOF 2
ENDMDL
MODEL 4
REMARK VINA RESULT:      -5.5      4.258      5.455
REMARK  Name = 42300
REMARK  2 active torsions:
REMARK  status: ('A' for Active; 'I' for Inactive)
REMARK    1  A    between atoms: C_2  and  C_8
REMARK    2  A    between atoms: C_8  and  O_9
REMARK                            x       y       z     vdW  Elec       q    Type
REMARK                         _______ _______ _______ _____ _____    ______ ____
ROOT
ATOM      1  I   UNL     1      35.459 -20.574 -20.426  0.00  0.00    -0.043 I 
ATOM      2  C   UNL     1      34.761 -17.865 -23.746  0.00  0.00    +0.007 C 
ATOM      3  C   UNL     1      34.963 -19.002 -22.966  0.00  0.00    +0.004 C 
ATOM      4  C   UNL     1      34.758 -16.602 -23.152  0.00  0.00    -0.002 C 
ATOM      5  C   UNL     1      35.159 -18.879 -21.589  0.00  0.00    +0.030 C 
ATOM      6  C   UNL     1      34.955 -16.478 -21.776  0.00  0.00    +0.000 C 
ATOM      7  C   UNL     1      35.156 -17.617 -20.995  0.00  0.00    +0.006 C 
ENDROOT
BRANCH   2   8
ATOM      8  C   UNL     1      34.549 -17.996 -25.217  0.00  0.00    +0.164 C 
BRANCH   8   9
ATOM      9  O   UNL     1      34.743 -16.730 -25.835  0.00  0.00    -0.377 OA
ATOM     10  H   UNL     1      35.232 -16.147 -25.233  0.00  0.00    +0.211 HD
ENDBRANCH   8   9
ENDBRANCH   2   8
TORSDOF 2
ENDMDL
MODEL 5
REMARK VINA RESULT:      -5.5      3.706      4.953
REMARK  Name = 42300
REMARK  2 active torsions:
REMARK  status: ('A' for Active; 'I' for Inactive)
REMARK    1  A    between atoms: C_2  and  C_8
REMARK    2  A    between atoms: C_8  and  O_9
REMARK                            x       y       z     vdW  Elec       q    Type
REMARK                         _______ _______ _______ _____ _____    ______ ____
ROOT
ATOM      1  I   UNL     1      33.443 -20.520 -20.327  0.00  0.00    -0.043 I 
ATOM      2  C   UNL     1      34.643 -16.703 -22.010  0.00  0.00    +0.007 C 
ATOM      3  C   UNL     1      34.125 -17.697 -21.182  0.00  0.00    +0.004 C 
ATOM      4  C   UNL     1      35.249 -17.047 -23.219  0.00  0.00    -0.002 C 
ATOM      5  C   UNL     1      34.214 -19.037 -21.561  0.00  0.00    +0.030 C 
ATOM      6  C   UNL     1      35.337 -18.386 -23.599  0.00  0.00    +0.000 C 
ATOM      7  C   UNL     1      34.820 -19.381 -22.769  0.00  0.00    +0.006 C 
ENDROOT
BRANCH   2   8
ATOM      8  C   UNL     1      34.550 -15.270 -21.605  0.00  0.00    +0.164 C 
BRANCH   8   9
ATOM      9  O   UNL     1      34.870 -15.148 -20.225  0.00  0.00    -0.377 OA
ATOM     10  H   UNL     1      34.091 -15.370 -19.691  0.00  0.00    +0.211 HD
ENDBRANCH   8   9
ENDBRANCH   2   8
TORSDOF 2
ENDMDL
MODEL 6
REMARK VINA RESULT:      -5.4      3.190      3.741
REMARK  Name = 42300
REMARK  2 active torsions:
REMARK  status: ('A' for Active; 'I' for Inactive)
REMARK    1  A    between atoms: C_2  and  C_8
REMARK    2  A    between atoms: C_8  and  O_9
REMARK                            x       y       z     vdW  Elec       q    Type
REMARK                         _______ _______ _______ _____ _____    ______ ____
ROOT
ATOM      1  I   UNL     1      34.167 -22.781 -18.630  0.00  0.00    -0.043 I 
ATOM      2  C   UNL     1      35.258 -19.330 -21.028  0.00  0.00    +0.007 C 
ATOM      3  C   UNL     1      35.297 -20.485 -20.248  0.00  0.00    +0.004 C 
ATOM      4  C   UNL     1      34.031 -18.747 -21.351  0.00  0.00    -0.002 C 
ATOM      5  C   UNL     1      34.109 -21.059 -19.792  0.00  0.00    +0.030 C 
ATOM      6  C   UNL     1      32.845 -19.321 -20.895  0.00  0.00    +0.000 C 
ATOM      7  C   UNL     1      32.884 -20.477 -20.115  0.00  0.00    +0.006 C 
ENDROOT
BRANCH   2   8
ATOM      8  C   UNL     1      36.526 -18.716 -21.518  0.00  0.00    +0.164 C 
BRANCH   8   9
ATOM      9  O   UNL     1      36.344 -18.260 -22.853  0.00  0.00    -0.377 OA
ATOM     10  H   UNL     1      35.395 -18.176 -23.039  0.00  0.00    +0.211 HD
ENDBRANCH   8   9
ENDBRANCH   2   8
TORSDOF 2
ENDMDL
MODEL 7
REMARK VINA RESULT:      -5.4      2.600      3.560
REMARK  Name = 42300
REMARK  2 active torsions:
REMARK  status: ('A' for Active; 'I' for Inactive)
REMARK    1  A    between atoms: C_2  and  C_8
REMARK    2  A    between atoms: C_8  and  O_9
REMARK                            x       y       z     vdW  Elec       q    Type
REMARK                         _______ _______ _______ _____ _____    ______ ____
ROOT
ATOM      1  I   UNL     1      34.133 -14.839 -21.416  0.00  0.00    -0.043 I 
ATOM      2  C   UNL     1      34.351 -19.174 -21.488  0.00  0.00    +0.007 C 
ATOM      3  C   UNL     1      34.135 -17.851 -21.108  0.00  0.00    +0.004 C 
ATOM      4  C   UNL     1      34.889 -19.461 -22.744  0.00  0.00    -0.002 C 
ATOM      5  C   UNL     1      34.455 -16.812 -21.983  0.00  0.00    +0.030 C 
ATOM      6  C   UNL     1      35.210 -18.422 -23.618  0.00  0.00    +0.000 C 
ATOM      7  C   UNL     1      34.993 -17.098 -23.237  0.00  0.00    +0.006 C 
ENDROOT
BRANCH   2   8
ATOM      8  C   UNL     1      34.009 -20.286 -20.554  0.00  0.00    +0.164 C 
BRANCH   8   9
ATOM      9  O   UNL     1      32.597 -20.350 -20.396  0.00  0.00    -0.377 OA
ATOM     10  H   UNL     1      32.201 -20.756 -21.184  0.00  0.00    +0.211 HD
ENDBRANCH   8   9
ENDBRANCH   2   8
TORSDOF 2
ENDMDL
MODEL 8
REMARK VINA RESULT:      -5.4      4.768      5.576
REMARK  Name = 42300
REMARK  2 active torsions:
REMARK  status: ('A' for Active; 'I' for Inactive)
REMARK    1  A    between atoms: C_2  and  C_8
REMARK    2  A    between atoms: C_8  and  O_9
REMARK                            x       y       z     vdW  Elec       q    Type
REMARK                         _______ _______ _______ _____ _____    ______ ____
ROOT
ATOM      1  I   UNL     1      33.065 -14.534 -26.252  0.00  0.00    -0.043 I 
ATOM      2  C   UNL     1      34.533 -16.221 -22.531  0.00  0.00    +0.007 C 
ATOM      3  C   UNL     1      33.963 -15.383 -23.488  0.00  0.00    +0.004 C 
ATOM      4  C   UNL     1      35.059 -17.457 -22.909  0.00  0.00    -0.002 C 
ATOM      5  C   UNL     1      33.916 -15.781 -24.825  0.00  0.00    +0.030 C 
ATOM      6  C   UNL     1      35.013 -17.855 -24.246  0.00  0.00    +0.000 C 
ATOM      7  C   UNL     1      34.442 -17.017 -25.203  0.00  0.00    +0.006 C 
ENDROOT
BRANCH   2   8
ATOM      8  C   UNL     1      34.582 -15.797 -21.102  0.00  0.00    +0.164 C 
BRANCH   8   9
ATOM      9  O   UNL     1      35.303 -16.764 -20.348  0.00  0.00    -0.377 OA
ATOM     10  H   UNL     1      36.095 -16.354 -19.968  0.00  0.00    +0.211 HD
ENDBRANCH   8   9
ENDBRANCH   2   8
TORSDOF 2
ENDMDL
MODEL 9
REMARK VINA RESULT:      -5.3      5.073      6.416
REMARK  Name = 42300
REMARK  2 active torsions:
REMARK  status: ('A' for Active; 'I' for Inactive)
REMARK    1  A    between atoms: C_2  and  C_8
REMARK    2  A    between atoms: C_8  and  O_9
REMARK                            x       y       z     vdW  Elec       q    Type
REMARK                         _______ _______ _______ _____ _____    ______ ____
ROOT
ATOM      1  I   UNL     1      35.668 -18.953 -21.409  0.00  0.00    -0.043 I 
ATOM      2  C   UNL     1      34.052 -15.619 -23.672  0.00  0.00    +0.007 C 
ATOM      3  C   UNL     1      34.556 -16.863 -23.297  0.00  0.00    +0.004 C 
ATOM      4  C   UNL     1      33.909 -14.608 -22.721  0.00  0.00    -0.002 C 
ATOM      5  C   UNL     1      34.917 -17.098 -21.969  0.00  0.00    +0.030 C 
ATOM      6  C   UNL     1      34.270 -14.843 -21.394  0.00  0.00    +0.000 C 
ATOM      7  C   UNL     1      34.774 -16.088 -21.019  0.00  0.00    +0.006 C 
ENDROOT
BRANCH   2   8
ATOM      8  C   UNL     1      33.664 -15.367 -25.091  0.00  0.00    +0.164 C 
BRANCH   8   9
ATOM      9  O   UNL     1      34.354 -16.278 -25.937  0.00  0.00    -0.377 OA
ATOM     10  H   UNL     1      33.822 -17.082 -26.049  0.00  0.00    +0.211 HD
ENDBRANCH   8   9
ENDBRANCH   2   8
TORSDOF 2
ENDMDL
