MODEL 1
REMARK VINA RESULT:      -7.5      0.000      0.000
REMARK  Name = 4369553
REMARK  5 active torsions:
REMARK  status: ('A' for Active; 'I' for Inactive)
REMARK    1  A    between atoms: C_6  and  O_12
REMARK    2  A    between atoms: C_7  and  O_14
REMARK    3  A    between atoms: C_9  and  O_16
REMARK    4  A    between atoms: C_10  and  C_19
REMARK    5  A    between atoms: C_19  and  O_20
REMARK                            x       y       z     vdW  Elec       q    Type
REMARK                         _______ _______ _______ _____ _____    ______ ____
ROOT
ATOM      1  O   UNL     1      35.258 -24.864 -15.806  0.00  0.00    -0.323 OA
ATOM      2  O   UNL     1      38.532 -23.839 -14.512  0.00  0.00    -0.326 OA
ATOM      3  O   UNL     1      35.405 -22.466 -15.840  0.00  0.00    -0.323 OA
ATOM      4  C   UNL     1      36.418 -24.954 -14.977  0.00  0.00    +0.177 C 
ATOM      5  C   UNL     1      37.347 -23.784 -15.301  0.00  0.00    +0.177 C 
ATOM      6  C   UNL     1      37.155 -26.270 -15.232  0.00  0.00    +0.172 C 
ATOM      7  C   UNL     1      38.485 -26.288 -14.469  0.00  0.00    +0.196 C 
ATOM      8  C   UNL     1      36.592 -22.489 -15.047  0.00  0.00    +0.177 C 
ATOM      9  C   UNL     1      39.293 -25.024 -14.785  0.00  0.00    +0.262 C 
ATOM     10  C   UNL     1      34.579 -23.617 -15.661  0.00  0.00    +0.280 C 
ATOM     11  C   UNL     1      33.518 -23.567 -16.756  0.00  0.00    +0.074 C 
ENDROOT
BRANCH   6  12
ATOM     12  O   UNL     1      36.345 -27.371 -14.832  0.00  0.00    -0.379 OA
ATOM     13  H   UNL     1      36.625 -28.168 -15.307  0.00  0.00    +0.211 HD
ENDBRANCH   6  12
BRANCH   7  14
ATOM     14  O   UNL     1      38.198 -26.321 -13.066  0.00  0.00    -0.378 OA
ATOM     15  H   UNL     1      37.602 -27.062 -12.876  0.00  0.00    +0.211 HD
ENDBRANCH   7  14
BRANCH   9  16
ATOM     16  O   UNL     1      40.523 -25.005 -14.068  0.00  0.00    -0.358 OA
ATOM     17  H   UNL     1      41.263 -25.092 -14.692  0.00  0.00    +0.213 HD
ENDBRANCH   9  16
BRANCH  10  19
ATOM     18  O   UNL     1      34.106 -24.219 -13.359  0.00  0.00    -0.245 OA
ATOM     19  C   UNL     1      33.845 -23.546 -14.344  0.00  0.00    +0.366 C 
BRANCH  19  20
ATOM     20  O   UNL     1      32.848 -22.630 -14.401  0.00  0.00    -0.477 OA
ATOM     21  H   UNL     1      33.022 -21.767 -14.720  0.00  0.00    +0.295 HD
ENDBRANCH  19  20
ENDBRANCH  10  19
TORSDOF 5
ENDMDL
MODEL 2
REMARK VINA RESULT:      -7.2      8.331     11.011
REMARK  Name = 4369553
REMARK  5 active torsions:
REMARK  status: ('A' for Active; 'I' for Inactive)
REMARK    1  A    between atoms: C_6  and  O_12
REMARK    2  A    between atoms: C_7  and  O_14
REMARK    3  A    between atoms: C_9  and  O_16
REMARK    4  A    between atoms: C_10  and  C_19
REMARK    5  A    between atoms: C_19  and  O_20
REMARK                            x       y       z     vdW  Elec       q    Type
REMARK                         _______ _______ _______ _____ _____    ______ ____
ROOT
ATOM      1  O   UNL     1      35.406 -18.083 -20.789  0.00  0.00    -0.323 OA
ATOM      2  O   UNL     1      34.092 -16.703 -23.921  0.00  0.00    -0.326 OA
ATOM      3  O   UNL     1      35.366 -19.812 -22.458  0.00  0.00    -0.323 OA
ATOM      4  C   UNL     1      34.585 -17.241 -21.598  0.00  0.00    +0.177 C 
ATOM      5  C   UNL     1      34.875 -17.535 -23.070  0.00  0.00    +0.177 C 
ATOM      6  C   UNL     1      34.882 -15.769 -21.309  0.00  0.00    +0.172 C 
ATOM      7  C   UNL     1      34.125 -14.871 -22.294  0.00  0.00    +0.196 C 
ATOM      8  C   UNL     1      34.578 -19.003 -23.332  0.00  0.00    +0.177 C 
ATOM      9  C   UNL     1      34.404 -15.315 -23.736  0.00  0.00    +0.262 C 
ATOM     10  C   UNL     1      35.220 -19.469 -21.080  0.00  0.00    +0.280 C 
ATOM     11  C   UNL     1      36.310 -20.224 -20.325  0.00  0.00    +0.074 C 
ENDROOT
BRANCH   6  12
ATOM     12  O   UNL     1      34.514 -15.448 -19.971  0.00  0.00    -0.379 OA
ATOM     13  H   UNL     1      35.092 -14.745 -19.636  0.00  0.00    +0.211 HD
ENDBRANCH   6  12
BRANCH   7  14
ATOM     14  O   UNL     1      32.723 -14.996 -22.030  0.00  0.00    -0.378 OA
ATOM     15  H   UNL     1      32.592 -15.506 -21.216  0.00  0.00    +0.211 HD
ENDBRANCH   7  14
BRANCH   9  16
ATOM     16  O   UNL     1      33.692 -14.512 -24.670  0.00  0.00    -0.358 OA
ATOM     17  H   UNL     1      32.843 -14.241 -24.284  0.00  0.00    +0.213 HD
ENDBRANCH   9  16
BRANCH  10  19
ATOM     18  O   UNL     1      32.827 -19.399 -20.689  0.00  0.00    -0.245 OA
ATOM     19  C   UNL     1      33.899 -19.965 -20.545  0.00  0.00    +0.366 C 
BRANCH  19  20
ATOM     20  O   UNL     1      34.063 -21.133 -19.876  0.00  0.00    -0.477 OA
ATOM     21  H   UNL     1      34.889 -21.337 -19.486  0.00  0.00    +0.295 HD
ENDBRANCH  19  20
ENDBRANCH  10  19
TORSDOF 5
ENDMDL
MODEL 3
REMARK VINA RESULT:      -6.8      2.307      5.826
REMARK  Name = 4369553
REMARK  5 active torsions:
REMARK  status: ('A' for Active; 'I' for Inactive)
REMARK    1  A    between atoms: C_6  and  O_12
REMARK    2  A    between atoms: C_7  and  O_14
REMARK    3  A    between atoms: C_9  and  O_16
REMARK    4  A    between atoms: C_10  and  C_19
REMARK    5  A    between atoms: C_19  and  O_20
REMARK                            x       y       z     vdW  Elec       q    Type
REMARK                         _______ _______ _______ _____ _____    ______ ____
ROOT
ATOM      1  O   UNL     1      33.931 -23.925 -13.514  0.00  0.00    -0.323 OA
ATOM      2  O   UNL     1      31.962 -23.144 -16.506  0.00  0.00    -0.326 OA
ATOM      3  O   UNL     1      35.364 -22.925 -15.164  0.00  0.00    -0.323 OA
ATOM      4  C   UNL     1      32.901 -24.120 -14.484  0.00  0.00    +0.177 C 
ATOM      5  C   UNL     1      32.984 -23.005 -15.525  0.00  0.00    +0.177 C 
ATOM      6  C   UNL     1      31.526 -24.086 -13.815  0.00  0.00    +0.172 C 
ATOM      7  C   UNL     1      30.420 -24.126 -14.875  0.00  0.00    +0.196 C 
ATOM      8  C   UNL     1      34.360 -23.055 -16.170  0.00  0.00    +0.177 C 
ATOM      9  C   UNL     1      30.654 -23.033 -15.926  0.00  0.00    +0.262 C 
ATOM     10  C   UNL     1      35.231 -23.871 -14.103  0.00  0.00    +0.280 C 
ATOM     11  C   UNL     1      36.191 -23.430 -13.002  0.00  0.00    +0.074 C 
ENDROOT
BRANCH   6  12
ATOM     12  O   UNL     1      31.388 -25.185 -12.920  0.00  0.00    -0.379 OA
ATOM     13  H   UNL     1      31.864 -25.952 -13.274  0.00  0.00    +0.211 HD
ENDBRANCH   6  12
BRANCH   7  14
ATOM     14  O   UNL     1      30.458 -25.406 -15.516  0.00  0.00    -0.378 OA
ATOM     15  H   UNL     1      31.256 -25.470 -16.063  0.00  0.00    +0.211 HD
ENDBRANCH   7  14
BRANCH   9  16
ATOM     16  O   UNL     1      29.653 -23.066 -16.937  0.00  0.00    -0.358 OA
ATOM     17  H   UNL     1      28.775 -23.102 -16.523  0.00  0.00    +0.213 HD
ENDBRANCH   9  16
BRANCH  10  19
ATOM     18  O   UNL     1      35.679 -25.638 -15.704  0.00  0.00    -0.245 OA
ATOM     19  C   UNL     1      35.684 -25.239 -14.550  0.00  0.00    +0.366 C 
BRANCH  19  20
ATOM     20  O   UNL     1      36.098 -25.975 -13.489  0.00  0.00    -0.477 OA
ATOM     21  H   UNL     1      35.494 -26.199 -12.809  0.00  0.00    +0.295 HD
ENDBRANCH  19  20
ENDBRANCH  10  19
TORSDOF 5
ENDMDL
MODEL 4
REMARK VINA RESULT:      -6.8     10.317     13.029
REMARK  Name = 4369553
REMARK  5 active torsions:
REMARK  status: ('A' for Active; 'I' for Inactive)
REMARK    1  A    between atoms: C_6  and  O_12
REMARK    2  A    between atoms: C_7  and  O_14
REMARK    3  A    between atoms: C_9  and  O_16
REMARK    4  A    between atoms: C_10  and  C_19
REMARK    5  A    between atoms: C_19  and  O_20
REMARK                            x       y       z     vdW  Elec       q    Type
REMARK                         _______ _______ _______ _____ _____    ______ ____
ROOT
ATOM      1  O   UNL     1      35.517 -16.606 -22.867  0.00  0.00    -0.323 OA
ATOM      2  O   UNL     1      33.258 -16.176 -25.722  0.00  0.00    -0.326 OA
ATOM      3  O   UNL     1      35.317 -18.695 -24.036  0.00  0.00    -0.323 OA
ATOM      4  C   UNL     1      34.400 -16.068 -23.575  0.00  0.00    +0.177 C 
ATOM      5  C   UNL     1      34.348 -16.696 -24.966  0.00  0.00    +0.177 C 
ATOM      6  C   UNL     1      34.535 -14.550 -23.710  0.00  0.00    +0.172 C 
ATOM      7  C   UNL     1      33.425 -13.998 -24.613  0.00  0.00    +0.196 C 
ATOM      8  C   UNL     1      34.220 -18.203 -24.806  0.00  0.00    +0.177 C 
ATOM      9  C   UNL     1      33.394 -14.765 -25.941  0.00  0.00    +0.262 C 
ATOM     10  C   UNL     1      35.475 -18.030 -22.783  0.00  0.00    +0.280 C 
ATOM     11  C   UNL     1      36.822 -18.475 -22.220  0.00  0.00    +0.074 C 
ENDROOT
BRANCH   6  12
ATOM     12  O   UNL     1      34.474 -13.935 -22.427  0.00  0.00    -0.379 OA
ATOM     13  H   UNL     1      34.505 -12.972 -22.528  0.00  0.00    +0.211 HD
ENDBRANCH   6  12
BRANCH   7  14
ATOM     14  O   UNL     1      32.172 -14.172 -23.943  0.00  0.00    -0.378 OA
ATOM     15  H   UNL     1      31.731 -13.313 -23.852  0.00  0.00    +0.211 HD
ENDBRANCH   7  14
BRANCH   9  16
ATOM     16  O   UNL     1      32.354 -14.287 -26.788  0.00  0.00    -0.358 OA
ATOM     17  H   UNL     1      32.685 -13.546 -27.320  0.00  0.00    +0.213 HD
ENDBRANCH   9  16
BRANCH  10  19
ATOM     18  O   UNL     1      33.759 -17.749 -21.091  0.00  0.00    -0.245 OA
ATOM     19  C   UNL     1      34.424 -18.487 -21.801  0.00  0.00    +0.366 C 
BRANCH  19  20
ATOM     20  O   UNL     1      34.317 -19.838 -21.810  0.00  0.00    -0.477 OA
ATOM     21  H   UNL     1      33.621 -20.251 -22.282  0.00  0.00    +0.295 HD
ENDBRANCH  19  20
ENDBRANCH  10  19
TORSDOF 5
ENDMDL
MODEL 5
REMARK VINA RESULT:      -6.7      2.320      3.415
REMARK  Name = 4369553
REMARK  5 active torsions:
REMARK  status: ('A' for Active; 'I' for Inactive)
REMARK    1  A    between atoms: C_6  and  O_12
REMARK    2  A    between atoms: C_7  and  O_14
REMARK    3  A    between atoms: C_9  and  O_16
REMARK    4  A    between atoms: C_10  and  C_19
REMARK    5  A    between atoms: C_19  and  O_20
REMARK                            x       y       z     vdW  Elec       q    Type
REMARK                         _______ _______ _______ _____ _____    ______ ____
ROOT
ATOM      1  O   UNL     1      32.718 -24.945 -13.901  0.00  0.00    -0.323 OA
ATOM      2  O   UNL     1      35.409 -23.009 -15.466  0.00  0.00    -0.326 OA
ATOM      3  O   UNL     1      31.899 -23.954 -15.931  0.00  0.00    -0.323 OA
ATOM      4  C   UNL     1      33.880 -24.115 -13.929  0.00  0.00    +0.177 C 
ATOM      5  C   UNL     1      34.241 -23.820 -15.384  0.00  0.00    +0.177 C 
ATOM      6  C   UNL     1      35.055 -24.821 -13.249  0.00  0.00    +0.172 C 
ATOM      7  C   UNL     1      36.340 -24.003 -13.429  0.00  0.00    +0.196 C 
ATOM      8  C   UNL     1      33.057 -23.126 -16.039  0.00  0.00    +0.177 C 
ATOM      9  C   UNL     1      36.554 -23.674 -14.912  0.00  0.00    +0.262 C 
ATOM     10  C   UNL     1      31.614 -24.361 -14.593  0.00  0.00    +0.280 C 
ATOM     11  C   UNL     1      30.537 -25.438 -14.684  0.00  0.00    +0.074 C 
ENDROOT
BRANCH   6  12
ATOM     12  O   UNL     1      34.782 -25.006 -11.864  0.00  0.00    -0.379 OA
ATOM     13  H   UNL     1      35.228 -24.315 -11.351  0.00  0.00    +0.211 HD
ENDBRANCH   6  12
BRANCH   7  14
ATOM     14  O   UNL     1      36.202 -22.781 -12.695  0.00  0.00    -0.378 OA
ATOM     15  H   UNL     1      35.723 -22.133 -13.234  0.00  0.00    +0.211 HD
ENDBRANCH   7  14
BRANCH   9  16
ATOM     16  O   UNL     1      37.728 -22.893 -15.103  0.00  0.00    -0.358 OA
ATOM     17  H   UNL     1      37.481 -21.963 -15.231  0.00  0.00    +0.213 HD
ENDBRANCH   9  16
BRANCH  10  19
ATOM     18  O   UNL     1      31.310 -22.936 -12.653  0.00  0.00    -0.245 OA
ATOM     19  C   UNL     1      31.020 -23.220 -13.805  0.00  0.00    +0.366 C 
BRANCH  19  20
ATOM     20  O   UNL     1      30.110 -22.547 -14.551  0.00  0.00    -0.477 OA
ATOM     21  H   UNL     1      30.269 -21.657 -14.794  0.00  0.00    +0.295 HD
ENDBRANCH  19  20
ENDBRANCH  10  19
TORSDOF 5
ENDMDL
MODEL 6
REMARK VINA RESULT:      -6.7      1.711      4.684
REMARK  Name = 4369553
REMARK  5 active torsions:
REMARK  status: ('A' for Active; 'I' for Inactive)
REMARK    1  A    between atoms: C_6  and  O_12
REMARK    2  A    between atoms: C_7  and  O_14
REMARK    3  A    between atoms: C_9  and  O_16
REMARK    4  A    between atoms: C_10  and  C_19
REMARK    5  A    between atoms: C_19  and  O_20
REMARK                            x       y       z     vdW  Elec       q    Type
REMARK                         _______ _______ _______ _____ _____    ______ ____
ROOT
ATOM      1  O   UNL     1      36.532 -24.149 -13.502  0.00  0.00    -0.323 OA
ATOM      2  O   UNL     1      36.887 -22.950 -16.948  0.00  0.00    -0.326 OA
ATOM      3  O   UNL     1      38.859 -24.150 -14.103  0.00  0.00    -0.323 OA
ATOM      4  C   UNL     1      36.149 -23.973 -14.867  0.00  0.00    +0.177 C 
ATOM      5  C   UNL     1      37.233 -23.170 -15.584  0.00  0.00    +0.177 C 
ATOM      6  C   UNL     1      34.820 -23.220 -14.954  0.00  0.00    +0.172 C 
ATOM      7  C   UNL     1      34.497 -22.885 -16.416  0.00  0.00    +0.196 C 
ATOM      8  C   UNL     1      38.543 -23.933 -15.478  0.00  0.00    +0.177 C 
ATOM      9  C   UNL     1      35.687 -22.173 -17.070  0.00  0.00    +0.262 C 
ATOM     10  C   UNL     1      37.807 -24.778 -13.371  0.00  0.00    +0.280 C 
ATOM     11  C   UNL     1      38.188 -24.689 -11.896  0.00  0.00    +0.074 C 
ENDROOT
BRANCH   6  12
ATOM     12  O   UNL     1      33.774 -24.004 -14.388  0.00  0.00    -0.379 OA
ATOM     13  H   UNL     1      34.147 -24.620 -13.739  0.00  0.00    +0.211 HD
ENDBRANCH   6  12
BRANCH   7  14
ATOM     14  O   UNL     1      34.244 -24.110 -17.112  0.00  0.00    -0.378 OA
ATOM     15  H   UNL     1      33.461 -24.540 -16.736  0.00  0.00    +0.211 HD
ENDBRANCH   7  14
BRANCH   9  16
ATOM     16  O   UNL     1      35.421 -21.873 -18.436  0.00  0.00    -0.358 OA
ATOM     17  H   UNL     1      34.962 -21.020 -18.497  0.00  0.00    +0.213 HD
ENDBRANCH   9  16
BRANCH  10  19
ATOM     18  O   UNL     1      38.444 -26.822 -14.512  0.00  0.00    -0.245 OA
ATOM     19  C   UNL     1      37.727 -26.247 -13.709  0.00  0.00    +0.366 C 
BRANCH  19  20
ATOM     20  O   UNL     1      36.742 -26.848 -12.997  0.00  0.00    -0.477 OA
ATOM     21  H   UNL     1      35.955 -26.381 -12.800  0.00  0.00    +0.295 HD
ENDBRANCH  19  20
ENDBRANCH  10  19
TORSDOF 5
ENDMDL
MODEL 7
REMARK VINA RESULT:      -6.7      2.022      4.827
REMARK  Name = 4369553
REMARK  5 active torsions:
REMARK  status: ('A' for Active; 'I' for Inactive)
REMARK    1  A    between atoms: C_6  and  O_12
REMARK    2  A    between atoms: C_7  and  O_14
REMARK    3  A    between atoms: C_9  and  O_16
REMARK    4  A    between atoms: C_10  and  C_19
REMARK    5  A    between atoms: C_19  and  O_20
REMARK                            x       y       z     vdW  Elec       q    Type
REMARK                         _______ _______ _______ _____ _____    ______ ____
ROOT
ATOM      1  O   UNL     1      35.242 -23.313 -14.429  0.00  0.00    -0.323 OA
ATOM      2  O   UNL     1      35.955 -22.444 -17.919  0.00  0.00    -0.326 OA
ATOM      3  O   UNL     1      37.580 -22.804 -14.654  0.00  0.00    -0.323 OA
ATOM      4  C   UNL     1      35.091 -23.386 -15.847  0.00  0.00    +0.177 C 
ATOM      5  C   UNL     1      36.081 -22.422 -16.500  0.00  0.00    +0.177 C 
ATOM      6  C   UNL     1      33.667 -22.999 -16.252  0.00  0.00    +0.172 C 
ATOM      7  C   UNL     1      33.555 -22.915 -17.779  0.00  0.00    +0.196 C 
ATOM      8  C   UNL     1      37.486 -22.822 -16.079  0.00  0.00    +0.177 C 
ATOM      9  C   UNL     1      34.655 -22.006 -18.340  0.00  0.00    +0.262 C 
ATOM     10  C   UNL     1      36.578 -23.589 -14.009  0.00  0.00    +0.280 C 
ATOM     11  C   UNL     1      36.648 -23.250 -12.523  0.00  0.00    +0.074 C 
ENDROOT
BRANCH   6  12
ATOM     12  O   UNL     1      32.737 -23.950 -15.744  0.00  0.00    -0.379 OA
ATOM     13  H   UNL     1      32.005 -24.055 -16.371  0.00  0.00    +0.211 HD
ENDBRANCH   6  12
BRANCH   7  14
ATOM     14  O   UNL     1      33.718 -24.232 -18.315  0.00  0.00    -0.378 OA
ATOM     15  H   UNL     1      34.601 -24.314 -18.707  0.00  0.00    +0.211 HD
ENDBRANCH   7  14
BRANCH   9  16
ATOM     16  O   UNL     1      34.588 -21.931 -19.761  0.00  0.00    -0.358 OA
ATOM     17  H   UNL     1      33.969 -21.228 -20.019  0.00  0.00    +0.213 HD
ENDBRANCH   9  16
BRANCH  10  19
ATOM     18  O   UNL     1      37.763 -25.534 -14.847  0.00  0.00    -0.245 OA
ATOM     19  C   UNL     1      36.894 -25.060 -14.131  0.00  0.00    +0.366 C 
BRANCH  19  20
ATOM     20  O   UNL     1      36.076 -25.792 -13.336  0.00  0.00    -0.477 OA
ATOM     21  H   UNL     1      36.392 -26.127 -12.521  0.00  0.00    +0.295 HD
ENDBRANCH  19  20
ENDBRANCH  10  19
TORSDOF 5
ENDMDL
MODEL 8
REMARK VINA RESULT:      -6.6      1.441      5.081
REMARK  Name = 4369553
REMARK  5 active torsions:
REMARK  status: ('A' for Active; 'I' for Inactive)
REMARK    1  A    between atoms: C_6  and  O_12
REMARK    2  A    between atoms: C_7  and  O_14
REMARK    3  A    between atoms: C_9  and  O_16
REMARK    4  A    between atoms: C_10  and  C_19
REMARK    5  A    between atoms: C_19  and  O_20
REMARK                            x       y       z     vdW  Elec       q    Type
REMARK                         _______ _______ _______ _____ _____    ______ ____
ROOT
ATOM      1  O   UNL     1      38.557 -24.329 -14.835  0.00  0.00    -0.323 OA
ATOM      2  O   UNL     1      35.009 -24.965 -15.501  0.00  0.00    -0.326 OA
ATOM      3  O   UNL     1      38.054 -26.619 -14.312  0.00  0.00    -0.323 OA
ATOM      4  C   UNL     1      37.168 -24.009 -14.908  0.00  0.00    +0.177 C 
ATOM      5  C   UNL     1      36.402 -25.240 -15.392  0.00  0.00    +0.177 C 
ATOM      6  C   UNL     1      36.937 -22.854 -15.885  0.00  0.00    +0.172 C 
ATOM      7  C   UNL     1      35.435 -22.625 -16.089  0.00  0.00    +0.196 C 
ATOM      8  C   UNL     1      36.652 -26.374 -14.411  0.00  0.00    +0.177 C 
ATOM      9  C   UNL     1      34.747 -23.941 -16.472  0.00  0.00    +0.262 C 
ATOM     10  C   UNL     1      38.814 -25.454 -13.994  0.00  0.00    +0.280 C 
ATOM     11  C   UNL     1      40.282 -25.821 -14.193  0.00  0.00    +0.074 C 
ENDROOT
BRANCH   6  12
ATOM     12  O   UNL     1      37.552 -21.666 -15.394  0.00  0.00    -0.379 OA
ATOM     13  H   UNL     1      38.380 -21.510 -15.872  0.00  0.00    +0.211 HD
ENDBRANCH   6  12
BRANCH   7  14
ATOM     14  O   UNL     1      34.881 -22.149 -14.858  0.00  0.00    -0.378 OA
ATOM     15  H   UNL     1      35.584 -22.076 -14.194  0.00  0.00    +0.211 HD
ENDBRANCH   7  14
BRANCH   9  16
ATOM     16  O   UNL     1      33.345 -23.760 -16.644  0.00  0.00    -0.358 OA
ATOM     17  H   UNL     1      33.145 -22.812 -16.689  0.00  0.00    +0.213 HD
ENDBRANCH   9  16
BRANCH  10  19
ATOM     18  O   UNL     1      38.127 -25.803 -11.693  0.00  0.00    -0.245 OA
ATOM     19  C   UNL     1      38.652 -25.093 -12.538  0.00  0.00    +0.366 C 
BRANCH  19  20
ATOM     20  O   UNL     1      39.170 -23.865 -12.289  0.00  0.00    -0.477 OA
ATOM     21  H   UNL     1      38.605 -23.120 -12.238  0.00  0.00    +0.295 HD
ENDBRANCH  19  20
ENDBRANCH  10  19
TORSDOF 5
ENDMDL
MODEL 9
REMARK VINA RESULT:      -6.6      1.893      4.920
REMARK  Name = 4369553
REMARK  5 active torsions:
REMARK  status: ('A' for Active; 'I' for Inactive)
REMARK    1  A    between atoms: C_6  and  O_12
REMARK    2  A    between atoms: C_7  and  O_14
REMARK    3  A    between atoms: C_9  and  O_16
REMARK    4  A    between atoms: C_10  and  C_19
REMARK    5  A    between atoms: C_19  and  O_20
REMARK                            x       y       z     vdW  Elec       q    Type
REMARK                         _______ _______ _______ _____ _____    ______ ____
ROOT
ATOM      1  O   UNL     1      35.951 -23.487 -12.857  0.00  0.00    -0.323 OA
ATOM      2  O   UNL     1      35.056 -23.957 -16.381  0.00  0.00    -0.326 OA
ATOM      3  O   UNL     1      37.932 -24.014 -14.111  0.00  0.00    -0.323 OA
ATOM      4  C   UNL     1      35.119 -23.881 -13.948  0.00  0.00    +0.177 C 
ATOM      5  C   UNL     1      35.855 -23.598 -15.257  0.00  0.00    +0.177 C 
ATOM      6  C   UNL     1      33.806 -23.096 -13.927  0.00  0.00    +0.172 C 
ATOM      7  C   UNL     1      32.989 -23.396 -15.190  0.00  0.00    +0.196 C 
ATOM      8  C   UNL     1      37.157 -24.383 -15.252  0.00  0.00    +0.177 C 
ATOM      9  C   UNL     1      33.850 -23.180 -16.440  0.00  0.00    +0.262 C 
ATOM     10  C   UNL     1      37.222 -24.137 -12.879  0.00  0.00    +0.280 C 
ATOM     11  C   UNL     1      38.078 -23.458 -11.813  0.00  0.00    +0.074 C 
ENDROOT
BRANCH   6  12
ATOM     12  O   UNL     1      33.053 -23.430 -12.765  0.00  0.00    -0.379 OA
ATOM     13  H   UNL     1      33.637 -23.434 -11.991  0.00  0.00    +0.211 HD
ENDBRANCH   6  12
BRANCH   7  14
ATOM     14  O   UNL     1      32.572 -24.765 -15.141  0.00  0.00    -0.378 OA
ATOM     15  H   UNL     1      33.349 -25.336 -15.044  0.00  0.00    +0.211 HD
ENDBRANCH   7  14
BRANCH   9  16
ATOM     16  O   UNL     1      33.121 -23.476 -17.627  0.00  0.00    -0.358 OA
ATOM     17  H   UNL     1      33.154 -24.432 -17.797  0.00  0.00    +0.213 HD
ENDBRANCH   9  16
BRANCH  10  19
ATOM     18  O   UNL     1      37.731 -26.507 -12.973  0.00  0.00    -0.245 OA
ATOM     19  C   UNL     1      37.100 -25.586 -12.477  0.00  0.00    +0.366 C 
BRANCH  19  20
ATOM     20  O   UNL     1      36.188 -25.732 -11.486  0.00  0.00    -0.477 OA
ATOM     21  H   UNL     1      35.939 -24.995 -10.965  0.00  0.00    +0.295 HD
ENDBRANCH  19  20
ENDBRANCH  10  19
TORSDOF 5
ENDMDL
