MODEL 1
REMARK VINA RESULT:      -6.8      0.000      0.000
REMARK  Name = 175468
REMARK  11 active torsions:
REMARK  status: ('A' for Active; 'I' for Inactive)
REMARK    1  A    between atoms: C_1  and  C_2
REMARK    2  A    between atoms: C_1  and  C_9
REMARK    3  A    between atoms: C_2  and  C_3
REMARK    4  A    between atoms: C_3  and  C_4
REMARK    5  A    between atoms: C_4  and  C_5
REMARK    6  A    between atoms: C_5  and  C_6
REMARK    7  A    between atoms: C_6  and  C_8
REMARK    8  A    between atoms: C_10  and  C_11
REMARK    9  A    between atoms: C_11  and  C_12
REMARK   10  A    between atoms: C_12  and  C_14
REMARK   11  A    between atoms: C_14  and  O_15
REMARK                            x       y       z     vdW  Elec       q    Type
REMARK                         _______ _______ _______ _____ _____    ______ ____
ROOT
ATOM      1  C   UNL     1      33.549 -23.010 -17.667  0.00  0.00    +0.026 C 
ENDROOT
BRANCH   1   2
ATOM      2  C   UNL     1      32.082 -22.914 -17.236  0.00  0.00    -0.031 C 
ATOM      3  C   UNL     1      31.812 -23.135 -15.745  0.00  0.00    -0.030 C 
BRANCH   3   4
ATOM      4  C   UNL     1      30.353 -22.983 -15.305  0.00  0.00    +0.037 C 
BRANCH   4   5
ATOM      5  C   UNL     1      29.421 -24.024 -15.924  0.00  0.00    +0.114 C 
BRANCH   5   7
ATOM      6  O   UNL     1      27.615 -24.009 -17.558  0.00  0.00    -0.250 OA
ATOM      7  C   UNL     1      28.451 -23.402 -16.903  0.00  0.00    +0.314 C 
BRANCH   7   8
ATOM      8  O   UNL     1      28.611 -22.054 -16.971  0.00  0.00    -0.480 OA
ATOM      9  H   UNL     1      28.022 -21.489 -16.509  0.00  0.00    +0.295 HD
ENDBRANCH   7   8
ENDBRANCH   5   7
ENDBRANCH   4   5
ENDBRANCH   3   4
ENDBRANCH   1   2
BRANCH   1  10
ATOM     10  C   UNL     1      33.831 -22.344 -19.016  0.00  0.00    +0.005 C 
BRANCH  10  11
ATOM     11  C   UNL     1      35.278 -21.853 -19.099  0.00  0.00    +0.000 C 
BRANCH  11  12
ATOM     12  C   UNL     1      35.424 -20.731 -20.129  0.00  0.00    +0.000 C 
BRANCH  12  13
ATOM     13  C   UNL     1      34.085 -20.158 -20.601  0.00  0.00    +0.001 C 
BRANCH  13  14
ATOM     14  C   UNL     1      34.194 -18.746 -21.180  0.00  0.00    +0.012 C 
BRANCH  14  16
ATOM     15 BR   UNL     1      34.911 -18.957 -23.927  0.00  0.00    -0.081 Br
ATOM     16  C   UNL     1      35.415 -18.620 -22.076  0.00  0.00    +0.068 C 
ENDBRANCH  14  16
ENDBRANCH  13  14
ENDBRANCH  12  13
ENDBRANCH  11  12
ENDBRANCH  10  11
ENDBRANCH   1  10
TORSDOF 11
ENDMDL
MODEL 2
REMARK VINA RESULT:      -6.7      3.318      5.769
REMARK  Name = 175468
REMARK  11 active torsions:
REMARK  status: ('A' for Active; 'I' for Inactive)
REMARK    1  A    between atoms: C_1  and  C_2
REMARK    2  A    between atoms: C_1  and  C_9
REMARK    3  A    between atoms: C_2  and  C_3
REMARK    4  A    between atoms: C_3  and  C_4
REMARK    5  A    between atoms: C_4  and  C_5
REMARK    6  A    between atoms: C_5  and  C_6
REMARK    7  A    between atoms: C_6  and  C_8
REMARK    8  A    between atoms: C_10  and  C_11
REMARK    9  A    between atoms: C_11  and  C_12
REMARK   10  A    between atoms: C_12  and  C_14
REMARK   11  A    between atoms: C_14  and  O_15
REMARK                            x       y       z     vdW  Elec       q    Type
REMARK                         _______ _______ _______ _____ _____    ______ ____
ROOT
ATOM      1  C   UNL     1      35.423 -18.603 -22.400  0.00  0.00    +0.026 C 
ENDROOT
BRANCH   1   2
ATOM      2  C   UNL     1      34.969 -19.401 -21.174  0.00  0.00    -0.031 C 
ATOM      3  C   UNL     1      33.475 -19.736 -21.116  0.00  0.00    -0.030 C 
BRANCH   3   4
ATOM      4  C   UNL     1      33.031 -20.581 -19.918  0.00  0.00    +0.037 C 
BRANCH   4   5
ATOM      5  C   UNL     1      34.066 -21.621 -19.493  0.00  0.00    +0.114 C 
BRANCH   5   7
ATOM      6  O   UNL     1      34.161 -23.428 -17.863  0.00  0.00    -0.250 OA
ATOM      7  C   UNL     1      33.521 -22.563 -18.443  0.00  0.00    +0.314 C 
BRANCH   7   8
ATOM      8  O   UNL     1      32.204 -22.328 -18.202  0.00  0.00    -0.480 OA
ATOM      9  H   UNL     1      31.549 -22.815 -18.665  0.00  0.00    +0.295 HD
ENDBRANCH   7   8
ENDBRANCH   5   7
ENDBRANCH   4   5
ENDBRANCH   3   4
ENDBRANCH   1   2
BRANCH   1  10
ATOM     10  C   UNL     1      34.783 -19.081 -23.706  0.00  0.00    +0.005 C 
BRANCH  10  11
ATOM     11  C   UNL     1      34.676 -17.938 -24.720  0.00  0.00    +0.000 C 
BRANCH  11  12
ATOM     12  C   UNL     1      35.045 -16.597 -24.084  0.00  0.00    +0.000 C 
BRANCH  12  13
ATOM     13  C   UNL     1      33.893 -15.589 -24.071  0.00  0.00    +0.001 C 
BRANCH  13  14
ATOM     14  C   UNL     1      34.110 -14.425 -23.102  0.00  0.00    +0.012 C 
BRANCH  14  16
ATOM     15 BR   UNL     1      32.910 -15.079 -20.605  0.00  0.00    -0.081 Br
ATOM     16  C   UNL     1      34.498 -14.932 -21.723  0.00  0.00    +0.068 C 
ENDBRANCH  14  16
ENDBRANCH  13  14
ENDBRANCH  12  13
ENDBRANCH  11  12
ENDBRANCH  10  11
ENDBRANCH   1  10
TORSDOF 11
ENDMDL
MODEL 3
REMARK VINA RESULT:      -6.7      1.379      2.193
REMARK  Name = 175468
REMARK  11 active torsions:
REMARK  status: ('A' for Active; 'I' for Inactive)
REMARK    1  A    between atoms: C_1  and  C_2
REMARK    2  A    between atoms: C_1  and  C_9
REMARK    3  A    between atoms: C_2  and  C_3
REMARK    4  A    between atoms: C_3  and  C_4
REMARK    5  A    between atoms: C_4  and  C_5
REMARK    6  A    between atoms: C_5  and  C_6
REMARK    7  A    between atoms: C_6  and  C_8
REMARK    8  A    between atoms: C_10  and  C_11
REMARK    9  A    between atoms: C_11  and  C_12
REMARK   10  A    between atoms: C_12  and  C_14
REMARK   11  A    between atoms: C_14  and  O_15
REMARK                            x       y       z     vdW  Elec       q    Type
REMARK                         _______ _______ _______ _____ _____    ______ ____
ROOT
ATOM      1  C   UNL     1      32.841 -23.235 -15.219  0.00  0.00    +0.026 C 
ENDROOT
BRANCH   1   2
ATOM      2  C   UNL     1      31.350 -23.093 -15.542  0.00  0.00    -0.031 C 
ATOM      3  C   UNL     1      30.464 -24.270 -15.119  0.00  0.00    -0.030 C 
BRANCH   3   4
ATOM      4  C   UNL     1      28.967 -24.104 -15.392  0.00  0.00    +0.037 C 
BRANCH   4   5
ATOM      5  C   UNL     1      28.575 -22.681 -15.785  0.00  0.00    +0.114 C 
BRANCH   5   7
ATOM      6  O   UNL     1      27.584 -23.597 -17.811  0.00  0.00    -0.250 OA
ATOM      7  C   UNL     1      27.757 -22.651 -17.055  0.00  0.00    +0.314 C 
BRANCH   7   8
ATOM      8  O   UNL     1      27.213 -21.424 -17.267  0.00  0.00    -0.480 OA
ATOM      9  H   UNL     1      27.395 -20.962 -18.062  0.00  0.00    +0.295 HD
ENDBRANCH   7   8
ENDBRANCH   5   7
ENDBRANCH   4   5
ENDBRANCH   3   4
ENDBRANCH   1   2
BRANCH   1  10
ATOM     10  C   UNL     1      33.724 -23.342 -16.464  0.00  0.00    +0.005 C 
BRANCH  10  11
ATOM     11  C   UNL     1      32.971 -22.889 -17.717  0.00  0.00    +0.000 C 
BRANCH  11  12
ATOM     12  C   UNL     1      33.886 -22.889 -18.944  0.00  0.00    +0.000 C 
BRANCH  12  13
ATOM     13  C   UNL     1      34.232 -21.484 -19.447  0.00  0.00    +0.001 C 
BRANCH  13  14
ATOM     14  C   UNL     1      33.014 -20.689 -19.923  0.00  0.00    +0.012 C 
BRANCH  14  16
ATOM     15 BR   UNL     1      35.341 -19.498 -21.051  0.00  0.00    -0.081 Br
ATOM     16  C   UNL     1      33.404 -19.694 -21.003  0.00  0.00    +0.068 C 
ENDBRANCH  14  16
ENDBRANCH  13  14
ENDBRANCH  12  13
ENDBRANCH  11  12
ENDBRANCH  10  11
ENDBRANCH   1  10
TORSDOF 11
ENDMDL
MODEL 4
REMARK VINA RESULT:      -6.5      6.040      7.216
REMARK  Name = 175468
REMARK  11 active torsions:
REMARK  status: ('A' for Active; 'I' for Inactive)
REMARK    1  A    between atoms: C_1  and  C_2
REMARK    2  A    between atoms: C_1  and  C_9
REMARK    3  A    between atoms: C_2  and  C_3
REMARK    4  A    between atoms: C_3  and  C_4
REMARK    5  A    between atoms: C_4  and  C_5
REMARK    6  A    between atoms: C_5  and  C_6
REMARK    7  A    between atoms: C_6  and  C_8
REMARK    8  A    between atoms: C_10  and  C_11
REMARK    9  A    between atoms: C_11  and  C_12
REMARK   10  A    between atoms: C_12  and  C_14
REMARK   11  A    between atoms: C_14  and  O_15
REMARK                            x       y       z     vdW  Elec       q    Type
REMARK                         _______ _______ _______ _____ _____    ______ ____
ROOT
ATOM      1  C   UNL     1      37.253 -21.718 -16.392  0.00  0.00    +0.026 C 
ENDROOT
BRANCH   1   2
ATOM      2  C   UNL     1      37.932 -23.062 -16.110  0.00  0.00    -0.031 C 
ATOM      3  C   UNL     1      37.336 -23.878 -14.957  0.00  0.00    -0.030 C 
BRANCH   3   4
ATOM      4  C   UNL     1      37.979 -25.246 -14.711  0.00  0.00    +0.037 C 
BRANCH   4   5
ATOM      5  C   UNL     1      39.310 -25.165 -13.964  0.00  0.00    +0.114 C 
BRANCH   5   7
ATOM      6  O   UNL     1      41.223 -26.666 -14.085  0.00  0.00    -0.250 OA
ATOM      7  C   UNL     1      40.390 -25.971 -14.649  0.00  0.00    +0.314 C 
BRANCH   7   8
ATOM      8  O   UNL     1      40.327 -25.839 -16.000  0.00  0.00    -0.480 OA
ATOM      9  H   UNL     1      40.223 -26.598 -16.541  0.00  0.00    +0.295 HD
ENDBRANCH   7   8
ENDBRANCH   5   7
ENDBRANCH   4   5
ENDBRANCH   3   4
ENDBRANCH   1   2
BRANCH   1  10
ATOM     10  C   UNL     1      36.774 -21.573 -17.839  0.00  0.00    +0.005 C 
BRANCH  10  11
ATOM     11  C   UNL     1      35.385 -22.189 -18.026  0.00  0.00    +0.000 C 
BRANCH  11  12
ATOM     12  C   UNL     1      34.814 -21.856 -19.406  0.00  0.00    +0.000 C 
BRANCH  12  13
ATOM     13  C   UNL     1      35.602 -20.773 -20.148  0.00  0.00    +0.001 C 
BRANCH  13  14
ATOM     14  C   UNL     1      34.716 -19.695 -20.776  0.00  0.00    +0.012 C 
BRANCH  14  16
ATOM     15 BR   UNL     1      35.254 -18.632 -23.362  0.00  0.00    -0.081 Br
ATOM     16  C   UNL     1      35.559 -18.618 -21.439  0.00  0.00    +0.068 C 
ENDBRANCH  14  16
ENDBRANCH  13  14
ENDBRANCH  12  13
ENDBRANCH  11  12
ENDBRANCH  10  11
ENDBRANCH   1  10
TORSDOF 11
ENDMDL
MODEL 5
REMARK VINA RESULT:      -6.5      5.356      8.444
REMARK  Name = 175468
REMARK  11 active torsions:
REMARK  status: ('A' for Active; 'I' for Inactive)
REMARK    1  A    between atoms: C_1  and  C_2
REMARK    2  A    between atoms: C_1  and  C_9
REMARK    3  A    between atoms: C_2  and  C_3
REMARK    4  A    between atoms: C_3  and  C_4
REMARK    5  A    between atoms: C_4  and  C_5
REMARK    6  A    between atoms: C_5  and  C_6
REMARK    7  A    between atoms: C_6  and  C_8
REMARK    8  A    between atoms: C_10  and  C_11
REMARK    9  A    between atoms: C_11  and  C_12
REMARK   10  A    between atoms: C_12  and  C_14
REMARK   11  A    between atoms: C_14  and  O_15
REMARK                            x       y       z     vdW  Elec       q    Type
REMARK                         _______ _______ _______ _____ _____    ______ ____
ROOT
ATOM      1  C   UNL     1      33.108 -20.488 -20.207  0.00  0.00    +0.026 C 
ENDROOT
BRANCH   1   2
ATOM      2  C   UNL     1      33.662 -19.285 -20.975  0.00  0.00    -0.031 C 
ATOM      3  C   UNL     1      34.871 -19.569 -21.872  0.00  0.00    -0.030 C 
BRANCH   3   4
ATOM      4  C   UNL     1      35.390 -18.377 -22.683  0.00  0.00    +0.037 C 
BRANCH   4   5
ATOM      5  C   UNL     1      34.891 -18.362 -24.126  0.00  0.00    +0.114 C 
BRANCH   5   7
ATOM      6  O   UNL     1      34.559 -16.669 -25.845  0.00  0.00    -0.250 OA
ATOM      7  C   UNL     1      34.964 -16.979 -24.733  0.00  0.00    +0.314 C 
BRANCH   7   8
ATOM      8  O   UNL     1      35.538 -16.092 -23.879  0.00  0.00    -0.480 OA
ATOM      9  H   UNL     1      35.067 -15.326 -23.612  0.00  0.00    +0.295 HD
ENDBRANCH   7   8
ENDBRANCH   5   7
ENDBRANCH   4   5
ENDBRANCH   3   4
ENDBRANCH   1   2
BRANCH   1  10
ATOM     10  C   UNL     1      34.198 -21.376 -19.602  0.00  0.00    +0.005 C 
BRANCH  10  11
ATOM     11  C   UNL     1      33.592 -22.588 -18.888  0.00  0.00    +0.000 C 
BRANCH  11  12
ATOM     12  C   UNL     1      34.249 -22.812 -17.524  0.00  0.00    +0.000 C 
BRANCH  12  13
ATOM     13  C   UNL     1      33.287 -23.364 -16.468  0.00  0.00    +0.001 C 
BRANCH  13  14
ATOM     14  C   UNL     1      31.823 -23.002 -16.726  0.00  0.00    +0.012 C 
BRANCH  14  16
ATOM     15 BR   UNL     1      29.128 -22.898 -15.815  0.00  0.00    -0.081 Br
ATOM     16  C   UNL     1      30.912 -23.672 -15.712  0.00  0.00    +0.068 C 
ENDBRANCH  14  16
ENDBRANCH  13  14
ENDBRANCH  12  13
ENDBRANCH  11  12
ENDBRANCH  10  11
ENDBRANCH   1  10
TORSDOF 11
ENDMDL
MODEL 6
REMARK VINA RESULT:      -6.5      5.275      7.998
REMARK  Name = 175468
REMARK  11 active torsions:
REMARK  status: ('A' for Active; 'I' for Inactive)
REMARK    1  A    between atoms: C_1  and  C_2
REMARK    2  A    between atoms: C_1  and  C_9
REMARK    3  A    between atoms: C_2  and  C_3
REMARK    4  A    between atoms: C_3  and  C_4
REMARK    5  A    between atoms: C_4  and  C_5
REMARK    6  A    between atoms: C_5  and  C_6
REMARK    7  A    between atoms: C_6  and  C_8
REMARK    8  A    between atoms: C_10  and  C_11
REMARK    9  A    between atoms: C_11  and  C_12
REMARK   10  A    between atoms: C_12  and  C_14
REMARK   11  A    between atoms: C_14  and  O_15
REMARK                            x       y       z     vdW  Elec       q    Type
REMARK                         _______ _______ _______ _____ _____    ______ ____
ROOT
ATOM      1  C   UNL     1      33.264 -20.673 -20.120  0.00  0.00    +0.026 C 
ENDROOT
BRANCH   1   2
ATOM      2  C   UNL     1      33.718 -19.606 -21.122  0.00  0.00    -0.031 C 
ATOM      3  C   UNL     1      35.233 -19.415 -21.249  0.00  0.00    -0.030 C 
BRANCH   3   4
ATOM      4  C   UNL     1      35.687 -18.388 -22.290  0.00  0.00    +0.037 C 
BRANCH   4   5
ATOM      5  C   UNL     1      35.108 -18.639 -23.682  0.00  0.00    +0.114 C 
BRANCH   5   7
ATOM      6  O   UNL     1      34.299 -17.231 -25.496  0.00  0.00    -0.250 OA
ATOM      7  C   UNL     1      34.941 -17.355 -24.462  0.00  0.00    +0.314 C 
BRANCH   7   8
ATOM      8  O   UNL     1      35.595 -16.323 -23.867  0.00  0.00    -0.480 OA
ATOM      9  H   UNL     1      36.385 -15.989 -24.245  0.00  0.00    +0.295 HD
ENDBRANCH   7   8
ENDBRANCH   5   7
ENDBRANCH   4   5
ENDBRANCH   3   4
ENDBRANCH   1   2
BRANCH   1  10
ATOM     10  C   UNL     1      34.424 -21.459 -19.504  0.00  0.00    +0.005 C 
BRANCH  10  11
ATOM     11  C   UNL     1      33.975 -22.854 -19.062  0.00  0.00    +0.000 C 
BRANCH  11  12
ATOM     12  C   UNL     1      33.148 -22.788 -17.776  0.00  0.00    +0.000 C 
BRANCH  12  13
ATOM     13  C   UNL     1      33.712 -23.648 -16.642  0.00  0.00    +0.001 C 
BRANCH  13  14
ATOM     14  C   UNL     1      34.602 -22.871 -15.671  0.00  0.00    +0.012 C 
BRANCH  14  16
ATOM     15 BR   UNL     1      37.131 -21.870 -16.514  0.00  0.00    -0.081 Br
ATOM     16  C   UNL     1      36.050 -23.318 -15.786  0.00  0.00    +0.068 C 
ENDBRANCH  14  16
ENDBRANCH  13  14
ENDBRANCH  12  13
ENDBRANCH  11  12
ENDBRANCH  10  11
ENDBRANCH   1  10
TORSDOF 11
ENDMDL
MODEL 7
REMARK VINA RESULT:      -6.5      3.687      6.034
REMARK  Name = 175468
REMARK  11 active torsions:
REMARK  status: ('A' for Active; 'I' for Inactive)
REMARK    1  A    between atoms: C_1  and  C_2
REMARK    2  A    between atoms: C_1  and  C_9
REMARK    3  A    between atoms: C_2  and  C_3
REMARK    4  A    between atoms: C_3  and  C_4
REMARK    5  A    between atoms: C_4  and  C_5
REMARK    6  A    between atoms: C_5  and  C_6
REMARK    7  A    between atoms: C_6  and  C_8
REMARK    8  A    between atoms: C_10  and  C_11
REMARK    9  A    between atoms: C_11  and  C_12
REMARK   10  A    between atoms: C_12  and  C_14
REMARK   11  A    between atoms: C_14  and  O_15
REMARK                            x       y       z     vdW  Elec       q    Type
REMARK                         _______ _______ _______ _____ _____    ______ ____
ROOT
ATOM      1  C   UNL     1      35.422 -18.543 -22.214  0.00  0.00    +0.026 C 
ENDROOT
BRANCH   1   2
ATOM      2  C   UNL     1      34.956 -19.388 -21.024  0.00  0.00    -0.031 C 
ATOM      3  C   UNL     1      33.478 -19.791 -21.034  0.00  0.00    -0.030 C 
BRANCH   3   4
ATOM      4  C   UNL     1      33.026 -20.682 -19.873  0.00  0.00    +0.037 C 
BRANCH   4   5
ATOM      5  C   UNL     1      34.102 -21.659 -19.403  0.00  0.00    +0.114 C 
BRANCH   5   7
ATOM      6  O   UNL     1      34.226 -23.493 -17.806  0.00  0.00    -0.250 OA
ATOM      7  C   UNL     1      33.570 -22.633 -18.376  0.00  0.00    +0.314 C 
BRANCH   7   8
ATOM      8  O   UNL     1      32.245 -22.437 -18.146  0.00  0.00    -0.480 OA
ATOM      9  H   UNL     1      31.608 -22.930 -18.625  0.00  0.00    +0.295 HD
ENDBRANCH   7   8
ENDBRANCH   5   7
ENDBRANCH   4   5
ENDBRANCH   3   4
ENDBRANCH   1   2
BRANCH   1  10
ATOM     10  C   UNL     1      34.757 -18.938 -23.535  0.00  0.00    +0.005 C 
BRANCH  10  11
ATOM     11  C   UNL     1      34.771 -17.775 -24.530  0.00  0.00    +0.000 C 
BRANCH  11  12
ATOM     12  C   UNL     1      35.048 -16.445 -23.825  0.00  0.00    +0.000 C 
BRANCH  12  13
ATOM     13  C   UNL     1      33.979 -15.381 -24.088  0.00  0.00    +0.001 C 
BRANCH  13  14
ATOM     14  C   UNL     1      34.131 -14.134 -23.215  0.00  0.00    +0.012 C 
BRANCH  14  16
ATOM     15 BR   UNL     1      33.880 -11.700 -24.670  0.00  0.00    -0.081 Br
ATOM     16  C   UNL     1      33.082 -13.093 -23.568  0.00  0.00    +0.068 C 
ENDBRANCH  14  16
ENDBRANCH  13  14
ENDBRANCH  12  13
ENDBRANCH  11  12
ENDBRANCH  10  11
ENDBRANCH   1  10
TORSDOF 11
ENDMDL
MODEL 8
REMARK VINA RESULT:      -6.4      5.856      9.394
REMARK  Name = 175468
REMARK  11 active torsions:
REMARK  status: ('A' for Active; 'I' for Inactive)
REMARK    1  A    between atoms: C_1  and  C_2
REMARK    2  A    between atoms: C_1  and  C_9
REMARK    3  A    between atoms: C_2  and  C_3
REMARK    4  A    between atoms: C_3  and  C_4
REMARK    5  A    between atoms: C_4  and  C_5
REMARK    6  A    between atoms: C_5  and  C_6
REMARK    7  A    between atoms: C_6  and  C_8
REMARK    8  A    between atoms: C_10  and  C_11
REMARK    9  A    between atoms: C_11  and  C_12
REMARK   10  A    between atoms: C_12  and  C_14
REMARK   11  A    between atoms: C_14  and  O_15
REMARK                            x       y       z     vdW  Elec       q    Type
REMARK                         _______ _______ _______ _____ _____    ______ ____
ROOT
ATOM      1  C   UNL     1      34.103 -15.468 -20.930  0.00  0.00    +0.026 C 
ENDROOT
BRANCH   1   2
ATOM      2  C   UNL     1      33.553 -15.083 -22.307  0.00  0.00    -0.031 C 
ATOM      3  C   UNL     1      34.108 -13.786 -22.905  0.00  0.00    -0.030 C 
BRANCH   3   4
ATOM      4  C   UNL     1      33.600 -13.431 -24.305  0.00  0.00    +0.037 C 
BRANCH   4   5
ATOM      5  C   UNL     1      32.806 -14.556 -24.966  0.00  0.00    +0.114 C 
BRANCH   5   7
ATOM      6  O   UNL     1      34.246 -16.322 -25.825  0.00  0.00    -0.250 OA
ATOM      7  C   UNL     1      33.622 -15.286 -26.009  0.00  0.00    +0.314 C 
BRANCH   7   8
ATOM      8  O   UNL     1      33.579 -14.649 -27.208  0.00  0.00    -0.480 OA
ATOM      9  H   UNL     1      34.006 -15.024 -27.953  0.00  0.00    +0.295 HD
ENDBRANCH   7   8
ENDBRANCH   5   7
ENDBRANCH   4   5
ENDBRANCH   3   4
ENDBRANCH   1   2
BRANCH   1  10
ATOM     10  C   UNL     1      34.935 -16.752 -20.946  0.00  0.00    +0.005 C 
BRANCH  10  11
ATOM     11  C   UNL     1      35.089 -17.294 -22.369  0.00  0.00    +0.000 C 
BRANCH  11  12
ATOM     12  C   UNL     1      34.588 -18.737 -22.470  0.00  0.00    +0.000 C 
BRANCH  12  13
ATOM     13  C   UNL     1      34.550 -19.465 -21.123  0.00  0.00    +0.001 C 
BRANCH  13  14
ATOM     14  C   UNL     1      33.200 -20.119 -20.821  0.00  0.00    +0.012 C 
BRANCH  14  16
ATOM     15 BR   UNL     1      35.142 -21.688 -19.453  0.00  0.00    -0.081 Br
ATOM     16  C   UNL     1      33.307 -21.061 -19.633  0.00  0.00    +0.068 C 
ENDBRANCH  14  16
ENDBRANCH  13  14
ENDBRANCH  12  13
ENDBRANCH  11  12
ENDBRANCH  10  11
ENDBRANCH   1  10
TORSDOF 11
ENDMDL
MODEL 9
REMARK VINA RESULT:      -6.4      4.892      5.655
REMARK  Name = 175468
REMARK  11 active torsions:
REMARK  status: ('A' for Active; 'I' for Inactive)
REMARK    1  A    between atoms: C_1  and  C_2
REMARK    2  A    between atoms: C_1  and  C_9
REMARK    3  A    between atoms: C_2  and  C_3
REMARK    4  A    between atoms: C_3  and  C_4
REMARK    5  A    between atoms: C_4  and  C_5
REMARK    6  A    between atoms: C_5  and  C_6
REMARK    7  A    between atoms: C_6  and  C_8
REMARK    8  A    between atoms: C_10  and  C_11
REMARK    9  A    between atoms: C_11  and  C_12
REMARK   10  A    between atoms: C_12  and  C_14
REMARK   11  A    between atoms: C_14  and  O_15
REMARK                            x       y       z     vdW  Elec       q    Type
REMARK                         _______ _______ _______ _____ _____    ______ ____
ROOT
ATOM      1  C   UNL     1      34.822 -21.590 -19.700  0.00  0.00    +0.026 C 
ENDROOT
BRANCH   1   2
ATOM      2  C   UNL     1      35.333 -22.027 -18.324  0.00  0.00    -0.031 C 
ATOM      3  C   UNL     1      36.757 -21.583 -17.972  0.00  0.00    -0.030 C 
BRANCH   3   4
ATOM      4  C   UNL     1      37.246 -21.972 -16.574  0.00  0.00    +0.037 C 
BRANCH   4   5
ATOM      5  C   UNL     1      36.344 -22.989 -15.876  0.00  0.00    +0.114 C 
BRANCH   5   7
ATOM      6  O   UNL     1      37.240 -25.129 -15.136  0.00  0.00    -0.250 OA
ATOM      7  C   UNL     1      37.131 -23.920 -14.982  0.00  0.00    +0.314 C 
BRANCH   7   8
ATOM      8  O   UNL     1      37.725 -23.245 -13.963  0.00  0.00    -0.480 OA
ATOM      9  H   UNL     1      37.468 -22.364 -13.772  0.00  0.00    +0.295 HD
ENDBRANCH   7   8
ENDBRANCH   5   7
ENDBRANCH   4   5
ENDBRANCH   3   4
ENDBRANCH   1   2
BRANCH   1  10
ATOM     10  C   UNL     1      33.362 -21.134 -19.689  0.00  0.00    +0.005 C 
BRANCH  10  11
ATOM     11  C   UNL     1      33.141 -19.961 -20.648  0.00  0.00    +0.000 C 
BRANCH  11  12
ATOM     12  C   UNL     1      34.427 -19.608 -21.397  0.00  0.00    +0.000 C 
BRANCH  12  13
ATOM     13  C   UNL     1      34.874 -18.158 -21.193  0.00  0.00    +0.001 C 
BRANCH  13  14
ATOM     14  C   UNL     1      35.389 -17.492 -22.470  0.00  0.00    +0.012 C 
BRANCH  14  16
ATOM     15 BR   UNL     1      34.391 -15.395 -20.823  0.00  0.00    -0.081 Br
ATOM     16  C   UNL     1      34.871 -16.068 -22.586  0.00  0.00    +0.068 C 
ENDBRANCH  14  16
ENDBRANCH  13  14
ENDBRANCH  12  13
ENDBRANCH  11  12
ENDBRANCH  10  11
ENDBRANCH   1  10
TORSDOF 11
ENDMDL
