MODEL 1
REMARK VINA RESULT:      -6.2      0.000      0.000
REMARK  Name = 444348
REMARK  6 active torsions:
REMARK  status: ('A' for Active; 'I' for Inactive)
REMARK    1  A    between atoms: O_1  and  P_2
REMARK    2  A    between atoms: O_1  and  C_8
REMARK    3  A    between atoms: P_2  and  O_4
REMARK    4  A    between atoms: P_2  and  O_6
REMARK    5  A    between atoms: C_8  and  C_11
REMARK    6  A    between atoms: C_11  and  O_12
REMARK                            x       y       z     vdW  Elec       q    Type
REMARK                         _______ _______ _______ _____ _____    ______ ____
ROOT
ATOM      1  O   UNL     1      38.875 -26.688 -14.450  0.00  0.00    -0.264 OA
ENDROOT
BRANCH   1   2
ATOM      2  P   UNL     1      40.309 -25.960 -14.620  0.00  0.00    +0.474 P 
ATOM      3  O   UNL     1      40.429 -24.626 -13.943  0.00  0.00    -0.227 OA
BRANCH   2   4
ATOM      4  O   UNL     1      40.546 -25.946 -16.220  0.00  0.00    -0.303 OA
ATOM      5  H   UNL     1      41.060 -25.160 -16.464  0.00  0.00    +0.222 HD
ENDBRANCH   2   4
BRANCH   2   6
ATOM      6  O   UNL     1      41.347 -27.085 -14.099  0.00  0.00    -0.303 OA
ATOM      7  H   UNL     1      41.400 -27.802 -14.749  0.00  0.00    +0.222 HD
ENDBRANCH   2   6
ENDBRANCH   1   2
BRANCH   1   8
ATOM      8  C   UNL     1      37.737 -25.883 -14.177  0.00  0.00    +0.224 C 
ATOM      9  C   UNL     1      37.216 -26.257 -12.800  0.00  0.00    +0.045 C 
BRANCH   8  11
ATOM     10  O   UNL     1      35.683 -25.481 -15.412  0.00  0.00    -0.248 OA
ATOM     11  C   UNL     1      36.698 -26.145 -15.248  0.00  0.00    +0.342 C 
BRANCH  11  12
ATOM     12  O   UNL     1      37.028 -27.201 -16.036  0.00  0.00    -0.479 OA
ATOM     13  H   UNL     1      37.537 -27.905 -15.687  0.00  0.00    +0.295 HD
ENDBRANCH  11  12
ENDBRANCH   8  11
ENDBRANCH   1   8
TORSDOF 6
ENDMDL
MODEL 2
REMARK VINA RESULT:      -6.0      2.034      3.221
REMARK  Name = 444348
REMARK  6 active torsions:
REMARK  status: ('A' for Active; 'I' for Inactive)
REMARK    1  A    between atoms: O_1  and  P_2
REMARK    2  A    between atoms: O_1  and  C_8
REMARK    3  A    between atoms: P_2  and  O_4
REMARK    4  A    between atoms: P_2  and  O_6
REMARK    5  A    between atoms: C_8  and  C_11
REMARK    6  A    between atoms: C_11  and  O_12
REMARK                            x       y       z     vdW  Elec       q    Type
REMARK                         _______ _______ _______ _____ _____    ______ ____
ROOT
ATOM      1  O   UNL     1      39.551 -24.687 -13.873  0.00  0.00    -0.264 OA
ENDROOT
BRANCH   1   2
ATOM      2  P   UNL     1      40.085 -26.040 -14.581  0.00  0.00    +0.474 P 
ATOM      3  O   UNL     1      41.302 -26.650 -13.949  0.00  0.00    -0.227 OA
BRANCH   2   4
ATOM      4  O   UNL     1      40.251 -25.621 -16.135  0.00  0.00    -0.303 OA
ATOM      5  H   UNL     1      40.333 -24.657 -16.202  0.00  0.00    +0.222 HD
ENDBRANCH   2   4
BRANCH   2   6
ATOM      6  O   UNL     1      38.773 -26.984 -14.587  0.00  0.00    -0.303 OA
ATOM      7  H   UNL     1      38.215 -26.767 -13.825  0.00  0.00    +0.222 HD
ENDBRANCH   2   6
ENDBRANCH   1   2
BRANCH   1   8
ATOM      8  C   UNL     1      38.206 -24.648 -13.420  0.00  0.00    +0.224 C 
ATOM      9  C   UNL     1      37.409 -23.789 -14.387  0.00  0.00    +0.045 C 
BRANCH   8  11
ATOM     10  O   UNL     1      38.773 -23.043 -11.685  0.00  0.00    -0.248 OA
ATOM     11  C   UNL     1      38.188 -24.063 -12.023  0.00  0.00    +0.342 C 
BRANCH  11  12
ATOM     12  O   UNL     1      37.422 -24.793 -11.170  0.00  0.00    -0.479 OA
ATOM     13  H   UNL     1      36.547 -25.026 -11.409  0.00  0.00    +0.295 HD
ENDBRANCH  11  12
ENDBRANCH   8  11
ENDBRANCH   1   8
TORSDOF 6
ENDMDL
MODEL 3
REMARK VINA RESULT:      -5.8      2.173      2.658
REMARK  Name = 444348
REMARK  6 active torsions:
REMARK  status: ('A' for Active; 'I' for Inactive)
REMARK    1  A    between atoms: O_1  and  P_2
REMARK    2  A    between atoms: O_1  and  C_8
REMARK    3  A    between atoms: P_2  and  O_4
REMARK    4  A    between atoms: P_2  and  O_6
REMARK    5  A    between atoms: C_8  and  C_11
REMARK    6  A    between atoms: C_11  and  O_12
REMARK                            x       y       z     vdW  Elec       q    Type
REMARK                         _______ _______ _______ _____ _____    ______ ____
ROOT
ATOM      1  O   UNL     1      39.022 -25.258 -13.191  0.00  0.00    -0.264 OA
ENDROOT
BRANCH   1   2
ATOM      2  P   UNL     1      39.543 -25.380 -14.717  0.00  0.00    +0.474 P 
ATOM      3  O   UNL     1      41.001 -25.706 -14.867  0.00  0.00    -0.227 OA
BRANCH   2   4
ATOM      4  O   UNL     1      39.073 -23.989 -15.397  0.00  0.00    -0.303 OA
ATOM      5  H   UNL     1      38.298 -23.645 -14.925  0.00  0.00    +0.222 HD
ENDBRANCH   2   4
BRANCH   2   6
ATOM      6  O   UNL     1      38.532 -26.467 -15.356  0.00  0.00    -0.303 OA
ATOM      7  H   UNL     1      38.066 -26.072 -16.109  0.00  0.00    +0.222 HD
ENDBRANCH   2   6
ENDBRANCH   1   2
BRANCH   1   8
ATOM      8  C   UNL     1      37.775 -24.621 -12.952  0.00  0.00    +0.224 C 
ATOM      9  C   UNL     1      38.018 -23.448 -12.018  0.00  0.00    +0.045 C 
BRANCH   8  11
ATOM     10  O   UNL     1      36.129 -25.420 -11.352  0.00  0.00    -0.248 OA
ATOM     11  C   UNL     1      36.833 -25.632 -12.331  0.00  0.00    +0.342 C 
BRANCH  11  12
ATOM     12  O   UNL     1      36.836 -26.815 -12.999  0.00  0.00    -0.479 OA
ATOM     13  H   UNL     1      37.020 -26.834 -13.917  0.00  0.00    +0.295 HD
ENDBRANCH  11  12
ENDBRANCH   8  11
ENDBRANCH   1   8
TORSDOF 6
ENDMDL
MODEL 4
REMARK VINA RESULT:      -5.7      2.691      3.867
REMARK  Name = 444348
REMARK  6 active torsions:
REMARK  status: ('A' for Active; 'I' for Inactive)
REMARK    1  A    between atoms: O_1  and  P_2
REMARK    2  A    between atoms: O_1  and  C_8
REMARK    3  A    between atoms: P_2  and  O_4
REMARK    4  A    between atoms: P_2  and  O_6
REMARK    5  A    between atoms: C_8  and  C_11
REMARK    6  A    between atoms: C_11  and  O_12
REMARK                            x       y       z     vdW  Elec       q    Type
REMARK                         _______ _______ _______ _____ _____    ______ ____
ROOT
ATOM      1  O   UNL     1      36.837 -25.972 -13.112  0.00  0.00    -0.264 OA
ENDROOT
BRANCH   1   2
ATOM      2  P   UNL     1      37.290 -26.300 -14.630  0.00  0.00    +0.474 P 
ATOM      3  O   UNL     1      38.633 -26.957 -14.764  0.00  0.00    -0.227 OA
BRANCH   2   4
ATOM      4  O   UNL     1      37.136 -24.882 -15.392  0.00  0.00    -0.303 OA
ATOM      5  H   UNL     1      37.947 -24.363 -15.275  0.00  0.00    +0.222 HD
ENDBRANCH   2   4
BRANCH   2   6
ATOM      6  O   UNL     1      36.048 -27.165 -15.196  0.00  0.00    -0.303 OA
ATOM      7  H   UNL     1      35.615 -26.677 -15.913  0.00  0.00    +0.222 HD
ENDBRANCH   2   6
ENDBRANCH   1   2
BRANCH   1   8
ATOM      8  C   UNL     1      36.699 -24.612 -12.727  0.00  0.00    +0.224 C 
ATOM      9  C   UNL     1      37.987 -24.183 -12.045  0.00  0.00    +0.045 C 
BRANCH   8  11
ATOM     10  O   UNL     1      35.384 -25.133 -10.751  0.00  0.00    -0.248 OA
ATOM     11  C   UNL     1      35.516 -24.498 -11.789  0.00  0.00    +0.342 C 
BRANCH  11  12
ATOM     12  O   UNL     1      34.607 -23.583 -12.217  0.00  0.00    -0.479 OA
ATOM     13  H   UNL     1      34.343 -22.884 -11.652  0.00  0.00    +0.295 HD
ENDBRANCH  11  12
ENDBRANCH   8  11
ENDBRANCH   1   8
TORSDOF 6
ENDMDL
MODEL 5
REMARK VINA RESULT:      -5.7      3.007      4.016
REMARK  Name = 444348
REMARK  6 active torsions:
REMARK  status: ('A' for Active; 'I' for Inactive)
REMARK    1  A    between atoms: O_1  and  P_2
REMARK    2  A    between atoms: O_1  and  C_8
REMARK    3  A    between atoms: P_2  and  O_4
REMARK    4  A    between atoms: P_2  and  O_6
REMARK    5  A    between atoms: C_8  and  C_11
REMARK    6  A    between atoms: C_11  and  O_12
REMARK                            x       y       z     vdW  Elec       q    Type
REMARK                         _______ _______ _______ _____ _____    ______ ____
ROOT
ATOM      1  O   UNL     1      38.206 -24.098 -13.375  0.00  0.00    -0.264 OA
ENDROOT
BRANCH   1   2
ATOM      2  P   UNL     1      37.365 -23.517 -12.121  0.00  0.00    +0.474 P 
ATOM      3  O   UNL     1      37.299 -24.424 -10.926  0.00  0.00    -0.227 OA
BRANCH   2   4
ATOM      4  O   UNL     1      35.936 -23.121 -12.766  0.00  0.00    -0.303 OA
ATOM      5  H   UNL     1      35.577 -22.347 -12.305  0.00  0.00    +0.222 HD
ENDBRANCH   2   4
BRANCH   2   6
ATOM      6  O   UNL     1      38.064 -22.084 -11.853  0.00  0.00    -0.303 OA
ATOM      7  H   UNL     1      38.362 -22.037 -10.931  0.00  0.00    +0.222 HD
ENDBRANCH   2   6
ENDBRANCH   1   2
BRANCH   1   8
ATOM      8  C   UNL     1      38.742 -25.409 -13.279  0.00  0.00    +0.224 C 
ATOM      9  C   UNL     1      40.055 -25.437 -14.042  0.00  0.00    +0.045 C 
BRANCH   8  11
ATOM     10  O   UNL     1      37.758 -26.780 -15.029  0.00  0.00    -0.248 OA
ATOM     11  C   UNL     1      37.742 -26.380 -13.872  0.00  0.00    +0.342 C 
BRANCH  11  12
ATOM     12  O   UNL     1      36.818 -26.785 -12.962  0.00  0.00    -0.479 OA
ATOM     13  H   UNL     1      36.847 -26.455 -12.086  0.00  0.00    +0.295 HD
ENDBRANCH  11  12
ENDBRANCH   8  11
ENDBRANCH   1   8
TORSDOF 6
ENDMDL
MODEL 6
REMARK VINA RESULT:      -5.5      2.753      4.030
REMARK  Name = 444348
REMARK  6 active torsions:
REMARK  status: ('A' for Active; 'I' for Inactive)
REMARK    1  A    between atoms: O_1  and  P_2
REMARK    2  A    between atoms: O_1  and  C_8
REMARK    3  A    between atoms: P_2  and  O_4
REMARK    4  A    between atoms: P_2  and  O_6
REMARK    5  A    between atoms: C_8  and  C_11
REMARK    6  A    between atoms: C_11  and  O_12
REMARK                            x       y       z     vdW  Elec       q    Type
REMARK                         _______ _______ _______ _____ _____    ______ ____
ROOT
ATOM      1  O   UNL     1      38.392 -25.305 -12.643  0.00  0.00    -0.264 OA
ENDROOT
BRANCH   1   2
ATOM      2  P   UNL     1      37.703 -23.995 -11.991  0.00  0.00    +0.474 P 
ATOM      3  O   UNL     1      36.811 -24.265 -10.814  0.00  0.00    -0.227 OA
BRANCH   2   4
ATOM      4  O   UNL     1      36.986 -23.272 -13.248  0.00  0.00    -0.303 OA
ATOM      5  H   UNL     1      37.515 -22.508 -13.525  0.00  0.00    +0.222 HD
ENDBRANCH   2   4
BRANCH   2   6
ATOM      6  O   UNL     1      38.969 -23.038 -11.683  0.00  0.00    -0.303 OA
ATOM      7  H   UNL     1      39.614 -23.520 -11.142  0.00  0.00    +0.222 HD
ENDBRANCH   2   6
ENDBRANCH   1   2
BRANCH   1   8
ATOM      8  C   UNL     1      38.585 -25.338 -14.049  0.00  0.00    +0.224 C 
ATOM      9  C   UNL     1      37.776 -26.496 -14.608  0.00  0.00    +0.045 C 
BRANCH   8  11
ATOM     10  O   UNL     1      40.895 -24.619 -14.279  0.00  0.00    -0.248 OA
ATOM     11  C   UNL     1      40.063 -25.516 -14.326  0.00  0.00    +0.342 C 
BRANCH  11  12
ATOM     12  O   UNL     1      40.380 -26.804 -14.616  0.00  0.00    -0.479 OA
ATOM     13  H   UNL     1      41.193 -27.165 -14.322  0.00  0.00    +0.295 HD
ENDBRANCH  11  12
ENDBRANCH   8  11
ENDBRANCH   1   8
TORSDOF 6
ENDMDL
MODEL 7
REMARK VINA RESULT:      -5.5      3.270      4.800
REMARK  Name = 444348
REMARK  6 active torsions:
REMARK  status: ('A' for Active; 'I' for Inactive)
REMARK    1  A    between atoms: O_1  and  P_2
REMARK    2  A    between atoms: O_1  and  C_8
REMARK    3  A    between atoms: P_2  and  O_4
REMARK    4  A    between atoms: P_2  and  O_6
REMARK    5  A    between atoms: C_8  and  C_11
REMARK    6  A    between atoms: C_11  and  O_12
REMARK                            x       y       z     vdW  Elec       q    Type
REMARK                         _______ _______ _______ _____ _____    ______ ____
ROOT
ATOM      1  O   UNL     1      36.311 -25.479 -12.581  0.00  0.00    -0.264 OA
ENDROOT
BRANCH   1   2
ATOM      2  P   UNL     1      35.952 -24.333 -11.497  0.00  0.00    +0.474 P 
ATOM      3  O   UNL     1      37.097 -23.442 -11.112  0.00  0.00    -0.227 OA
BRANCH   2   4
ATOM      4  O   UNL     1      35.276 -25.154 -10.278  0.00  0.00    -0.303 OA
ATOM      5  H   UNL     1      35.058 -24.542  -9.558  0.00  0.00    +0.222 HD
ENDBRANCH   2   4
BRANCH   2   6
ATOM      6  O   UNL     1      34.697 -23.575 -12.178  0.00  0.00    -0.303 OA
ATOM      7  H   UNL     1      34.585 -23.890 -13.088  0.00  0.00    +0.222 HD
ENDBRANCH   2   6
ENDBRANCH   1   2
BRANCH   1   8
ATOM      8  C   UNL     1      36.904 -25.085 -13.810  0.00  0.00    +0.224 C 
ATOM      9  C   UNL     1      36.095 -25.698 -14.939  0.00  0.00    +0.045 C 
BRANCH   8  11
ATOM     10  O   UNL     1      38.718 -26.593 -14.393  0.00  0.00    -0.248 OA
ATOM     11  C   UNL     1      38.336 -25.576 -13.829  0.00  0.00    +0.342 C 
BRANCH  11  12
ATOM     12  O   UNL     1      39.175 -24.742 -13.161  0.00  0.00    -0.479 OA
ATOM     13  H   UNL     1      39.922 -25.088 -12.714  0.00  0.00    +0.295 HD
ENDBRANCH  11  12
ENDBRANCH   8  11
ENDBRANCH   1   8
TORSDOF 6
ENDMDL
MODEL 8
REMARK VINA RESULT:      -5.4      2.004      4.116
REMARK  Name = 444348
REMARK  6 active torsions:
REMARK  status: ('A' for Active; 'I' for Inactive)
REMARK    1  A    between atoms: O_1  and  P_2
REMARK    2  A    between atoms: O_1  and  C_8
REMARK    3  A    between atoms: P_2  and  O_4
REMARK    4  A    between atoms: P_2  and  O_6
REMARK    5  A    between atoms: C_8  and  C_11
REMARK    6  A    between atoms: C_11  and  O_12
REMARK                            x       y       z     vdW  Elec       q    Type
REMARK                         _______ _______ _______ _____ _____    ______ ____
ROOT
ATOM      1  O   UNL     1      37.658 -24.708 -14.782  0.00  0.00    -0.264 OA
ENDROOT
BRANCH   1   2
ATOM      2  P   UNL     1      36.112 -25.114 -15.031  0.00  0.00    +0.474 P 
ATOM      3  O   UNL     1      35.381 -24.254 -16.021  0.00  0.00    -0.227 OA
BRANCH   2   4
ATOM      4  O   UNL     1      35.478 -25.145 -13.543  0.00  0.00    -0.303 OA
ATOM      5  H   UNL     1      34.511 -25.104 -13.603  0.00  0.00    +0.222 HD
ENDBRANCH   2   4
BRANCH   2   6
ATOM      6  O   UNL     1      36.211 -26.678 -15.428  0.00  0.00    -0.303 OA
ATOM      7  H   UNL     1      35.947 -27.221 -14.669  0.00  0.00    +0.222 HD
ENDBRANCH   2   6
ENDBRANCH   1   2
BRANCH   1   8
ATOM      8  C   UNL     1      38.563 -25.719 -14.364  0.00  0.00    +0.224 C 
ATOM      9  C   UNL     1      38.526 -25.784 -12.847  0.00  0.00    +0.045 C 
BRANCH   8  11
ATOM     10  O   UNL     1      40.769 -24.708 -14.237  0.00  0.00    -0.248 OA
ATOM     11  C   UNL     1      39.946 -25.360 -14.865  0.00  0.00    +0.342 C 
BRANCH  11  12
ATOM     12  O   UNL     1      40.192 -25.867 -16.102  0.00  0.00    -0.479 OA
ATOM     13  H   UNL     1      39.775 -25.493 -16.853  0.00  0.00    +0.295 HD
ENDBRANCH  11  12
ENDBRANCH   8  11
ENDBRANCH   1   8
TORSDOF 6
ENDMDL
MODEL 9
REMARK VINA RESULT:      -5.3      2.515      3.462
REMARK  Name = 444348
REMARK  6 active torsions:
REMARK  status: ('A' for Active; 'I' for Inactive)
REMARK    1  A    between atoms: O_1  and  P_2
REMARK    2  A    between atoms: O_1  and  C_8
REMARK    3  A    between atoms: P_2  and  O_4
REMARK    4  A    between atoms: P_2  and  O_6
REMARK    5  A    between atoms: C_8  and  C_11
REMARK    6  A    between atoms: C_11  and  O_12
REMARK                            x       y       z     vdW  Elec       q    Type
REMARK                         _______ _______ _______ _____ _____    ______ ____
ROOT
ATOM      1  O   UNL     1      38.690 -24.037 -14.075  0.00  0.00    -0.264 OA
ENDROOT
BRANCH   1   2
ATOM      2  P   UNL     1      39.429 -25.427 -14.448  0.00  0.00    +0.474 P 
ATOM      3  O   UNL     1      40.868 -25.293 -14.854  0.00  0.00    -0.227 OA
BRANCH   2   4
ATOM      4  O   UNL     1      38.458 -26.093 -15.558  0.00  0.00    -0.303 OA
ATOM      5  H   UNL     1      37.568 -26.201 -15.185  0.00  0.00    +0.222 HD
ENDBRANCH   2   4
BRANCH   2   6
ATOM      6  O   UNL     1      39.172 -26.335 -13.135  0.00  0.00    -0.303 OA
ATOM      7  H   UNL     1      39.086 -25.761 -12.358  0.00  0.00    +0.222 HD
ENDBRANCH   2   6
ENDBRANCH   1   2
BRANCH   1   8
ATOM      8  C   UNL     1      37.418 -24.097 -13.445  0.00  0.00    +0.224 C 
ATOM      9  C   UNL     1      36.494 -23.128 -14.162  0.00  0.00    +0.045 C 
BRANCH   8  11
ATOM     10  O   UNL     1      37.815 -24.510 -11.083  0.00  0.00    -0.248 OA
ATOM     11  C   UNL     1      37.588 -23.718 -11.988  0.00  0.00    +0.342 C 
BRANCH  11  12
ATOM     12  O   UNL     1      37.480 -22.379 -11.790  0.00  0.00    -0.479 OA
ATOM     13  H   UNL     1      36.660 -22.008 -11.529  0.00  0.00    +0.295 HD
ENDBRANCH  11  12
ENDBRANCH   8  11
ENDBRANCH   1   8
TORSDOF 6
ENDMDL
