MODEL 1
REMARK VINA RESULT:      -9.6      0.000      0.000
REMARK  Name = 6917655
REMARK  12 active torsions:
REMARK  status: ('A' for Active; 'I' for Inactive)
REMARK    1  A    between atoms: C_2  and  C_10
REMARK    2  A    between atoms: C_4  and  O_18
REMARK    3  A    between atoms: C_7  and  O_20
REMARK    4  A    between atoms: C_11  and  C_13
REMARK    5  A    between atoms: C_13  and  C_14
REMARK    6  A    between atoms: O_20  and  C_22
REMARK    7  A    between atoms: C_22  and  C_23
REMARK    8  A    between atoms: C_24  and  C_25
REMARK    9  A    between atoms: C_26  and  C_27
REMARK   10  A    between atoms: C_28  and  C_29
REMARK   11  A    between atoms: C_30  and  C_32
REMARK   12  A    between atoms: C_32  and  O_33
REMARK                            x       y       z     vdW  Elec       q    Type
REMARK                         _______ _______ _______ _____ _____    ______ ____
ROOT
ATOM      1  O   UNL     1      32.502 -13.972 -20.233  0.00  0.00    -0.353 OA
ATOM      2  C   UNL     1      33.097 -14.916 -22.469  0.00  0.00    +0.085 C 
ATOM      3  C   UNL     1      33.300 -14.916 -20.964  0.00  0.00    +0.125 C 
ATOM      4  C   UNL     1      34.277 -15.648 -23.164  0.00  0.00    +0.160 C 
ATOM      5  C   UNL     1      32.165 -15.351 -20.058  0.00  0.00    +0.169 C 
ATOM      6  C   UNL     1      34.713 -15.029 -20.480  0.00  0.00    +0.034 C 
ATOM      7  C   UNL     1      34.841 -16.804 -22.325  0.00  0.00    +0.196 C 
ATOM      8  C   UNL     1      35.337 -16.348 -20.945  0.00  0.00    +0.049 C 
ENDROOT
BRANCH   2  10
ATOM      9  O   UNL     1      31.770 -13.307 -23.805  0.00  0.00    -0.356 OA
ATOM     10  C   UNL     1      32.954 -13.516 -23.024  0.00  0.00    +0.122 C 
ATOM     11  C   UNL     1      31.863 -12.591 -22.567  0.00  0.00    +0.144 C 
ATOM     12  C   UNL     1      34.186 -12.966 -23.639  0.00  0.00    +0.032 C 
BRANCH  11  13
ATOM     13  C   UNL     1      31.976 -11.123 -22.734  0.00  0.00    +0.057 C 
BRANCH  13  14
ATOM     14  C   UNL     1      31.856 -10.326 -21.456  0.00  0.00    -0.032 C 
ATOM     15  C   UNL     1      32.271  -9.065 -21.230  0.00  0.00    -0.048 C 
ATOM     16  C   UNL     1      32.931  -8.270 -22.325  0.00  0.00    +0.026 C 
ATOM     17  C   UNL     1      32.120  -8.329 -19.929  0.00  0.00    +0.026 C 
ENDBRANCH  13  14
ENDBRANCH  11  13
ENDBRANCH   2  10
BRANCH   4  18
ATOM     18  O   UNL     1      33.848 -16.183 -24.416  0.00  0.00    -0.350 OA
ATOM     19  C   UNL     1      34.953 -16.615 -25.192  0.00  0.00    +0.174 C 
ENDBRANCH   4  18
BRANCH   7  20
ATOM     20  O   UNL     1      33.845 -17.818 -22.158  0.00  0.00    -0.447 OA
BRANCH  20  22
ATOM     21  O   UNL     1      34.615 -19.538 -23.496  0.00  0.00    -0.245 OA
ATOM     22  C   UNL     1      34.256 -19.088 -22.419  0.00  0.00    +0.341 C 
BRANCH  22  23
ATOM     23  C   UNL     1      34.195 -19.848 -21.151  0.00  0.00    +0.082 C 
ATOM     24  C   UNL     1      33.011 -20.254 -20.673  0.00  0.00    +0.007 C 
BRANCH  24  25
ATOM     25  C   UNL     1      32.880 -21.001 -19.440  0.00  0.00    +0.000 C 
ATOM     26  C   UNL     1      33.632 -22.073 -19.152  0.00  0.00    +0.000 C 
BRANCH  26  27
ATOM     27  C   UNL     1      33.521 -22.870 -17.949  0.00  0.00    +0.000 C 
ATOM     28  C   UNL     1      32.436 -22.936 -17.162  0.00  0.00    +0.000 C 
BRANCH  28  29
ATOM     29  C   UNL     1      32.387 -23.727 -15.951  0.00  0.00    +0.007 C 
ATOM     30  C   UNL     1      31.484 -23.512 -14.984  0.00  0.00    +0.082 C 
BRANCH  30  32
ATOM     31  O   UNL     1      30.761 -23.944 -12.765  0.00  0.00    -0.245 OA
ATOM     32  C   UNL     1      31.410 -24.302 -13.737  0.00  0.00    +0.338 C 
BRANCH  32  33
ATOM     33  O   UNL     1      32.128 -25.444 -13.793  0.00  0.00    -0.477 OA
ATOM     34  H   UNL     1      31.753 -26.216 -14.169  0.00  0.00    +0.295 HD
ENDBRANCH  32  33
ENDBRANCH  30  32
ENDBRANCH  28  29
ENDBRANCH  26  27
ENDBRANCH  24  25
ENDBRANCH  22  23
ENDBRANCH  20  22
ENDBRANCH   7  20
TORSDOF 12
ENDMDL
MODEL 2
REMARK VINA RESULT:      -9.5      1.147      1.598
REMARK  Name = 6917655
REMARK  12 active torsions:
REMARK  status: ('A' for Active; 'I' for Inactive)
REMARK    1  A    between atoms: C_2  and  C_10
REMARK    2  A    between atoms: C_4  and  O_18
REMARK    3  A    between atoms: C_7  and  O_20
REMARK    4  A    between atoms: C_11  and  C_13
REMARK    5  A    between atoms: C_13  and  C_14
REMARK    6  A    between atoms: O_20  and  C_22
REMARK    7  A    between atoms: C_22  and  C_23
REMARK    8  A    between atoms: C_24  and  C_25
REMARK    9  A    between atoms: C_26  and  C_27
REMARK   10  A    between atoms: C_28  and  C_29
REMARK   11  A    between atoms: C_30  and  C_32
REMARK   12  A    between atoms: C_32  and  O_33
REMARK                            x       y       z     vdW  Elec       q    Type
REMARK                         _______ _______ _______ _____ _____    ______ ____
ROOT
ATOM      1  O   UNL     1      32.403 -14.135 -20.277  0.00  0.00    -0.353 OA
ATOM      2  C   UNL     1      33.099 -14.920 -22.546  0.00  0.00    +0.085 C 
ATOM      3  C   UNL     1      33.214 -15.045 -21.036  0.00  0.00    +0.125 C 
ATOM      4  C   UNL     1      34.295 -15.634 -23.231  0.00  0.00    +0.160 C 
ATOM      5  C   UNL     1      32.016 -15.512 -20.233  0.00  0.00    +0.169 C 
ATOM      6  C   UNL     1      34.593 -15.244 -20.486  0.00  0.00    +0.034 C 
ATOM      7  C   UNL     1      34.775 -16.871 -22.459  0.00  0.00    +0.196 C 
ATOM      8  C   UNL     1      35.203 -16.543 -21.021  0.00  0.00    +0.049 C 
ENDROOT
BRANCH   2  10
ATOM      9  O   UNL     1      34.225 -12.723 -22.747  0.00  0.00    -0.356 OA
ATOM     10  C   UNL     1      33.029 -13.475 -22.993  0.00  0.00    +0.122 C 
ATOM     11  C   UNL     1      33.875 -12.954 -24.118  0.00  0.00    +0.144 C 
ATOM     12  C   UNL     1      31.783 -12.769 -22.610  0.00  0.00    +0.032 C 
BRANCH  11  13
ATOM     13  C   UNL     1      33.505 -11.723 -24.855  0.00  0.00    +0.057 C 
BRANCH  13  14
ATOM     14  C   UNL     1      34.345 -10.510 -24.529  0.00  0.00    -0.032 C 
ATOM     15  C   UNL     1      33.953  -9.376 -23.919  0.00  0.00    -0.048 C 
ATOM     16  C   UNL     1      32.529  -9.209 -23.458  0.00  0.00    +0.026 C 
ATOM     17  C   UNL     1      34.844  -8.203 -23.624  0.00  0.00    +0.026 C 
ENDBRANCH  13  14
ENDBRANCH  11  13
ENDBRANCH   2  10
BRANCH   4  18
ATOM     18  O   UNL     1      33.924 -16.053 -24.544  0.00  0.00    -0.350 OA
ATOM     19  C   UNL     1      34.948 -16.830 -25.141  0.00  0.00    +0.174 C 
ENDBRANCH   4  18
BRANCH   7  20
ATOM     20  O   UNL     1      33.742 -17.861 -22.429  0.00  0.00    -0.447 OA
BRANCH  20  22
ATOM     21  O   UNL     1      34.977 -19.739 -22.964  0.00  0.00    -0.245 OA
ATOM     22  C   UNL     1      34.166 -19.143 -22.272  0.00  0.00    +0.341 C 
BRANCH  22  23
ATOM     23  C   UNL     1      33.466 -19.705 -21.096  0.00  0.00    +0.082 C 
ATOM     24  C   UNL     1      33.965 -20.783 -20.476  0.00  0.00    +0.007 C 
BRANCH  24  25
ATOM     25  C   UNL     1      33.334 -21.382 -19.320  0.00  0.00    +0.000 C 
ATOM     26  C   UNL     1      33.832 -22.456 -18.690  0.00  0.00    +0.000 C 
BRANCH  26  27
ATOM     27  C   UNL     1      33.227 -23.111 -17.550  0.00  0.00    +0.000 C 
ATOM     28  C   UNL     1      32.052 -22.769 -16.997  0.00  0.00    +0.000 C 
BRANCH  28  29
ATOM     29  C   UNL     1      31.504 -23.438 -15.836  0.00  0.00    +0.007 C 
ATOM     30  C   UNL     1      32.252 -23.771 -14.774  0.00  0.00    +0.082 C 
BRANCH  30  32
ATOM     31  O   UNL     1      30.603 -24.241 -13.133  0.00  0.00    -0.245 OA
ATOM     32  C   UNL     1      31.722 -24.453 -13.575  0.00  0.00    +0.338 C 
BRANCH  32  33
ATOM     33  O   UNL     1      32.601 -25.324 -13.033  0.00  0.00    -0.477 OA
ATOM     34  H   UNL     1      33.096 -25.895 -13.585  0.00  0.00    +0.295 HD
ENDBRANCH  32  33
ENDBRANCH  30  32
ENDBRANCH  28  29
ENDBRANCH  26  27
ENDBRANCH  24  25
ENDBRANCH  22  23
ENDBRANCH  20  22
ENDBRANCH   7  20
TORSDOF 12
ENDMDL
MODEL 3
REMARK VINA RESULT:      -9.3      4.688     11.785
REMARK  Name = 6917655
REMARK  12 active torsions:
REMARK  status: ('A' for Active; 'I' for Inactive)
REMARK    1  A    between atoms: C_2  and  C_10
REMARK    2  A    between atoms: C_4  and  O_18
REMARK    3  A    between atoms: C_7  and  O_20
REMARK    4  A    between atoms: C_11  and  C_13
REMARK    5  A    between atoms: C_13  and  C_14
REMARK    6  A    between atoms: O_20  and  C_22
REMARK    7  A    between atoms: C_22  and  C_23
REMARK    8  A    between atoms: C_24  and  C_25
REMARK    9  A    between atoms: C_26  and  C_27
REMARK   10  A    between atoms: C_28  and  C_29
REMARK   11  A    between atoms: C_30  and  C_32
REMARK   12  A    between atoms: C_32  and  O_33
REMARK                            x       y       z     vdW  Elec       q    Type
REMARK                         _______ _______ _______ _____ _____    ______ ____
ROOT
ATOM      1  O   UNL     1      32.976 -23.643 -16.669  0.00  0.00    -0.353 OA
ATOM      2  C   UNL     1      33.677 -23.531 -14.273  0.00  0.00    +0.085 C 
ATOM      3  C   UNL     1      34.007 -23.911 -15.706  0.00  0.00    +0.125 C 
ATOM      4  C   UNL     1      34.659 -24.235 -13.298  0.00  0.00    +0.160 C 
ATOM      5  C   UNL     1      34.145 -22.824 -16.753  0.00  0.00    +0.169 C 
ATOM      6  C   UNL     1      34.707 -25.220 -15.906  0.00  0.00    +0.034 C 
ATOM      7  C   UNL     1      36.066 -24.411 -13.888  0.00  0.00    +0.196 C 
ATOM      8  C   UNL     1      36.064 -25.218 -15.195  0.00  0.00    +0.049 C 
ENDROOT
BRANCH   2  10
ATOM      9  O   UNL     1      31.679 -23.028 -12.897  0.00  0.00    -0.356 OA
ATOM     10  C   UNL     1      32.248 -23.871 -13.908  0.00  0.00    +0.122 C 
ATOM     11  C   UNL     1      31.112 -22.939 -14.211  0.00  0.00    +0.144 C 
ATOM     12  C   UNL     1      31.991 -25.317 -13.703  0.00  0.00    +0.032 C 
BRANCH  11  13
ATOM     13  C   UNL     1      29.714 -23.427 -14.291  0.00  0.00    +0.057 C 
BRANCH  13  14
ATOM     14  C   UNL     1      28.800 -22.599 -15.162  0.00  0.00    -0.032 C 
ATOM     15  C   UNL     1      28.184 -22.973 -16.300  0.00  0.00    -0.048 C 
ATOM     16  C   UNL     1      28.356 -24.369 -16.838  0.00  0.00    +0.026 C 
ATOM     17  C   UNL     1      27.284 -22.095 -17.121  0.00  0.00    +0.026 C 
ENDBRANCH  13  14
ENDBRANCH  11  13
ENDBRANCH   2  10
BRANCH   4  18
ATOM     18  O   UNL     1      34.780 -23.475 -12.096  0.00  0.00    -0.350 OA
ATOM     19  C   UNL     1      35.612 -24.133 -11.156  0.00  0.00    +0.174 C 
ENDBRANCH   4  18
BRANCH   7  20
ATOM     20  O   UNL     1      36.660 -23.130 -14.126  0.00  0.00    -0.447 OA
BRANCH  20  22
ATOM     21  O   UNL     1      38.604 -23.864 -15.137  0.00  0.00    -0.245 OA
ATOM     22  C   UNL     1      37.647 -23.109 -15.061  0.00  0.00    +0.341 C 
BRANCH  22  23
ATOM     23  C   UNL     1      37.358 -21.995 -15.991  0.00  0.00    +0.082 C 
ATOM     24  C   UNL     1      37.182 -22.245 -17.295  0.00  0.00    +0.007 C 
BRANCH  24  25
ATOM     25  C   UNL     1      36.896 -21.204 -18.259  0.00  0.00    +0.000 C 
ATOM     26  C   UNL     1      36.196 -21.422 -19.383  0.00  0.00    +0.000 C 
BRANCH  26  27
ATOM     27  C   UNL     1      35.907 -20.424 -20.391  0.00  0.00    +0.000 C 
ATOM     28  C   UNL     1      34.678 -20.017 -20.745  0.00  0.00    +0.000 C 
BRANCH  28  29
ATOM     29  C   UNL     1      34.442 -19.036 -21.783  0.00  0.00    +0.007 C 
ATOM     30  C   UNL     1      35.267 -18.877 -22.828  0.00  0.00    +0.082 C 
BRANCH  30  32
ATOM     31  O   UNL     1      34.451 -18.146 -24.933  0.00  0.00    -0.245 OA
ATOM     32  C   UNL     1      35.053 -17.886 -23.902  0.00  0.00    +0.338 C 
BRANCH  32  33
ATOM     33  O   UNL     1      35.591 -16.679 -23.621  0.00  0.00    -0.477 OA
ATOM     34  H   UNL     1      35.448 -16.287 -22.783  0.00  0.00    +0.295 HD
ENDBRANCH  32  33
ENDBRANCH  30  32
ENDBRANCH  28  29
ENDBRANCH  26  27
ENDBRANCH  24  25
ENDBRANCH  22  23
ENDBRANCH  20  22
ENDBRANCH   7  20
TORSDOF 12
ENDMDL
MODEL 4
REMARK VINA RESULT:      -9.1      3.459     12.001
REMARK  Name = 6917655
REMARK  12 active torsions:
REMARK  status: ('A' for Active; 'I' for Inactive)
REMARK    1  A    between atoms: C_2  and  C_10
REMARK    2  A    between atoms: C_4  and  O_18
REMARK    3  A    between atoms: C_7  and  O_20
REMARK    4  A    between atoms: C_11  and  C_13
REMARK    5  A    between atoms: C_13  and  C_14
REMARK    6  A    between atoms: O_20  and  C_22
REMARK    7  A    between atoms: C_22  and  C_23
REMARK    8  A    between atoms: C_24  and  C_25
REMARK    9  A    between atoms: C_26  and  C_27
REMARK   10  A    between atoms: C_28  and  C_29
REMARK   11  A    between atoms: C_30  and  C_32
REMARK   12  A    between atoms: C_32  and  O_33
REMARK                            x       y       z     vdW  Elec       q    Type
REMARK                         _______ _______ _______ _____ _____    ______ ____
ROOT
ATOM      1  O   UNL     1      34.912 -15.471 -19.917  0.00  0.00    -0.353 OA
ATOM      2  C   UNL     1      34.836 -15.974 -22.364  0.00  0.00    +0.085 C 
ATOM      3  C   UNL     1      34.292 -15.190 -21.182  0.00  0.00    +0.125 C 
ATOM      4  C   UNL     1      33.839 -15.903 -23.552  0.00  0.00    +0.160 C 
ATOM      5  C   UNL     1      35.184 -14.184 -20.481  0.00  0.00    +0.169 C 
ATOM      6  C   UNL     1      32.805 -15.029 -21.114  0.00  0.00    +0.034 C 
ATOM      7  C   UNL     1      33.084 -14.567 -23.620  0.00  0.00    +0.196 C 
ATOM      8  C   UNL     1      32.290 -14.269 -22.340  0.00  0.00    +0.049 C 
ENDROOT
BRANCH   2  10
ATOM      9  O   UNL     1      34.991 -17.717 -20.611  0.00  0.00    -0.356 OA
ATOM     10  C   UNL     1      35.118 -17.418 -22.008  0.00  0.00    +0.122 C 
ATOM     11  C   UNL     1      34.043 -18.330 -21.495  0.00  0.00    +0.144 C 
ATOM     12  C   UNL     1      36.336 -17.982 -22.637  0.00  0.00    +0.032 C 
BRANCH  11  13
ATOM     13  C   UNL     1      34.175 -19.804 -21.582  0.00  0.00    +0.057 C 
BRANCH  13  14
ATOM     14  C   UNL     1      33.472 -20.571 -20.487  0.00  0.00    -0.032 C 
ATOM     15  C   UNL     1      34.018 -21.414 -19.590  0.00  0.00    -0.048 C 
ATOM     16  C   UNL     1      35.501 -21.675 -19.590  0.00  0.00    +0.026 C 
ATOM     17  C   UNL     1      33.257 -22.148 -18.523  0.00  0.00    +0.026 C 
ENDBRANCH  13  14
ENDBRANCH  11  13
ENDBRANCH   2  10
BRANCH   4  18
ATOM     18  O   UNL     1      34.538 -16.075 -24.785  0.00  0.00    -0.350 OA
ATOM     19  C   UNL     1      34.084 -17.229 -25.472  0.00  0.00    +0.174 C 
ENDBRANCH   4  18
BRANCH   7  20
ATOM     20  O   UNL     1      34.003 -13.498 -23.865  0.00  0.00    -0.447 OA
BRANCH  20  22
ATOM     21  O   UNL     1      33.465 -13.112 -26.079  0.00  0.00    -0.245 OA
ATOM     22  C   UNL     1      33.726 -12.726 -24.950  0.00  0.00    +0.341 C 
BRANCH  22  23
ATOM     23  C   UNL     1      33.793 -11.312 -24.522  0.00  0.00    +0.082 C 
ATOM     24  C   UNL     1      32.996 -10.875 -23.537  0.00  0.00    +0.007 C 
BRANCH  24  25
ATOM     25  C   UNL     1      33.010  -9.506 -23.068  0.00  0.00    +0.000 C 
ATOM     26  C   UNL     1      31.930  -8.712 -23.100  0.00  0.00    +0.000 C 
BRANCH  26  27
ATOM     27  C   UNL     1      31.897  -7.330 -22.671  0.00  0.00    +0.000 C 
ATOM     28  C   UNL     1      30.948  -6.440 -23.001  0.00  0.00    +0.000 C 
BRANCH  28  29
ATOM     29  C   UNL     1      30.979  -5.059 -22.569  0.00  0.00    +0.007 C 
ATOM     30  C   UNL     1      31.181  -4.041 -23.417  0.00  0.00    +0.082 C 
BRANCH  30  32
ATOM     31  O   UNL     1      32.137  -1.873 -23.298  0.00  0.00    -0.245 OA
ATOM     32  C   UNL     1      31.217  -2.622 -23.007  0.00  0.00    +0.338 C 
BRANCH  32  33
ATOM     33  O   UNL     1      30.136  -2.254 -22.285  0.00  0.00    -0.477 OA
ATOM     34  H   UNL     1      29.491  -2.891 -22.051  0.00  0.00    +0.295 HD
ENDBRANCH  32  33
ENDBRANCH  30  32
ENDBRANCH  28  29
ENDBRANCH  26  27
ENDBRANCH  24  25
ENDBRANCH  22  23
ENDBRANCH  20  22
ENDBRANCH   7  20
TORSDOF 12
ENDMDL
MODEL 5
REMARK VINA RESULT:      -8.9      1.764      1.987
REMARK  Name = 6917655
REMARK  12 active torsions:
REMARK  status: ('A' for Active; 'I' for Inactive)
REMARK    1  A    between atoms: C_2  and  C_10
REMARK    2  A    between atoms: C_4  and  O_18
REMARK    3  A    between atoms: C_7  and  O_20
REMARK    4  A    between atoms: C_11  and  C_13
REMARK    5  A    between atoms: C_13  and  C_14
REMARK    6  A    between atoms: O_20  and  C_22
REMARK    7  A    between atoms: C_22  and  C_23
REMARK    8  A    between atoms: C_24  and  C_25
REMARK    9  A    between atoms: C_26  and  C_27
REMARK   10  A    between atoms: C_28  and  C_29
REMARK   11  A    between atoms: C_30  and  C_32
REMARK   12  A    between atoms: C_32  and  O_33
REMARK                            x       y       z     vdW  Elec       q    Type
REMARK                         _______ _______ _______ _____ _____    ______ ____
ROOT
ATOM      1  O   UNL     1      32.510 -14.086 -20.174  0.00  0.00    -0.353 OA
ATOM      2  C   UNL     1      33.106 -15.065 -22.394  0.00  0.00    +0.085 C 
ATOM      3  C   UNL     1      33.304 -15.046 -20.888  0.00  0.00    +0.125 C 
ATOM      4  C   UNL     1      34.284 -15.814 -23.074  0.00  0.00    +0.160 C 
ATOM      5  C   UNL     1      32.163 -15.461 -19.981  0.00  0.00    +0.169 C 
ATOM      6  C   UNL     1      34.714 -15.161 -20.398  0.00  0.00    +0.034 C 
ATOM      7  C   UNL     1      34.837 -16.963 -22.218  0.00  0.00    +0.196 C 
ATOM      8  C   UNL     1      35.331 -16.491 -20.842  0.00  0.00    +0.049 C 
ENDROOT
BRANCH   2  10
ATOM      9  O   UNL     1      31.807 -13.473 -23.777  0.00  0.00    -0.356 OA
ATOM     10  C   UNL     1      32.975 -13.671 -22.969  0.00  0.00    +0.122 C 
ATOM     11  C   UNL     1      31.875 -12.742 -22.545  0.00  0.00    +0.144 C 
ATOM     12  C   UNL     1      34.220 -13.129 -23.565  0.00  0.00    +0.032 C 
BRANCH  11  13
ATOM     13  C   UNL     1      31.991 -11.276 -22.728  0.00  0.00    +0.057 C 
BRANCH  13  14
ATOM     14  C   UNL     1      31.893 -10.466 -21.456  0.00  0.00    -0.032 C 
ATOM     15  C   UNL     1      32.320  -9.206 -21.247  0.00  0.00    -0.048 C 
ATOM     16  C   UNL     1      32.972  -8.426 -22.357  0.00  0.00    +0.026 C 
ATOM     17  C   UNL     1      32.190  -8.457 -19.952  0.00  0.00    +0.026 C 
ENDBRANCH  13  14
ENDBRANCH  11  13
ENDBRANCH   2  10
BRANCH   4  18
ATOM     18  O   UNL     1      33.856 -16.364 -24.321  0.00  0.00    -0.350 OA
ATOM     19  C   UNL     1      34.937 -16.468 -25.231  0.00  0.00    +0.174 C 
ENDBRANCH   4  18
BRANCH   7  20
ATOM     20  O   UNL     1      33.834 -17.968 -22.040  0.00  0.00    -0.447 OA
BRANCH  20  22
ATOM     21  O   UNL     1      34.540 -19.771 -23.301  0.00  0.00    -0.245 OA
ATOM     22  C   UNL     1      34.248 -19.248 -22.236  0.00  0.00    +0.341 C 
BRANCH  22  23
ATOM     23  C   UNL     1      34.289 -19.913 -20.915  0.00  0.00    +0.082 C 
ATOM     24  C   UNL     1      35.387 -20.582 -20.540  0.00  0.00    +0.007 C 
BRANCH  24  25
ATOM     25  C   UNL     1      35.496 -21.254 -19.262  0.00  0.00    +0.000 C 
ATOM     26  C   UNL     1      36.636 -21.304 -18.558  0.00  0.00    +0.000 C 
BRANCH  26  27
ATOM     27  C   UNL     1      36.804 -21.985 -17.292  0.00  0.00    +0.000 C 
ATOM     28  C   UNL     1      35.807 -22.342 -16.467  0.00  0.00    +0.000 C 
BRANCH  28  29
ATOM     29  C   UNL     1      36.033 -22.996 -15.195  0.00  0.00    +0.007 C 
ATOM     30  C   UNL     1      35.030 -23.449 -14.429  0.00  0.00    +0.082 C 
BRANCH  30  32
ATOM     31  O   UNL     1      35.975 -25.076 -12.982  0.00  0.00    -0.245 OA
ATOM     32  C   UNL     1      35.228 -24.120 -13.127  0.00  0.00    +0.338 C 
BRANCH  32  33
ATOM     33  O   UNL     1      34.501 -23.565 -12.133  0.00  0.00    -0.477 OA
ATOM     34  H   UNL     1      33.706 -23.112 -12.330  0.00  0.00    +0.295 HD
ENDBRANCH  32  33
ENDBRANCH  30  32
ENDBRANCH  28  29
ENDBRANCH  26  27
ENDBRANCH  24  25
ENDBRANCH  22  23
ENDBRANCH  20  22
ENDBRANCH   7  20
TORSDOF 12
ENDMDL
MODEL 6
REMARK VINA RESULT:      -8.4      2.875      4.494
REMARK  Name = 6917655
REMARK  12 active torsions:
REMARK  status: ('A' for Active; 'I' for Inactive)
REMARK    1  A    between atoms: C_2  and  C_10
REMARK    2  A    between atoms: C_4  and  O_18
REMARK    3  A    between atoms: C_7  and  O_20
REMARK    4  A    between atoms: C_11  and  C_13
REMARK    5  A    between atoms: C_13  and  C_14
REMARK    6  A    between atoms: O_20  and  C_22
REMARK    7  A    between atoms: C_22  and  C_23
REMARK    8  A    between atoms: C_24  and  C_25
REMARK    9  A    between atoms: C_26  and  C_27
REMARK   10  A    between atoms: C_28  and  C_29
REMARK   11  A    between atoms: C_30  and  C_32
REMARK   12  A    between atoms: C_32  and  O_33
REMARK                            x       y       z     vdW  Elec       q    Type
REMARK                         _______ _______ _______ _____ _____    ______ ____
ROOT
ATOM      1  O   UNL     1      33.381 -10.710 -24.626  0.00  0.00    -0.353 OA
ATOM      2  C   UNL     1      32.957 -12.013 -22.536  0.00  0.00    +0.085 C 
ATOM      3  C   UNL     1      33.220 -12.008 -24.033  0.00  0.00    +0.125 C 
ATOM      4  C   UNL     1      32.395 -13.394 -22.102  0.00  0.00    +0.160 C 
ATOM      5  C   UNL     1      34.558 -11.520 -24.553  0.00  0.00    +0.169 C 
ATOM      6  C   UNL     1      32.414 -12.963 -24.857  0.00  0.00    +0.034 C 
ATOM      7  C   UNL     1      32.964 -14.558 -22.926  0.00  0.00    +0.196 C 
ATOM      8  C   UNL     1      32.691 -14.408 -24.431  0.00  0.00    +0.049 C 
ENDROOT
BRANCH   2  10
ATOM      9  O   UNL     1      32.410 -10.193 -20.948  0.00  0.00    -0.356 OA
ATOM     10  C   UNL     1      32.006 -10.911 -22.122  0.00  0.00    +0.122 C 
ATOM     11  C   UNL     1      32.399  -9.464 -22.183  0.00  0.00    +0.144 C 
ATOM     12  C   UNL     1      30.574 -11.294 -22.133  0.00  0.00    +0.032 C 
BRANCH  11  13
ATOM     13  C   UNL     1      31.380  -8.389 -22.232  0.00  0.00    +0.057 C 
BRANCH  13  14
ATOM     14  C   UNL     1      31.488  -7.463 -23.421  0.00  0.00    -0.032 C 
ATOM     15  C   UNL     1      31.258  -6.137 -23.456  0.00  0.00    -0.048 C 
ATOM     16  C   UNL     1      30.855  -5.398 -22.207  0.00  0.00    +0.026 C 
ATOM     17  C   UNL     1      31.385  -5.273 -24.678  0.00  0.00    +0.026 C 
ENDBRANCH  13  14
ENDBRANCH  11  13
ENDBRANCH   2  10
BRANCH   4  18
ATOM     18  O   UNL     1      32.706 -13.635 -20.730  0.00  0.00    -0.350 OA
ATOM     19  C   UNL     1      32.329 -14.946 -20.343  0.00  0.00    +0.174 C 
ENDBRANCH   4  18
BRANCH   7  20
ATOM     20  O   UNL     1      34.375 -14.666 -22.711  0.00  0.00    -0.447 OA
BRANCH  20  22
ATOM     21  O   UNL     1      35.308 -16.080 -24.283  0.00  0.00    -0.245 OA
ATOM     22  C   UNL     1      34.945 -15.822 -23.146  0.00  0.00    +0.341 C 
BRANCH  22  23
ATOM     23  C   UNL     1      35.056 -16.730 -21.983  0.00  0.00    +0.082 C 
ATOM     24  C   UNL     1      35.747 -17.873 -22.095  0.00  0.00    +0.007 C 
BRANCH  24  25
ATOM     25  C   UNL     1      35.897 -18.806 -20.999  0.00  0.00    +0.000 C 
ATOM     26  C   UNL     1      35.302 -20.008 -20.976  0.00  0.00    +0.000 C 
BRANCH  26  27
ATOM     27  C   UNL     1      35.396 -20.965 -19.894  0.00  0.00    +0.000 C 
ATOM     28  C   UNL     1      36.403 -21.034 -19.009  0.00  0.00    +0.000 C 
BRANCH  28  29
ATOM     29  C   UNL     1      36.464 -22.032 -17.962  0.00  0.00    +0.007 C 
ATOM     30  C   UNL     1      37.188 -21.865 -16.847  0.00  0.00    +0.082 C 
BRANCH  30  32
ATOM     31  O   UNL     1      36.364 -23.051 -14.964  0.00  0.00    -0.245 OA
ATOM     32  C   UNL     1      37.271 -22.864 -15.761  0.00  0.00    +0.338 C 
BRANCH  32  33
ATOM     33  O   UNL     1      38.443 -23.536 -15.751  0.00  0.00    -0.477 OA
ATOM     34  H   UNL     1      38.448 -24.468 -15.668  0.00  0.00    +0.295 HD
ENDBRANCH  32  33
ENDBRANCH  30  32
ENDBRANCH  28  29
ENDBRANCH  26  27
ENDBRANCH  24  25
ENDBRANCH  22  23
ENDBRANCH  20  22
ENDBRANCH   7  20
TORSDOF 12
ENDMDL
MODEL 7
REMARK VINA RESULT:      -8.4      3.088      5.060
REMARK  Name = 6917655
REMARK  12 active torsions:
REMARK  status: ('A' for Active; 'I' for Inactive)
REMARK    1  A    between atoms: C_2  and  C_10
REMARK    2  A    between atoms: C_4  and  O_18
REMARK    3  A    between atoms: C_7  and  O_20
REMARK    4  A    between atoms: C_11  and  C_13
REMARK    5  A    between atoms: C_13  and  C_14
REMARK    6  A    between atoms: O_20  and  C_22
REMARK    7  A    between atoms: C_22  and  C_23
REMARK    8  A    between atoms: C_24  and  C_25
REMARK    9  A    between atoms: C_26  and  C_27
REMARK   10  A    between atoms: C_28  and  C_29
REMARK   11  A    between atoms: C_30  and  C_32
REMARK   12  A    between atoms: C_32  and  O_33
REMARK                            x       y       z     vdW  Elec       q    Type
REMARK                         _______ _______ _______ _____ _____    ______ ____
ROOT
ATOM      1  O   UNL     1      31.502 -11.059 -21.641  0.00  0.00    -0.353 OA
ATOM      2  C   UNL     1      32.758 -10.951 -23.800  0.00  0.00    +0.085 C 
ATOM      3  C   UNL     1      32.385 -11.733 -22.551  0.00  0.00    +0.125 C 
ATOM      4  C   UNL     1      34.006 -11.586 -24.470  0.00  0.00    +0.160 C 
ATOM      5  C   UNL     1      30.948 -12.172 -22.348  0.00  0.00    +0.169 C 
ATOM      6  C   UNL     1      33.489 -12.494 -21.885  0.00  0.00    +0.034 C 
ATOM      7  C   UNL     1      34.062 -13.112 -24.306  0.00  0.00    +0.196 C 
ATOM      8  C   UNL     1      34.063 -13.551 -22.834  0.00  0.00    +0.049 C 
ENDROOT
BRANCH   2  10
ATOM      9  O   UNL     1      32.146  -8.583 -24.190  0.00  0.00    -0.356 OA
ATOM     10  C   UNL     1      33.015  -9.490 -23.500  0.00  0.00    +0.122 C 
ATOM     11  C   UNL     1      32.016  -8.646 -22.763  0.00  0.00    +0.144 C 
ATOM     12  C   UNL     1      34.444  -9.096 -23.529  0.00  0.00    +0.032 C 
BRANCH  11  13
ATOM     13  C   UNL     1      32.420  -7.399 -22.073  0.00  0.00    +0.057 C 
BRANCH  13  14
ATOM     14  C   UNL     1      32.295  -6.143 -22.903  0.00  0.00    -0.032 C 
ATOM     15  C   UNL     1      31.360  -5.179 -22.802  0.00  0.00    -0.048 C 
ATOM     16  C   UNL     1      30.278  -5.269 -21.759  0.00  0.00    +0.026 C 
ATOM     17  C   UNL     1      31.294  -3.950 -23.664  0.00  0.00    +0.026 C 
ENDBRANCH  13  14
ENDBRANCH  11  13
ENDBRANCH   2  10
BRANCH   4  18
ATOM     18  O   UNL     1      34.008 -11.295 -25.868  0.00  0.00    -0.350 OA
ATOM     19  C   UNL     1      35.277 -10.824 -26.289  0.00  0.00    +0.174 C 
ENDBRANCH   4  18
BRANCH   7  20
ATOM     20  O   UNL     1      32.953 -13.718 -24.977  0.00  0.00    -0.447 OA
BRANCH  20  22
ATOM     21  O   UNL     1      33.291 -14.786 -26.998  0.00  0.00    -0.245 OA
ATOM     22  C   UNL     1      33.260 -14.773 -25.777  0.00  0.00    +0.341 C 
BRANCH  22  23
ATOM     23  C   UNL     1      33.559 -15.927 -24.900  0.00  0.00    +0.082 C 
ATOM     24  C   UNL     1      34.546 -16.773 -25.225  0.00  0.00    +0.007 C 
BRANCH  24  25
ATOM     25  C   UNL     1      34.892 -17.920 -24.413  0.00  0.00    +0.000 C 
ATOM     26  C   UNL     1      34.918 -17.885 -23.073  0.00  0.00    +0.000 C 
BRANCH  26  27
ATOM     27  C   UNL     1      35.284 -18.993 -22.216  0.00  0.00    +0.000 C 
ATOM     28  C   UNL     1      34.525 -19.488 -21.226  0.00  0.00    +0.000 C 
BRANCH  28  29
ATOM     29  C   UNL     1      34.951 -20.580 -20.377  0.00  0.00    +0.007 C 
ATOM     30  C   UNL     1      34.090 -21.315 -19.659  0.00  0.00    +0.082 C 
BRANCH  30  32
ATOM     31  O   UNL     1      35.460 -22.377 -18.038  0.00  0.00    -0.245 OA
ATOM     32  C   UNL     1      34.494 -22.435 -18.785  0.00  0.00    +0.338 C 
BRANCH  32  33
ATOM     33  O   UNL     1      33.688 -23.513 -18.902  0.00  0.00    -0.477 OA
ATOM     34  H   UNL     1      33.605 -23.949 -19.727  0.00  0.00    +0.295 HD
ENDBRANCH  32  33
ENDBRANCH  30  32
ENDBRANCH  28  29
ENDBRANCH  26  27
ENDBRANCH  24  25
ENDBRANCH  22  23
ENDBRANCH  20  22
ENDBRANCH   7  20
TORSDOF 12
ENDMDL
MODEL 8
REMARK VINA RESULT:      -8.3      4.348      8.613
REMARK  Name = 6917655
REMARK  12 active torsions:
REMARK  status: ('A' for Active; 'I' for Inactive)
REMARK    1  A    between atoms: C_2  and  C_10
REMARK    2  A    between atoms: C_4  and  O_18
REMARK    3  A    between atoms: C_7  and  O_20
REMARK    4  A    between atoms: C_11  and  C_13
REMARK    5  A    between atoms: C_13  and  C_14
REMARK    6  A    between atoms: O_20  and  C_22
REMARK    7  A    between atoms: C_22  and  C_23
REMARK    8  A    between atoms: C_24  and  C_25
REMARK    9  A    between atoms: C_26  and  C_27
REMARK   10  A    between atoms: C_28  and  C_29
REMARK   11  A    between atoms: C_30  and  C_32
REMARK   12  A    between atoms: C_32  and  O_33
REMARK                            x       y       z     vdW  Elec       q    Type
REMARK                         _______ _______ _______ _____ _____    ______ ____
ROOT
ATOM      1  O   UNL     1      31.069  -4.946 -22.054  0.00  0.00    -0.353 OA
ATOM      2  C   UNL     1      31.846  -7.086 -23.084  0.00  0.00    +0.085 C 
ATOM      3  C   UNL     1      31.626  -6.251 -21.834  0.00  0.00    +0.125 C 
ATOM      4  C   UNL     1      32.813  -8.261 -22.773  0.00  0.00    +0.160 C 
ATOM      5  C   UNL     1      30.214  -5.897 -21.413  0.00  0.00    +0.169 C 
ATOM      6  C   UNL     1      32.714  -6.288 -20.805  0.00  0.00    +0.034 C 
ATOM      7  C   UNL     1      32.665  -8.795 -21.341  0.00  0.00    +0.196 C 
ATOM      8  C   UNL     1      32.907  -7.713 -20.277  0.00  0.00    +0.049 C 
ENDROOT
BRANCH   2  10
ATOM      9  O   UNL     1      31.589  -6.319 -25.425  0.00  0.00    -0.356 OA
ATOM     10  C   UNL     1      32.384  -6.260 -24.233  0.00  0.00    +0.122 C 
ATOM     11  C   UNL     1      31.653  -5.055 -24.749  0.00  0.00    +0.144 C 
ATOM     12  C   UNL     1      33.840  -6.406 -24.470  0.00  0.00    +0.032 C 
BRANCH  11  13
ATOM     13  C   UNL     1      32.353  -4.001 -25.522  0.00  0.00    +0.057 C 
BRANCH  13  14
ATOM     14  C   UNL     1      32.201  -4.104 -27.021  0.00  0.00    -0.032 C 
ATOM     15  C   UNL     1      33.162  -4.347 -27.932  0.00  0.00    -0.048 C 
ATOM     16  C   UNL     1      34.587  -4.569 -27.498  0.00  0.00    +0.026 C 
ATOM     17  C   UNL     1      32.941  -4.438 -29.415  0.00  0.00    +0.026 C 
ENDBRANCH  13  14
ENDBRANCH  11  13
ENDBRANCH   2  10
BRANCH   4  18
ATOM     18  O   UNL     1      32.568  -9.343 -23.672  0.00  0.00    -0.350 OA
ATOM     19  C   UNL     1      33.697 -10.195 -23.765  0.00  0.00    +0.174 C 
ENDBRANCH   4  18
BRANCH   7  20
ATOM     20  O   UNL     1      31.360  -9.353 -21.159  0.00  0.00    -0.447 OA
BRANCH  20  22
ATOM     21  O   UNL     1      30.590  -9.853 -19.038  0.00  0.00    -0.245 OA
ATOM     22  C   UNL     1      31.207 -10.132 -20.055  0.00  0.00    +0.341 C 
BRANCH  22  23
ATOM     23  C   UNL     1      31.925 -11.402 -20.301  0.00  0.00    +0.082 C 
ATOM     24  C   UNL     1      31.580 -12.172 -21.341  0.00  0.00    +0.007 C 
BRANCH  24  25
ATOM     25  C   UNL     1      32.240 -13.425 -21.640  0.00  0.00    +0.000 C 
ATOM     26  C   UNL     1      32.435 -14.385 -20.724  0.00  0.00    +0.000 C 
BRANCH  26  27
ATOM     27  C   UNL     1      33.113 -15.641 -20.964  0.00  0.00    +0.000 C 
ATOM     28  C   UNL     1      34.445 -15.812 -20.970  0.00  0.00    +0.000 C 
BRANCH  28  29
ATOM     29  C   UNL     1      35.074 -17.086 -21.245  0.00  0.00    +0.007 C 
ATOM     30  C   UNL     1      34.374 -18.218 -21.404  0.00  0.00    +0.082 C 
BRANCH  30  32
ATOM     31  O   UNL     1      35.375 -20.284 -20.803  0.00  0.00    -0.245 OA
ATOM     32  C   UNL     1      34.987 -19.533 -21.685  0.00  0.00    +0.338 C 
BRANCH  32  33
ATOM     33  O   UNL     1      35.068 -19.805 -23.006  0.00  0.00    -0.477 OA
ATOM     34  H   UNL     1      34.670 -20.579 -23.350  0.00  0.00    +0.295 HD
ENDBRANCH  32  33
ENDBRANCH  30  32
ENDBRANCH  28  29
ENDBRANCH  26  27
ENDBRANCH  24  25
ENDBRANCH  22  23
ENDBRANCH  20  22
ENDBRANCH   7  20
TORSDOF 12
ENDMDL
MODEL 9
REMARK VINA RESULT:      -8.2      2.202      4.293
REMARK  Name = 6917655
REMARK  12 active torsions:
REMARK  status: ('A' for Active; 'I' for Inactive)
REMARK    1  A    between atoms: C_2  and  C_10
REMARK    2  A    between atoms: C_4  and  O_18
REMARK    3  A    between atoms: C_7  and  O_20
REMARK    4  A    between atoms: C_11  and  C_13
REMARK    5  A    between atoms: C_13  and  C_14
REMARK    6  A    between atoms: O_20  and  C_22
REMARK    7  A    between atoms: C_22  and  C_23
REMARK    8  A    between atoms: C_24  and  C_25
REMARK    9  A    between atoms: C_26  and  C_27
REMARK   10  A    between atoms: C_28  and  C_29
REMARK   11  A    between atoms: C_30  and  C_32
REMARK   12  A    between atoms: C_32  and  O_33
REMARK                            x       y       z     vdW  Elec       q    Type
REMARK                         _______ _______ _______ _____ _____    ______ ____
ROOT
ATOM      1  O   UNL     1      33.775 -10.608 -25.614  0.00  0.00    -0.353 OA
ATOM      2  C   UNL     1      33.399 -12.076 -23.626  0.00  0.00    +0.085 C 
ATOM      3  C   UNL     1      33.528 -11.938 -25.134  0.00  0.00    +0.125 C 
ATOM      4  C   UNL     1      32.734 -13.433 -23.272  0.00  0.00    +0.160 C 
ATOM      5  C   UNL     1      34.860 -11.532 -25.734  0.00  0.00    +0.169 C 
ATOM      6  C   UNL     1      32.555 -12.718 -25.962  0.00  0.00    +0.034 C 
ATOM      7  C   UNL     1      33.099 -14.554 -24.257  0.00  0.00    +0.196 C 
ATOM      8  C   UNL     1      32.712 -14.220 -25.705  0.00  0.00    +0.049 C 
ENDROOT
BRANCH   2  10
ATOM      9  O   UNL     1      33.408  -9.801 -22.646  0.00  0.00    -0.356 OA
ATOM     10  C   UNL     1      32.613 -10.936 -23.017  0.00  0.00    +0.122 C 
ATOM     11  C   UNL     1      32.467  -9.614 -23.713  0.00  0.00    +0.144 C 
ATOM     12  C   UNL     1      31.629 -11.345 -21.985  0.00  0.00    +0.032 C 
BRANCH  11  13
ATOM     13  C   UNL     1      31.364  -8.683 -23.379  0.00  0.00    +0.057 C 
BRANCH  13  14
ATOM     14  C   UNL     1      31.392  -7.369 -24.124  0.00  0.00    -0.032 C 
ATOM     15  C   UNL     1      31.646  -6.144 -23.625  0.00  0.00    -0.048 C 
ATOM     16  C   UNL     1      31.964  -5.965 -22.165  0.00  0.00    +0.026 C 
ATOM     17  C   UNL     1      31.659  -4.874 -24.426  0.00  0.00    +0.026 C 
ENDBRANCH  13  14
ENDBRANCH  11  13
ENDBRANCH   2  10
BRANCH   4  18
ATOM     18  O   UNL     1      33.137 -13.847 -21.967  0.00  0.00    -0.350 OA
ATOM     19  C   UNL     1      32.315 -14.898 -21.488  0.00  0.00    +0.174 C 
ENDBRANCH   4  18
BRANCH   7  20
ATOM     20  O   UNL     1      34.503 -14.821 -24.193  0.00  0.00    -0.447 OA
BRANCH  20  22
ATOM     21  O   UNL     1      35.142 -16.495 -25.653  0.00  0.00    -0.245 OA
ATOM     22  C   UNL     1      34.873 -16.085 -24.534  0.00  0.00    +0.341 C 
BRANCH  22  23
ATOM     23  C   UNL     1      34.898 -16.893 -23.295  0.00  0.00    +0.082 C 
ATOM     24  C   UNL     1      35.144 -18.209 -23.363  0.00  0.00    +0.007 C 
BRANCH  24  25
ATOM     25  C   UNL     1      35.184 -19.058 -22.192  0.00  0.00    +0.000 C 
ATOM     26  C   UNL     1      34.081 -19.472 -21.552  0.00  0.00    +0.000 C 
BRANCH  26  27
ATOM     27  C   UNL     1      34.067 -20.297 -20.363  0.00  0.00    +0.000 C 
ATOM     28  C   UNL     1      34.980 -21.234 -20.061  0.00  0.00    +0.000 C 
BRANCH  28  29
ATOM     29  C   UNL     1      34.903 -22.055 -18.871  0.00  0.00    +0.007 C 
ATOM     30  C   UNL     1      33.739 -22.494 -18.371  0.00  0.00    +0.082 C 
BRANCH  30  32
ATOM     31  O   UNL     1      34.603 -23.768 -16.564  0.00  0.00    -0.245 OA
ATOM     32  C   UNL     1      33.628 -23.332 -17.159  0.00  0.00    +0.338 C 
BRANCH  32  33
ATOM     33  O   UNL     1      32.349 -23.559 -16.790  0.00  0.00    -0.477 OA
ATOM     34  H   UNL     1      31.892 -24.307 -17.118  0.00  0.00    +0.295 HD
ENDBRANCH  32  33
ENDBRANCH  30  32
ENDBRANCH  28  29
ENDBRANCH  26  27
ENDBRANCH  24  25
ENDBRANCH  22  23
ENDBRANCH  20  22
ENDBRANCH   7  20
TORSDOF 12
ENDMDL
