MODEL 1
REMARK VINA RESULT:      -8.6      0.000      0.000
REMARK  Name = 26879
REMARK  1 active torsions:
REMARK  status: ('A' for Active; 'I' for Inactive)
REMARK    1  A    between atoms: C_5  and  C_9
REMARK                            x       y       z     vdW  Elec       q    Type
REMARK                         _______ _______ _______ _____ _____    ______ ____
ROOT
ATOM      1  S   UNL     1      34.296 -14.782 -21.781  0.00  0.00    -0.079 S 
ATOM      2  N   UNL     1      34.957 -16.938 -23.025  0.00  0.00    -0.285 N 
ATOM      3  N   UNL     1      35.231 -17.145 -20.758  0.00  0.00    -0.247 NA
ATOM      4  C   UNL     1      35.187 -18.347 -22.932  0.00  0.00    +0.121 C 
ATOM      5  C   UNL     1      35.624 -18.448 -21.436  0.00  0.00    +0.147 C 
ATOM      6  C   UNL     1      34.268 -16.233 -24.073  0.00  0.00    +0.105 C 
ATOM      7  C   UNL     1      34.901 -16.407 -21.779  0.00  0.00    +0.155 C 
ATOM      8  C   UNL     1      34.262 -14.761 -23.626  0.00  0.00    +0.086 C 
ENDROOT
BRANCH   5   9
ATOM      9  C   UNL     1      35.044 -19.661 -20.746  0.00  0.00    +0.002 C 
ATOM     10  C   UNL     1      35.891 -20.620 -20.189  0.00  0.00    -0.002 C 
ATOM     11  C   UNL     1      33.660 -19.821 -20.662  0.00  0.00    -0.002 C 
ATOM     12  C   UNL     1      35.355 -21.739 -19.552  0.00  0.00    -0.000 C 
ATOM     13  C   UNL     1      33.124 -20.940 -20.024  0.00  0.00    -0.000 C 
ATOM     14  C   UNL     1      33.972 -21.898 -19.469  0.00  0.00    -0.000 C 
ENDBRANCH   5   9
TORSDOF 1
ENDMDL
MODEL 2
REMARK VINA RESULT:      -8.6      0.039      1.292
REMARK  Name = 26879
REMARK  1 active torsions:
REMARK  status: ('A' for Active; 'I' for Inactive)
REMARK    1  A    between atoms: C_5  and  C_9
REMARK                            x       y       z     vdW  Elec       q    Type
REMARK                         _______ _______ _______ _____ _____    ______ ____
ROOT
ATOM      1  S   UNL     1      34.252 -14.761 -21.781  0.00  0.00    -0.079 S 
ATOM      2  N   UNL     1      34.952 -16.903 -23.026  0.00  0.00    -0.285 N 
ATOM      3  N   UNL     1      35.211 -17.113 -20.757  0.00  0.00    -0.247 NA
ATOM      4  C   UNL     1      35.201 -18.309 -22.935  0.00  0.00    +0.121 C 
ATOM      5  C   UNL     1      35.628 -18.409 -21.435  0.00  0.00    +0.147 C 
ATOM      6  C   UNL     1      34.263 -16.205 -24.077  0.00  0.00    +0.105 C 
ATOM      7  C   UNL     1      34.880 -16.377 -21.778  0.00  0.00    +0.155 C 
ATOM      8  C   UNL     1      34.233 -14.735 -23.627  0.00  0.00    +0.086 C 
ENDROOT
BRANCH   5   9
ATOM      9  C   UNL     1      35.059 -19.631 -20.753  0.00  0.00    +0.002 C 
ATOM     10  C   UNL     1      33.677 -19.808 -20.675  0.00  0.00    -0.002 C 
ATOM     11  C   UNL     1      35.915 -20.586 -20.204  0.00  0.00    -0.002 C 
ATOM     12  C   UNL     1      33.152 -20.938 -20.047  0.00  0.00    -0.000 C 
ATOM     13  C   UNL     1      35.390 -21.715 -19.575  0.00  0.00    -0.000 C 
ATOM     14  C   UNL     1      34.009 -21.891 -19.497  0.00  0.00    -0.000 C 
ENDBRANCH   5   9
TORSDOF 1
ENDMDL
MODEL 3
REMARK VINA RESULT:      -8.0      4.549      7.287
REMARK  Name = 26879
REMARK  1 active torsions:
REMARK  status: ('A' for Active; 'I' for Inactive)
REMARK    1  A    between atoms: C_5  and  C_9
REMARK                            x       y       z     vdW  Elec       q    Type
REMARK                         _______ _______ _______ _____ _____    ______ ____
ROOT
ATOM      1  S   UNL     1      31.351 -23.188 -15.674  0.00  0.00    -0.079 S 
ATOM      2  N   UNL     1      33.799 -23.229 -16.472  0.00  0.00    -0.285 N 
ATOM      3  N   UNL     1      32.357 -22.690 -18.172  0.00  0.00    -0.247 NA
ATOM      4  C   UNL     1      34.737 -22.809 -17.467  0.00  0.00    +0.121 C 
ATOM      5  C   UNL     1      33.783 -22.687 -18.699  0.00  0.00    +0.147 C 
ATOM      6  C   UNL     1      33.989 -23.253 -15.047  0.00  0.00    +0.105 C 
ATOM      7  C   UNL     1      32.538 -23.026 -16.927  0.00  0.00    +0.155 C 
ATOM      8  C   UNL     1      32.644 -23.727 -14.472  0.00  0.00    +0.086 C 
ENDROOT
BRANCH   5   9
ATOM      9  C   UNL     1      34.088 -21.474 -19.547  0.00  0.00    +0.002 C 
ATOM     10  C   UNL     1      33.047 -20.684 -20.035  0.00  0.00    -0.002 C 
ATOM     11  C   UNL     1      35.411 -21.142 -19.840  0.00  0.00    -0.002 C 
ATOM     12  C   UNL     1      33.328 -19.563 -20.817  0.00  0.00    -0.000 C 
ATOM     13  C   UNL     1      35.693 -20.021 -20.621  0.00  0.00    -0.000 C 
ATOM     14  C   UNL     1      34.651 -19.232 -21.110  0.00  0.00    -0.000 C 
ENDBRANCH   5   9
TORSDOF 1
ENDMDL
MODEL 4
REMARK VINA RESULT:      -7.9      4.392      6.766
REMARK  Name = 26879
REMARK  1 active torsions:
REMARK  status: ('A' for Active; 'I' for Inactive)
REMARK    1  A    between atoms: C_5  and  C_9
REMARK                            x       y       z     vdW  Elec       q    Type
REMARK                         _______ _______ _______ _____ _____    ______ ____
ROOT
ATOM      1  S   UNL     1      34.647 -23.391 -15.342  0.00  0.00    -0.079 S 
ATOM      2  N   UNL     1      36.390 -22.391 -16.952  0.00  0.00    -0.285 N 
ATOM      3  N   UNL     1      34.382 -22.763 -17.994  0.00  0.00    -0.247 NA
ATOM      4  C   UNL     1      36.619 -21.699 -18.182  0.00  0.00    +0.121 C 
ATOM      5  C   UNL     1      35.364 -22.163 -18.988  0.00  0.00    +0.147 C 
ATOM      6  C   UNL     1      37.043 -22.169 -15.690  0.00  0.00    +0.105 C 
ATOM      7  C   UNL     1      35.111 -22.840 -16.919  0.00  0.00    +0.155 C 
ATOM      8  C   UNL     1      36.364 -23.142 -14.712  0.00  0.00    +0.086 C 
ENDROOT
BRANCH   5   9
ATOM      9  C   UNL     1      34.757 -21.047 -19.805  0.00  0.00    +0.002 C 
ATOM     10  C   UNL     1      35.581 -20.157 -20.495  0.00  0.00    -0.002 C 
ATOM     11  C   UNL     1      33.370 -20.905 -19.872  0.00  0.00    -0.002 C 
ATOM     12  C   UNL     1      35.020 -19.127 -21.250  0.00  0.00    -0.000 C 
ATOM     13  C   UNL     1      32.809 -19.875 -20.626  0.00  0.00    -0.000 C 
ATOM     14  C   UNL     1      33.634 -18.986 -21.315  0.00  0.00    -0.000 C 
ENDBRANCH   5   9
TORSDOF 1
ENDMDL
MODEL 5
REMARK VINA RESULT:      -7.7      2.497      5.471
REMARK  Name = 26879
REMARK  1 active torsions:
REMARK  status: ('A' for Active; 'I' for Inactive)
REMARK    1  A    between atoms: C_5  and  C_9
REMARK                            x       y       z     vdW  Elec       q    Type
REMARK                         _______ _______ _______ _____ _____    ______ ____
ROOT
ATOM      1  S   UNL     1      36.177 -21.618 -19.358  0.00  0.00    -0.079 S 
ATOM      2  N   UNL     1      33.986 -20.437 -20.019  0.00  0.00    -0.285 N 
ATOM      3  N   UNL     1      35.830 -19.259 -20.706  0.00  0.00    -0.247 NA
ATOM      4  C   UNL     1      33.360 -19.473 -20.870  0.00  0.00    +0.121 C 
ATOM      5  C   UNL     1      34.571 -18.522 -21.133  0.00  0.00    +0.147 C 
ATOM      6  C   UNL     1      33.482 -21.731 -19.645  0.00  0.00    +0.105 C 
ATOM      7  C   UNL     1      35.332 -20.290 -20.086  0.00  0.00    +0.155 C 
ATOM      8  C   UNL     1      34.587 -22.355 -18.777  0.00  0.00    +0.086 C 
ENDROOT
BRANCH   5   9
ATOM      9  C   UNL     1      34.632 -18.048 -22.567  0.00  0.00    +0.002 C 
ATOM     10  C   UNL     1      34.548 -18.970 -23.611  0.00  0.00    -0.002 C 
ATOM     11  C   UNL     1      34.770 -16.689 -22.847  0.00  0.00    -0.002 C 
ATOM     12  C   UNL     1      34.604 -18.532 -24.935  0.00  0.00    -0.000 C 
ATOM     13  C   UNL     1      34.826 -16.251 -24.171  0.00  0.00    -0.000 C 
ATOM     14  C   UNL     1      34.743 -17.173 -25.214  0.00  0.00    -0.000 C 
ENDBRANCH   5   9
TORSDOF 1
ENDMDL
MODEL 6
REMARK VINA RESULT:      -7.3      6.552      9.277
REMARK  Name = 26879
REMARK  1 active torsions:
REMARK  status: ('A' for Active; 'I' for Inactive)
REMARK    1  A    between atoms: C_5  and  C_9
REMARK                            x       y       z     vdW  Elec       q    Type
REMARK                         _______ _______ _______ _____ _____    ______ ____
ROOT
ATOM      1  S   UNL     1      39.029 -25.410 -14.156  0.00  0.00    -0.079 S 
ATOM      2  N   UNL     1      36.808 -24.143 -13.848  0.00  0.00    -0.285 N 
ATOM      3  N   UNL     1      38.018 -23.326 -15.616  0.00  0.00    -0.247 NA
ATOM      4  C   UNL     1      35.825 -23.296 -14.448  0.00  0.00    +0.121 C 
ATOM      5  C   UNL     1      36.716 -22.550 -15.492  0.00  0.00    +0.147 C 
ATOM      6  C   UNL     1      36.580 -25.281 -12.998  0.00  0.00    +0.105 C 
ATOM      7  C   UNL     1      37.921 -24.160 -14.622  0.00  0.00    +0.155 C 
ATOM      8  C   UNL     1      37.979 -25.846 -12.701  0.00  0.00    +0.086 C 
ENDROOT
BRANCH   5   9
ATOM      9  C   UNL     1      36.019 -22.366 -16.820  0.00  0.00    +0.002 C 
ATOM     10  C   UNL     1      36.680 -21.736 -17.875  0.00  0.00    -0.002 C 
ATOM     11  C   UNL     1      34.714 -22.828 -16.993  0.00  0.00    -0.002 C 
ATOM     12  C   UNL     1      36.037 -21.567 -19.101  0.00  0.00    -0.000 C 
ATOM     13  C   UNL     1      34.070 -22.660 -18.220  0.00  0.00    -0.000 C 
ATOM     14  C   UNL     1      34.732 -22.029 -19.273  0.00  0.00    -0.000 C 
ENDBRANCH   5   9
TORSDOF 1
ENDMDL
MODEL 7
REMARK VINA RESULT:      -7.3      4.746      7.451
REMARK  Name = 26879
REMARK  1 active torsions:
REMARK  status: ('A' for Active; 'I' for Inactive)
REMARK    1  A    between atoms: C_5  and  C_9
REMARK                            x       y       z     vdW  Elec       q    Type
REMARK                         _______ _______ _______ _____ _____    ______ ____
ROOT
ATOM      1  S   UNL     1      30.315 -22.615 -15.993  0.00  0.00    -0.079 S 
ATOM      2  N   UNL     1      32.802 -23.273 -16.104  0.00  0.00    -0.285 N 
ATOM      3  N   UNL     1      32.017 -22.562 -18.138  0.00  0.00    -0.247 NA
ATOM      4  C   UNL     1      34.036 -23.158 -16.819  0.00  0.00    +0.121 C 
ATOM      5  C   UNL     1      33.489 -22.924 -18.263  0.00  0.00    +0.147 C 
ATOM      6  C   UNL     1      32.609 -23.224 -14.680  0.00  0.00    +0.105 C 
ATOM      7  C   UNL     1      31.787 -22.828 -16.885  0.00  0.00    +0.155 C 
ATOM      8  C   UNL     1      31.089 -23.334 -14.479  0.00  0.00    +0.086 C 
ENDROOT
BRANCH   5   9
ATOM      9  C   UNL     1      34.282 -21.884 -19.019  0.00  0.00    +0.002 C 
ATOM     10  C   UNL     1      33.627 -20.973 -19.849  0.00  0.00    -0.002 C 
ATOM     11  C   UNL     1      35.670 -21.832 -18.886  0.00  0.00    -0.002 C 
ATOM     12  C   UNL     1      34.360 -20.012 -20.546  0.00  0.00    -0.000 C 
ATOM     13  C   UNL     1      36.403 -20.871 -19.583  0.00  0.00    -0.000 C 
ATOM     14  C   UNL     1      35.747 -19.961 -20.413  0.00  0.00    -0.000 C 
ENDBRANCH   5   9
TORSDOF 1
ENDMDL
MODEL 8
REMARK VINA RESULT:      -7.0      8.823     10.472
REMARK  Name = 26879
REMARK  1 active torsions:
REMARK  status: ('A' for Active; 'I' for Inactive)
REMARK    1  A    between atoms: C_5  and  C_9
REMARK                            x       y       z     vdW  Elec       q    Type
REMARK                         _______ _______ _______ _____ _____    ______ ____
ROOT
ATOM      1  S   UNL     1      37.271 -26.255 -14.991  0.00  0.00    -0.079 S 
ATOM      2  N   UNL     1      35.977 -24.724 -13.374  0.00  0.00    -0.285 N 
ATOM      3  N   UNL     1      35.096 -24.666 -15.490  0.00  0.00    -0.247 NA
ATOM      4  C   UNL     1      34.760 -24.018 -13.115  0.00  0.00    +0.121 C 
ATOM      5  C   UNL     1      34.287 -23.756 -14.581  0.00  0.00    +0.147 C 
ATOM      6  C   UNL     1      36.759 -25.489 -12.440  0.00  0.00    +0.105 C 
ATOM      7  C   UNL     1      36.005 -25.113 -14.672  0.00  0.00    +0.155 C 
ATOM      8  C   UNL     1      37.914 -26.074 -13.270  0.00  0.00    +0.086 C 
ENDROOT
BRANCH   5   9
ATOM      9  C   UNL     1      32.797 -23.942 -14.748  0.00  0.00    +0.002 C 
ATOM     10  C   UNL     1      32.103 -24.816 -13.910  0.00  0.00    -0.002 C 
ATOM     11  C   UNL     1      32.112 -23.237 -15.739  0.00  0.00    -0.002 C 
ATOM     12  C   UNL     1      30.727 -24.987 -14.064  0.00  0.00    -0.000 C 
ATOM     13  C   UNL     1      30.736 -23.408 -15.893  0.00  0.00    -0.000 C 
ATOM     14  C   UNL     1      30.044 -24.283 -15.055  0.00  0.00    -0.000 C 
ENDBRANCH   5   9
TORSDOF 1
ENDMDL
MODEL 9
REMARK VINA RESULT:      -7.0      4.308      7.661
REMARK  Name = 26879
REMARK  1 active torsions:
REMARK  status: ('A' for Active; 'I' for Inactive)
REMARK    1  A    between atoms: C_5  and  C_9
REMARK                            x       y       z     vdW  Elec       q    Type
REMARK                         _______ _______ _______ _____ _____    ______ ____
ROOT
ATOM      1  S   UNL     1      34.620 -16.032 -21.034  0.00  0.00    -0.079 S 
ATOM      2  N   UNL     1      33.402 -14.548 -22.750  0.00  0.00    -0.285 N 
ATOM      3  N   UNL     1      32.677 -14.149 -20.611  0.00  0.00    -0.247 NA
ATOM      4  C   UNL     1      32.629 -13.364 -22.969  0.00  0.00    +0.121 C 
ATOM      5  C   UNL     1      31.933 -13.238 -21.576  0.00  0.00    +0.147 C 
ATOM      6  C   UNL     1      34.481 -15.048 -23.558  0.00  0.00    +0.105 C 
ATOM      7  C   UNL     1      33.440 -14.822 -21.423  0.00  0.00    +0.155 C 
ATOM      8  C   UNL     1      34.981 -16.304 -22.824  0.00  0.00    +0.086 C 
ENDROOT
BRANCH   5   9
ATOM      9  C   UNL     1      31.866 -11.809 -21.091  0.00  0.00    +0.002 C 
ATOM     10  C   UNL     1      31.971 -10.757 -22.002  0.00  0.00    -0.002 C 
ATOM     11  C   UNL     1      31.696 -11.539 -19.733  0.00  0.00    -0.002 C 
ATOM     12  C   UNL     1      31.908  -9.437 -21.554  0.00  0.00    -0.000 C 
ATOM     13  C   UNL     1      31.633 -10.220 -19.285  0.00  0.00    -0.000 C 
ATOM     14  C   UNL     1      31.739  -9.169 -20.196  0.00  0.00    -0.000 C 
ENDBRANCH   5   9
TORSDOF 1
ENDMDL
