MODEL 1
REMARK VINA RESULT:      -8.0      0.000      0.000
REMARK  Name = 5743
REMARK  5 active torsions:
REMARK  status: ('A' for Active; 'I' for Inactive)
REMARK    1  A    between atoms: C_7  and  O_23
REMARK    2  A    between atoms: C_7  and  C_28
REMARK    3  A    between atoms: C_11  and  O_25
REMARK    4  A    between atoms: C_28  and  C_29
REMARK    5  A    between atoms: C_29  and  O_30
REMARK                            x       y       z     vdW  Elec       q    Type
REMARK                         _______ _______ _______ _____ _____    ______ ____
ROOT
ATOM      1  F   UNL     1      35.840 -25.440 -14.774  0.00  0.00    -0.237 F 
ATOM      2  O   UNL     1      40.674 -25.961 -15.166  0.00  0.00    -0.287 OA
ATOM      3  C   UNL     1      32.793 -23.932 -13.892  0.00  0.00    +0.032 C 
ATOM      4  C   UNL     1      33.653 -23.678 -15.149  0.00  0.00    +0.005 C 
ATOM      5  C   UNL     1      35.081 -23.210 -14.830  0.00  0.00    +0.033 C 
ATOM      6  C   UNL     1      35.802 -24.308 -13.975  0.00  0.00    +0.164 C 
ATOM      7  C   UNL     1      31.450 -24.315 -14.580  0.00  0.00    +0.141 C 
ATOM      8  C   UNL     1      32.767 -22.792 -16.023  0.00  0.00    +0.003 C 
ATOM      9  C   UNL     1      33.482 -25.049 -13.081  0.00  0.00    +0.035 C 
ATOM     10  C   UNL     1      31.321 -23.280 -15.737  0.00  0.00    +0.032 C 
ATOM     11  C   UNL     1      34.955 -24.735 -12.737  0.00  0.00    +0.141 C 
ATOM     12  C   UNL     1      37.312 -23.941 -13.689  0.00  0.00    +0.064 C 
ATOM     13  C   UNL     1      35.854 -22.922 -16.130  0.00  0.00    +0.007 C 
ATOM     14  C   UNL     1      32.598 -22.664 -13.014  0.00  0.00    +0.003 C 
ATOM     15  C   UNL     1      37.313 -22.566 -15.869  0.00  0.00    +0.023 C 
ATOM     16  C   UNL     1      37.973 -23.636 -15.037  0.00  0.00    -0.035 C 
ATOM     17  C   UNL     1      30.644 -23.798 -17.002  0.00  0.00    +0.003 C 
ATOM     18  C   UNL     1      37.499 -22.708 -12.775  0.00  0.00    +0.011 C 
ATOM     19  C   UNL     1      38.009 -25.097 -12.984  0.00  0.00    -0.017 C 
ATOM     20  C   UNL     1      39.047 -24.288 -15.506  0.00  0.00    +0.034 C 
ATOM     21  C   UNL     1      39.078 -25.752 -13.446  0.00  0.00    +0.038 C 
ATOM     22  C   UNL     1      39.682 -25.380 -14.739  0.00  0.00    +0.195 C 
ENDROOT
BRANCH   7  23
ATOM     23  O   UNL     1      31.502 -25.651 -15.067  0.00  0.00    -0.380 OA
ATOM     24  H   UNL     1      31.903 -26.226 -14.396  0.00  0.00    +0.211 HD
ENDBRANCH   7  23
BRANCH  11  25
ATOM     25  O   UNL     1      35.012 -23.765 -11.704  0.00  0.00    -0.382 OA
ATOM     26  H   UNL     1      35.761 -23.958 -11.118  0.00  0.00    +0.210 HD
ENDBRANCH  11  25
BRANCH   7  28
ATOM     27  O   UNL     1      30.415 -24.155 -12.438  0.00  0.00    -0.291 OA
ATOM     28  C   UNL     1      30.270 -24.299 -13.650  0.00  0.00    +0.204 C 
BRANCH  28  29
ATOM     29  C   UNL     1      28.909 -24.470 -14.292  0.00  0.00    +0.204 C 
BRANCH  29  30
ATOM     30  O   UNL     1      28.554 -25.835 -14.350  0.00  0.00    -0.375 OA
ATOM     31  H   UNL     1      28.392 -26.165 -13.452  0.00  0.00    +0.211 HD
ENDBRANCH  29  30
ENDBRANCH  28  29
ENDBRANCH   7  28
TORSDOF 5
ENDMDL
MODEL 2
REMARK VINA RESULT:      -7.3      1.981      7.086
REMARK  Name = 5743
REMARK  5 active torsions:
REMARK  status: ('A' for Active; 'I' for Inactive)
REMARK    1  A    between atoms: C_7  and  O_23
REMARK    2  A    between atoms: C_7  and  C_28
REMARK    3  A    between atoms: C_11  and  O_25
REMARK    4  A    between atoms: C_28  and  C_29
REMARK    5  A    between atoms: C_29  and  O_30
REMARK                            x       y       z     vdW  Elec       q    Type
REMARK                         _______ _______ _______ _____ _____    ______ ____
ROOT
ATOM      1  F   UNL     1      32.188 -22.336 -14.498  0.00  0.00    -0.237 F 
ATOM      2  O   UNL     1      27.422 -21.612 -15.238  0.00  0.00    -0.287 OA
ATOM      3  C   UNL     1      35.280 -23.998 -14.607  0.00  0.00    +0.032 C 
ATOM      4  C   UNL     1      34.636 -23.112 -15.696  0.00  0.00    +0.005 C 
ATOM      5  C   UNL     1      33.261 -23.615 -16.160  0.00  0.00    +0.033 C 
ATOM      6  C   UNL     1      32.285 -23.648 -14.935  0.00  0.00    +0.164 C 
ATOM      7  C   UNL     1      36.632 -23.245 -14.437  0.00  0.00    +0.141 C 
ATOM      8  C   UNL     1      35.747 -22.943 -16.731  0.00  0.00    +0.003 C 
ATOM      9  C   UNL     1      34.338 -23.984 -13.385  0.00  0.00    +0.035 C 
ATOM     10  C   UNL     1      37.057 -22.919 -15.900  0.00  0.00    +0.032 C 
ATOM     11  C   UNL     1      32.893 -24.417 -13.723  0.00  0.00    +0.141 C 
ATOM     12  C   UNL     1      30.819 -24.063 -15.354  0.00  0.00    +0.064 C 
ATOM     13  C   UNL     1      32.713 -22.715 -17.284  0.00  0.00    +0.007 C 
ATOM     14  C   UNL     1      35.540 -25.457 -15.077  0.00  0.00    +0.003 C 
ATOM     15  C   UNL     1      31.299 -23.106 -17.699  0.00  0.00    +0.023 C 
ATOM     16  C   UNL     1      30.390 -23.137 -16.497  0.00  0.00    -0.035 C 
ATOM     17  C   UNL     1      37.811 -21.604 -16.082  0.00  0.00    +0.003 C 
ATOM     18  C   UNL     1      30.695 -25.522 -15.849  0.00  0.00    +0.011 C 
ATOM     19  C   UNL     1      29.878 -23.940 -14.163  0.00  0.00    -0.017 C 
ATOM     20  C   UNL     1      29.302 -22.352 -16.453  0.00  0.00    +0.034 C 
ATOM     21  C   UNL     1      28.794 -23.159 -14.113  0.00  0.00    +0.038 C 
ATOM     22  C   UNL     1      28.424 -22.319 -15.266  0.00  0.00    +0.195 C 
ENDROOT
BRANCH   7  23
ATOM     23  O   UNL     1      36.451 -22.065 -13.662  0.00  0.00    -0.380 OA
ATOM     24  H   UNL     1      36.204 -22.308 -12.756  0.00  0.00    +0.211 HD
ENDBRANCH   7  23
BRANCH  11  25
ATOM     25  O   UNL     1      32.843 -25.821 -13.915  0.00  0.00    -0.382 OA
ATOM     26  H   UNL     1      33.735 -26.192 -13.825  0.00  0.00    +0.210 HD
ENDBRANCH  11  25
BRANCH   7  28
ATOM     27  O   UNL     1      38.559 -24.640 -14.284  0.00  0.00    -0.291 OA
ATOM     28  C   UNL     1      37.671 -24.031 -13.690  0.00  0.00    +0.204 C 
BRANCH  28  29
ATOM     29  C   UNL     1      37.558 -24.025 -12.180  0.00  0.00    +0.204 C 
BRANCH  29  30
ATOM     30  O   UNL     1      38.307 -22.963 -11.629  0.00  0.00    -0.375 OA
ATOM     31  H   UNL     1      38.028 -22.812 -10.712  0.00  0.00    +0.211 HD
ENDBRANCH  29  30
ENDBRANCH  28  29
ENDBRANCH   7  28
TORSDOF 5
ENDMDL
MODEL 3
REMARK VINA RESULT:      -6.8     11.419     13.418
REMARK  Name = 5743
REMARK  5 active torsions:
REMARK  status: ('A' for Active; 'I' for Inactive)
REMARK    1  A    between atoms: C_7  and  O_23
REMARK    2  A    between atoms: C_7  and  C_28
REMARK    3  A    between atoms: C_11  and  O_25
REMARK    4  A    between atoms: C_28  and  C_29
REMARK    5  A    between atoms: C_29  and  O_30
REMARK                            x       y       z     vdW  Elec       q    Type
REMARK                         _______ _______ _______ _____ _____    ______ ____
ROOT
ATOM      1  F   UNL     1      35.437 -14.343 -23.956  0.00  0.00    -0.237 F 
ATOM      2  O   UNL     1      34.951  -9.999 -26.119  0.00  0.00    -0.287 OA
ATOM      3  C   UNL     1      34.463 -17.245 -22.233  0.00  0.00    +0.032 C 
ATOM      4  C   UNL     1      34.390 -16.969 -23.750  0.00  0.00    +0.005 C 
ATOM      5  C   UNL     1      33.544 -15.738 -24.109  0.00  0.00    +0.033 C 
ATOM      6  C   UNL     1      34.163 -14.472 -23.424  0.00  0.00    +0.164 C 
ATOM      7  C   UNL     1      35.316 -18.547 -22.255  0.00  0.00    +0.141 C 
ATOM      8  C   UNL     1      34.011 -18.323 -24.349  0.00  0.00    +0.003 C 
ATOM      9  C   UNL     1      35.119 -16.015 -21.572  0.00  0.00    +0.035 C 
ATOM     10  C   UNL     1      34.708 -19.365 -23.434  0.00  0.00    +0.032 C 
ATOM     11  C   UNL     1      34.398 -14.688 -21.899  0.00  0.00    +0.141 C 
ATOM     12  C   UNL     1      33.401 -13.147 -23.828  0.00  0.00    +0.064 C 
ATOM     13  C   UNL     1      33.472 -15.565 -25.638  0.00  0.00    +0.007 C 
ATOM     14  C   UNL     1      33.074 -17.530 -21.593  0.00  0.00    +0.003 C 
ATOM     15  C   UNL     1      32.738 -14.291 -26.041  0.00  0.00    +0.023 C 
ATOM     16  C   UNL     1      33.352 -13.094 -25.358  0.00  0.00    -0.035 C 
ATOM     17  C   UNL     1      35.703 -20.219 -24.214  0.00  0.00    +0.003 C 
ATOM     18  C   UNL     1      31.950 -13.069 -23.300  0.00  0.00    +0.011 C 
ATOM     19  C   UNL     1      34.123 -11.933 -23.258  0.00  0.00    -0.017 C 
ATOM     20  C   UNL     1      33.853 -12.085 -26.087  0.00  0.00    +0.034 C 
ATOM     21  C   UNL     1      34.625 -10.925 -23.978  0.00  0.00    +0.038 C 
ATOM     22  C   UNL     1      34.510 -10.927 -25.448  0.00  0.00    +0.195 C 
ENDROOT
BRANCH   7  23
ATOM     23  O   UNL     1      36.688 -18.240 -22.474  0.00  0.00    -0.380 OA
ATOM     24  H   UNL     1      36.767 -17.335 -22.814  0.00  0.00    +0.211 HD
ENDBRANCH   7  23
BRANCH  11  25
ATOM     25  O   UNL     1      33.187 -14.604 -21.165  0.00  0.00    -0.382 OA
ATOM     26  H   UNL     1      33.379 -14.337 -20.252  0.00  0.00    +0.210 HD
ENDBRANCH  11  25
BRANCH   7  28
ATOM     27  O   UNL     1      36.226 -19.201 -20.151  0.00  0.00    -0.291 OA
ATOM     28  C   UNL     1      35.301 -19.300 -20.955  0.00  0.00    +0.204 C 
BRANCH  28  29
ATOM     29  C   UNL     1      34.093 -20.176 -20.702  0.00  0.00    +0.204 C 
BRANCH  29  30
ATOM     30  O   UNL     1      34.382 -21.151 -19.723  0.00  0.00    -0.375 OA
ATOM     31  H   UNL     1      34.472 -22.019 -20.147  0.00  0.00    +0.211 HD
ENDBRANCH  29  30
ENDBRANCH  28  29
ENDBRANCH   7  28
TORSDOF 5
ENDMDL
MODEL 4
REMARK VINA RESULT:      -6.6     14.920     16.703
REMARK  Name = 5743
REMARK  5 active torsions:
REMARK  status: ('A' for Active; 'I' for Inactive)
REMARK    1  A    between atoms: C_7  and  O_23
REMARK    2  A    between atoms: C_7  and  C_28
REMARK    3  A    between atoms: C_11  and  O_25
REMARK    4  A    between atoms: C_28  and  C_29
REMARK    5  A    between atoms: C_29  and  O_30
REMARK                            x       y       z     vdW  Elec       q    Type
REMARK                         _______ _______ _______ _____ _____    ______ ____
ROOT
ATOM      1  F   UNL     1      34.640 -12.283 -22.368  0.00  0.00    -0.237 F 
ATOM      2  O   UNL     1      35.149 -17.062 -21.539  0.00  0.00    -0.287 OA
ATOM      3  C   UNL     1      33.213  -9.338 -23.644  0.00  0.00    +0.032 C 
ATOM      4  C   UNL     1      32.833 -10.100 -22.356  0.00  0.00    +0.005 C 
ATOM      5  C   UNL     1      32.411 -11.556 -22.608  0.00  0.00    +0.033 C 
ATOM      6  C   UNL     1      33.599 -12.325 -23.283  0.00  0.00    +0.164 C 
ATOM      7  C   UNL     1      33.512  -7.939 -23.030  0.00  0.00    +0.141 C 
ATOM      8  C   UNL     1      31.853  -9.161 -21.654  0.00  0.00    +0.003 C 
ATOM      9  C   UNL     1      34.415 -10.071 -24.276  0.00  0.00    +0.035 C 
ATOM     10  C   UNL     1      32.359  -7.736 -22.002  0.00  0.00    +0.032 C 
ATOM     11  C   UNL     1      34.149 -11.572 -24.532  0.00  0.00    +0.141 C 
ATOM     12  C   UNL     1      33.274 -13.858 -23.484  0.00  0.00    +0.064 C 
ATOM     13  C   UNL     1      31.992 -12.228 -21.287  0.00  0.00    +0.007 C 
ATOM     14  C   UNL     1      32.044  -9.232 -24.664  0.00  0.00    +0.003 C 
ATOM     15  C   UNL     1      31.675 -13.708 -21.468  0.00  0.00    +0.023 C 
ATOM     16  C   UNL     1      32.832 -14.416 -22.127  0.00  0.00    -0.035 C 
ATOM     17  C   UNL     1      32.735  -6.953 -20.747  0.00  0.00    +0.003 C 
ATOM     18  C   UNL     1      32.146 -14.135 -24.504  0.00  0.00    +0.011 C 
ATOM     19  C   UNL     1      34.504 -14.590 -24.005  0.00  0.00    -0.017 C 
ATOM     20  C   UNL     1      33.438 -15.440 -21.507  0.00  0.00    +0.034 C 
ATOM     21  C   UNL     1      35.113 -15.610 -23.393  0.00  0.00    +0.038 C 
ATOM     22  C   UNL     1      34.609 -16.116 -22.102  0.00  0.00    +0.195 C 
ENDROOT
BRANCH   7  23
ATOM     23  O   UNL     1      34.789  -7.933 -22.401  0.00  0.00    -0.380 OA
ATOM     24  H   UNL     1      35.137  -8.838 -22.366  0.00  0.00    +0.211 HD
ENDBRANCH   7  23
BRANCH  11  25
ATOM     25  O   UNL     1      33.294 -11.725 -25.653  0.00  0.00    -0.382 OA
ATOM     26  H   UNL     1      33.769 -12.185 -26.363  0.00  0.00    +0.210 HD
ENDBRANCH  11  25
BRANCH   7  28
ATOM     27  O   UNL     1      34.589  -6.677 -24.742  0.00  0.00    -0.291 OA
ATOM     28  C   UNL     1      33.587  -6.836 -24.047  0.00  0.00    +0.204 C 
BRANCH  28  29
ATOM     29  C   UNL     1      32.368  -5.945 -24.160  0.00  0.00    +0.204 C 
BRANCH  29  30
ATOM     30  O   UNL     1      32.388  -5.227 -25.375  0.00  0.00    -0.375 OA
ATOM     31  H   UNL     1      31.693  -5.565 -25.961  0.00  0.00    +0.211 HD
ENDBRANCH  29  30
ENDBRANCH  28  29
ENDBRANCH   7  28
TORSDOF 5
ENDMDL
MODEL 5
REMARK VINA RESULT:      -6.2      1.631      7.204
REMARK  Name = 5743
REMARK  5 active torsions:
REMARK  status: ('A' for Active; 'I' for Inactive)
REMARK    1  A    between atoms: C_7  and  O_23
REMARK    2  A    between atoms: C_7  and  C_28
REMARK    3  A    between atoms: C_11  and  O_25
REMARK    4  A    between atoms: C_28  and  C_29
REMARK    5  A    between atoms: C_29  and  O_30
REMARK                            x       y       z     vdW  Elec       q    Type
REMARK                         _______ _______ _______ _____ _____    ______ ____
ROOT
ATOM      1  F   UNL     1      33.085 -25.511 -14.347  0.00  0.00    -0.237 F 
ATOM      2  O   UNL     1      28.213 -25.736 -14.365  0.00  0.00    -0.287 OA
ATOM      3  C   UNL     1      36.277 -24.113 -14.786  0.00  0.00    +0.032 C 
ATOM      4  C   UNL     1      35.339 -23.982 -13.566  0.00  0.00    +0.005 C 
ATOM      5  C   UNL     1      33.971 -23.373 -13.908  0.00  0.00    +0.033 C 
ATOM      6  C   UNL     1      33.254 -24.281 -14.964  0.00  0.00    +0.164 C 
ATOM      7  C   UNL     1      37.537 -24.687 -14.074  0.00  0.00    +0.141 C 
ATOM      8  C   UNL     1      36.208 -23.298 -12.511  0.00  0.00    +0.003 C 
ATOM      9  C   UNL     1      35.587 -25.049 -15.800  0.00  0.00    +0.035 C 
ATOM     10  C   UNL     1      37.639 -23.841 -12.769  0.00  0.00    +0.032 C 
ATOM     11  C   UNL     1      34.166 -24.584 -16.192  0.00  0.00    +0.141 C 
ATOM     12  C   UNL     1      31.796 -23.769 -15.293  0.00  0.00    +0.064 C 
ATOM     13  C   UNL     1      33.120 -23.222 -12.634  0.00  0.00    +0.007 C 
ATOM     14  C   UNL     1      36.616 -22.749 -15.450  0.00  0.00    +0.003 C 
ATOM     15  C   UNL     1      31.710 -22.728 -12.937  0.00  0.00    +0.023 C 
ATOM     16  C   UNL     1      31.052 -23.616 -13.962  0.00  0.00    -0.035 C 
ATOM     17  C   UNL     1      38.183 -24.585 -11.553  0.00  0.00    +0.003 C 
ATOM     18  C   UNL     1      31.755 -22.407 -16.022  0.00  0.00    +0.011 C 
ATOM     19  C   UNL     1      31.086 -24.759 -16.208  0.00  0.00    -0.017 C 
ATOM     20  C   UNL     1      29.907 -24.251 -13.669  0.00  0.00    +0.034 C 
ATOM     21  C   UNL     1      29.946 -25.395 -15.922  0.00  0.00    +0.038 C 
ATOM     22  C   UNL     1      29.269 -25.172 -14.632  0.00  0.00    +0.195 C 
ENDROOT
BRANCH   7  23
ATOM     23  O   UNL     1      37.367 -26.072 -13.797  0.00  0.00    -0.380 OA
ATOM     24  H   UNL     1      37.501 -26.584 -14.610  0.00  0.00    +0.211 HD
ENDBRANCH   7  23
BRANCH  11  25
ATOM     25  O   UNL     1      34.248 -23.473 -17.069  0.00  0.00    -0.382 OA
ATOM     26  H   UNL     1      33.961 -22.671 -16.604  0.00  0.00    +0.210 HD
ENDBRANCH  11  25
BRANCH   7  28
ATOM     27  O   UNL     1      39.021 -23.651 -15.627  0.00  0.00    -0.291 OA
ATOM     28  C   UNL     1      38.785 -24.621 -14.909  0.00  0.00    +0.204 C 
BRANCH  28  29
ATOM     29  C   UNL     1      39.719 -25.809 -14.812  0.00  0.00    +0.204 C 
BRANCH  29  30
ATOM     30  O   UNL     1      40.460 -25.957 -16.004  0.00  0.00    -0.375 OA
ATOM     31  H   UNL     1      39.938 -25.628 -16.752  0.00  0.00    +0.211 HD
ENDBRANCH  29  30
ENDBRANCH  28  29
ENDBRANCH   7  28
TORSDOF 5
ENDMDL
MODEL 6
REMARK VINA RESULT:      -6.0     19.254     20.848
REMARK  Name = 5743
REMARK  5 active torsions:
REMARK  status: ('A' for Active; 'I' for Inactive)
REMARK    1  A    between atoms: C_7  and  O_23
REMARK    2  A    between atoms: C_7  and  C_28
REMARK    3  A    between atoms: C_11  and  O_25
REMARK    4  A    between atoms: C_28  and  C_29
REMARK    5  A    between atoms: C_29  and  O_30
REMARK                            x       y       z     vdW  Elec       q    Type
REMARK                         _______ _______ _______ _____ _____    ______ ____
ROOT
ATOM      1  F   UNL     1      31.319  -8.075 -24.249  0.00  0.00    -0.237 F 
ATOM      2  O   UNL     1      32.242 -12.715 -23.063  0.00  0.00    -0.287 OA
ATOM      3  C   UNL     1      31.556  -4.574 -24.107  0.00  0.00    +0.032 C 
ATOM      4  C   UNL     1      32.469  -5.560 -24.868  0.00  0.00    +0.005 C 
ATOM      5  C   UNL     1      33.136  -6.603 -23.959  0.00  0.00    +0.033 C 
ATOM      6  C   UNL     1      32.025  -7.442 -23.238  0.00  0.00    +0.164 C 
ATOM      7  C   UNL     1      31.122  -3.665 -25.295  0.00  0.00    +0.141 C 
ATOM      8  C   UNL     1      33.354  -4.653 -25.721  0.00  0.00    +0.003 C 
ATOM      9  C   UNL     1      30.437  -5.401 -23.442  0.00  0.00    +0.035 C 
ATOM     10  C   UNL     1      32.441  -3.456 -26.098  0.00  0.00    +0.032 C 
ATOM     11  C   UNL     1      30.970  -6.534 -22.536  0.00  0.00    +0.141 C 
ATOM     12  C   UNL     1      32.637  -8.602 -22.358  0.00  0.00    +0.064 C 
ATOM     13  C   UNL     1      34.072  -7.509 -24.781  0.00  0.00    +0.007 C 
ATOM     14  C   UNL     1      32.315  -3.731 -23.043  0.00  0.00    +0.003 C 
ATOM     15  C   UNL     1      34.669  -8.634 -23.943  0.00  0.00    +0.023 C 
ATOM     16  C   UNL     1      33.577  -9.413 -23.256  0.00  0.00    -0.035 C 
ATOM     17  C   UNL     1      32.270  -3.336 -27.610  0.00  0.00    +0.003 C 
ATOM     18  C   UNL     1      33.449  -8.108 -21.139  0.00  0.00    +0.011 C 
ATOM     19  C   UNL     1      31.523  -9.477 -21.796  0.00  0.00    -0.017 C 
ATOM     20  C   UNL     1      33.443 -10.729 -23.481  0.00  0.00    +0.034 C 
ATOM     21  C   UNL     1      31.384 -10.788 -22.017  0.00  0.00    +0.038 C 
ATOM     22  C   UNL     1      32.349 -11.509 -22.867  0.00  0.00    +0.195 C 
ENDROOT
BRANCH   7  23
ATOM     23  O   UNL     1      30.122  -4.310 -26.076  0.00  0.00    -0.380 OA
ATOM     24  H   UNL     1      29.839  -5.124 -25.632  0.00  0.00    +0.211 HD
ENDBRANCH   7  23
BRANCH  11  25
ATOM     25  O   UNL     1      31.470  -5.988 -21.327  0.00  0.00    -0.382 OA
ATOM     26  H   UNL     1      31.306  -6.608 -20.599  0.00  0.00    +0.210 HD
ENDBRANCH  11  25
BRANCH   7  28
ATOM     27  O   UNL     1      30.801  -1.830 -23.807  0.00  0.00    -0.291 OA
ATOM     28  C   UNL     1      30.490  -2.372 -24.866  0.00  0.00    +0.204 C 
BRANCH  28  29
ATOM     29  C   UNL     1      29.459  -1.786 -25.808  0.00  0.00    +0.204 C 
BRANCH  29  30
ATOM     30  O   UNL     1      28.177  -1.805 -25.217  0.00  0.00    -0.375 OA
ATOM     31  H   UNL     1      27.507  -1.938 -25.905  0.00  0.00    +0.211 HD
ENDBRANCH  29  30
ENDBRANCH  28  29
ENDBRANCH   7  28
TORSDOF 5
ENDMDL
MODEL 7
REMARK VINA RESULT:      -5.6     10.734     12.533
REMARK  Name = 5743
REMARK  5 active torsions:
REMARK  status: ('A' for Active; 'I' for Inactive)
REMARK    1  A    between atoms: C_7  and  O_23
REMARK    2  A    between atoms: C_7  and  C_28
REMARK    3  A    between atoms: C_11  and  O_25
REMARK    4  A    between atoms: C_28  and  C_29
REMARK    5  A    between atoms: C_29  and  O_30
REMARK                            x       y       z     vdW  Elec       q    Type
REMARK                         _______ _______ _______ _____ _____    ______ ____
ROOT
ATOM      1  F   UNL     1      35.458 -16.725 -21.188  0.00  0.00    -0.237 F 
ATOM      2  O   UNL     1      36.838 -20.931 -19.141  0.00  0.00    -0.287 OA
ATOM      3  C   UNL     1      33.855 -14.593 -23.473  0.00  0.00    +0.032 C 
ATOM      4  C   UNL     1      33.267 -15.241 -22.200  0.00  0.00    +0.005 C 
ATOM      5  C   UNL     1      33.334 -16.776 -22.207  0.00  0.00    +0.033 C 
ATOM      6  C   UNL     1      34.831 -17.223 -22.320  0.00  0.00    +0.164 C 
ATOM      7  C   UNL     1      33.568 -13.098 -23.149  0.00  0.00    +0.141 C 
ATOM      8  C   UNL     1      31.905 -14.564 -22.043  0.00  0.00    +0.003 C 
ATOM      9  C   UNL     1      35.342 -14.997 -23.550  0.00  0.00    +0.035 C 
ATOM     10  C   UNL     1      32.124 -13.118 -22.564  0.00  0.00    +0.032 C 
ATOM     11  C   UNL     1      35.563 -16.526 -23.507  0.00  0.00    +0.141 C 
ATOM     12  C   UNL     1      34.989 -18.793 -22.235  0.00  0.00    +0.064 C 
ATOM     13  C   UNL     1      32.677 -17.346 -20.936  0.00  0.00    +0.007 C 
ATOM     14  C   UNL     1      33.111 -15.007 -24.774  0.00  0.00    +0.003 C 
ATOM     15  C   UNL     1      32.821 -18.860 -20.842  0.00  0.00    +0.023 C 
ATOM     16  C   UNL     1      34.270 -19.258 -20.963  0.00  0.00    -0.035 C 
ATOM     17  C   UNL     1      31.848 -12.084 -21.477  0.00  0.00    +0.003 C 
ATOM     18  C   UNL     1      34.378 -19.554 -23.434  0.00  0.00    +0.011 C 
ATOM     19  C   UNL     1      36.464 -19.171 -22.202  0.00  0.00    -0.017 C 
ATOM     20  C   UNL     1      34.869 -19.939 -19.974  0.00  0.00    +0.034 C 
ATOM     21  C   UNL     1      37.066 -19.849 -21.220  0.00  0.00    +0.038 C 
ATOM     22  C   UNL     1      36.301 -20.294 -20.040  0.00  0.00    +0.195 C 
ENDROOT
BRANCH   7  23
ATOM     23  O   UNL     1      34.514 -12.600 -22.209  0.00  0.00    -0.380 OA
ATOM     24  H   UNL     1      34.125 -12.613 -21.321  0.00  0.00    +0.211 HD
ENDBRANCH   7  23
BRANCH  11  25
ATOM     25  O   UNL     1      35.203 -17.100 -24.753  0.00  0.00    -0.382 OA
ATOM     26  H   UNL     1      35.456 -16.499 -25.472  0.00  0.00    +0.210 HD
ENDBRANCH  11  25
BRANCH   7  28
ATOM     27  O   UNL     1      33.672 -12.626 -25.484  0.00  0.00    -0.291 OA
ATOM     28  C   UNL     1      33.702 -12.186 -24.336  0.00  0.00    +0.204 C 
BRANCH  28  29
ATOM     29  C   UNL     1      33.875 -10.713 -24.033  0.00  0.00    +0.204 C 
BRANCH  29  30
ATOM     30  O   UNL     1      35.241 -10.359 -24.047  0.00  0.00    -0.375 OA
ATOM     31  H   UNL     1      35.694 -10.845 -24.755  0.00  0.00    +0.211 HD
ENDBRANCH  29  30
ENDBRANCH  28  29
ENDBRANCH   7  28
TORSDOF 5
ENDMDL
MODEL 8
REMARK VINA RESULT:      -5.2      3.368      6.473
REMARK  Name = 5743
REMARK  5 active torsions:
REMARK  status: ('A' for Active; 'I' for Inactive)
REMARK    1  A    between atoms: C_7  and  O_23
REMARK    2  A    between atoms: C_7  and  C_28
REMARK    3  A    between atoms: C_11  and  O_25
REMARK    4  A    between atoms: C_28  and  C_29
REMARK    5  A    between atoms: C_29  and  O_30
REMARK                            x       y       z     vdW  Elec       q    Type
REMARK                         _______ _______ _______ _____ _____    ______ ____
ROOT
ATOM      1  F   UNL     1      34.546 -21.155 -17.070  0.00  0.00    -0.237 F 
ATOM      2  O   UNL     1      33.562 -18.638 -21.130  0.00  0.00    -0.287 OA
ATOM      3  C   UNL     1      35.466 -23.909 -15.095  0.00  0.00    +0.032 C 
ATOM      4  C   UNL     1      36.390 -22.893 -15.802  0.00  0.00    +0.005 C 
ATOM      5  C   UNL     1      36.182 -22.832 -17.323  0.00  0.00    +0.033 C 
ATOM      6  C   UNL     1      34.701 -22.417 -17.622  0.00  0.00    +0.164 C 
ATOM      7  C   UNL     1      35.984 -23.746 -13.636  0.00  0.00    +0.141 C 
ATOM      8  C   UNL     1      37.780 -23.227 -15.261  0.00  0.00    +0.003 C 
ATOM      9  C   UNL     1      34.011 -23.466 -15.352  0.00  0.00    +0.035 C 
ATOM     10  C   UNL     1      37.532 -23.685 -13.799  0.00  0.00    +0.032 C 
ATOM     11  C   UNL     1      33.677 -23.306 -16.852  0.00  0.00    +0.141 C 
ATOM     12  C   UNL     1      34.437 -22.237 -19.170  0.00  0.00    +0.064 C 
ATOM     13  C   UNL     1      37.177 -21.843 -17.959  0.00  0.00    +0.007 C 
ATOM     14  C   UNL     1      35.682 -25.373 -15.574  0.00  0.00    +0.003 C 
ATOM     15  C   UNL     1      36.933 -21.661 -19.453  0.00  0.00    +0.023 C 
ATOM     16  C   UNL     1      35.499 -21.272 -19.707  0.00  0.00    -0.035 C 
ATOM     17  C   UNL     1      38.257 -22.787 -12.801  0.00  0.00    +0.003 C 
ATOM     18  C   UNL     1      34.530 -23.549 -19.982  0.00  0.00    +0.011 C 
ATOM     19  C   UNL     1      33.033 -21.695 -19.403  0.00  0.00    -0.017 C 
ATOM     20  C   UNL     1      35.213 -20.119 -20.331  0.00  0.00    +0.034 C 
ATOM     21  C   UNL     1      32.741 -20.547 -20.023  0.00  0.00    +0.038 C 
ATOM     22  C   UNL     1      33.817 -19.685 -20.544  0.00  0.00    +0.195 C 
ENDROOT
BRANCH   7  23
ATOM     23  O   UNL     1      35.465 -22.556 -13.052  0.00  0.00    -0.380 OA
ATOM     24  H   UNL     1      36.111 -22.194 -12.426  0.00  0.00    +0.211 HD
ENDBRANCH   7  23
BRANCH  11  25
ATOM     25  O   UNL     1      33.537 -24.583 -17.453  0.00  0.00    -0.382 OA
ATOM     26  H   UNL     1      34.376 -24.841 -17.866  0.00  0.00    +0.210 HD
ENDBRANCH  11  25
BRANCH   7  28
ATOM     27  O   UNL     1      34.354 -24.986 -12.415  0.00  0.00    -0.291 OA
ATOM     28  C   UNL     1      35.539 -24.843 -12.711  0.00  0.00    +0.204 C 
BRANCH  28  29
ATOM     29  C   UNL     1      36.626 -25.749 -12.174  0.00  0.00    +0.204 C 
BRANCH  29  30
ATOM     30  O   UNL     1      36.746 -26.909 -12.971  0.00  0.00    -0.375 OA
ATOM     31  H   UNL     1      36.523 -27.690 -12.440  0.00  0.00    +0.211 HD
ENDBRANCH  29  30
ENDBRANCH  28  29
ENDBRANCH   7  28
TORSDOF 5
ENDMDL
MODEL 9
REMARK VINA RESULT:      -5.2     14.890     17.002
REMARK  Name = 5743
REMARK  5 active torsions:
REMARK  status: ('A' for Active; 'I' for Inactive)
REMARK    1  A    between atoms: C_7  and  O_23
REMARK    2  A    between atoms: C_7  and  C_28
REMARK    3  A    between atoms: C_11  and  O_25
REMARK    4  A    between atoms: C_28  and  C_29
REMARK    5  A    between atoms: C_29  and  O_30
REMARK                            x       y       z     vdW  Elec       q    Type
REMARK                         _______ _______ _______ _____ _____    ______ ____
ROOT
ATOM      1  F   UNL     1      31.318  -9.686 -23.247  0.00  0.00    -0.237 F 
ATOM      2  O   UNL     1      30.085  -4.982 -22.882  0.00  0.00    -0.287 OA
ATOM      3  C   UNL     1      33.379 -12.527 -23.112  0.00  0.00    +0.032 C 
ATOM      4  C   UNL     1      32.598 -11.861 -21.958  0.00  0.00    +0.005 C 
ATOM      5  C   UNL     1      32.978 -10.390 -21.730  0.00  0.00    +0.033 C 
ATOM      6  C   UNL     1      32.684  -9.576 -23.036  0.00  0.00    +0.164 C 
ATOM      7  C   UNL     1      32.797 -13.968 -23.011  0.00  0.00    +0.141 C 
ATOM      8  C   UNL     1      32.747 -12.848 -20.801  0.00  0.00    +0.003 C 
ATOM      9  C   UNL     1      33.044 -11.751 -24.403  0.00  0.00    +0.035 C 
ATOM     10  C   UNL     1      32.768 -14.245 -21.478  0.00  0.00    +0.032 C 
ATOM     11  C   UNL     1      33.326 -10.235 -24.294  0.00  0.00    +0.141 C 
ATOM     12  C   UNL     1      32.959  -8.031 -22.846  0.00  0.00    +0.064 C 
ATOM     13  C   UNL     1      32.203  -9.817 -20.530  0.00  0.00    +0.007 C 
ATOM     14  C   UNL     1      34.916 -12.557 -22.878  0.00  0.00    +0.003 C 
ATOM     15  C   UNL     1      32.460  -8.327 -20.335  0.00  0.00    +0.023 C 
ATOM     16  C   UNL     1      32.177  -7.575 -21.610  0.00  0.00    -0.035 C 
ATOM     17  C   UNL     1      31.613 -15.118 -20.996  0.00  0.00    +0.003 C 
ATOM     18  C   UNL     1      34.448  -7.679 -22.626  0.00  0.00    +0.011 C 
ATOM     19  C   UNL     1      32.523  -7.264 -24.087  0.00  0.00    -0.017 C 
ATOM     20  C   UNL     1      31.255  -6.600 -21.628  0.00  0.00    +0.034 C 
ATOM     21  C   UNL     1      31.605  -6.293 -24.112  0.00  0.00    +0.038 C 
ATOM     22  C   UNL     1      30.916  -5.883 -22.875  0.00  0.00    +0.195 C 
ENDROOT
BRANCH   7  23
ATOM     23  O   UNL     1      31.496 -14.022 -23.584  0.00  0.00    -0.380 OA
ATOM     24  H   UNL     1      31.560 -13.900 -24.545  0.00  0.00    +0.211 HD
ENDBRANCH   7  23
BRANCH  11  25
ATOM     25  O   UNL     1      34.723  -9.999 -24.354  0.00  0.00    -0.382 OA
ATOM     26  H   UNL     1      35.061 -10.271 -25.222  0.00  0.00    +0.210 HD
ENDBRANCH  11  25
BRANCH   7  28
ATOM     27  O   UNL     1      33.440 -15.140 -24.984  0.00  0.00    -0.291 OA
ATOM     28  C   UNL     1      33.588 -14.993 -23.773  0.00  0.00    +0.204 C 
BRANCH  28  29
ATOM     29  C   UNL     1      34.564 -15.822 -22.965  0.00  0.00    +0.204 C 
BRANCH  29  30
ATOM     30  O   UNL     1      35.684 -16.174 -23.749  0.00  0.00    -0.375 OA
ATOM     31  H   UNL     1      35.670 -15.670 -24.577  0.00  0.00    +0.211 HD
ENDBRANCH  29  30
ENDBRANCH  28  29
ENDBRANCH   7  28
TORSDOF 5
ENDMDL
