MODEL 1
REMARK VINA RESULT:     -10.2      0.000      0.000
REMARK  Name = 5287870
REMARK  10 active torsions:
REMARK  status: ('A' for Active; 'I' for Inactive)
REMARK    1  A    between atoms: CA_1  and  N_5
REMARK    2  A    between atoms: CA_1  and  C_14
REMARK    3  A    between atoms: CA_1  and  CB_28
REMARK    4  A    between atoms: N_13  and  C_16
REMARK    5  A    between atoms: C_16  and  C_18
REMARK    6  A    between atoms: C_16  and  C_19
REMARK    7  A    between atoms: C_19  and  S_20
REMARK    8  A    between atoms: S_20  and  C_21
REMARK    9  A    between atoms: C_21  and  C_22
REMARK   10  A    between atoms: CB_28  and  CG_29
REMARK                            x       y       z     vdW  Elec       q    Type
REMARK                         _______ _______ _______ _____ _____    ______ ____
ROOT
ATOM      1  CA  PHE A   1      33.317 -23.740 -16.815  0.00  0.00    +0.154 C 
ENDROOT
BRANCH   1   5
ATOM      2  O   UNK A   0      38.265 -24.846 -12.880  0.00  0.00    -0.350 OA
ATOM      3  O   UNK A   0      33.494 -24.731 -14.188  0.00  0.00    -0.253 OA
ATOM      4  N   UNK A   0      35.763 -24.267 -14.060  0.00  0.00    -0.259 N 
ATOM      5  N   PHE A   1      34.518 -23.786 -16.011  0.00  0.00    -0.282 N 
ATOM      6  C   UNK A   0      35.857 -24.775 -12.690  0.00  0.00    +0.127 C 
ATOM      7  C   UNK A   0      36.992 -23.629 -14.555  0.00  0.00    +0.127 C 
ATOM      8  C   UNK A   0      37.115 -25.607 -12.503  0.00  0.00    +0.164 C 
ATOM      9  C   UNK A   0      38.209 -24.500 -14.264  0.00  0.00    +0.164 C 
ATOM     10  C   UNK A   0      34.522 -24.294 -14.718  0.00  0.00    +0.304 C 
ATOM     11  H   PHE A   1      35.360 -23.449 -16.393  0.00  0.00    +0.151 HD
ENDBRANCH   1   5
BRANCH   1  14
ATOM     12  O   PHE A   1      33.704 -24.316 -19.138  0.00  0.00    -0.273 OA
ATOM     13  N   UNK A   2      34.130 -22.144 -18.435  0.00  0.00    -0.297 N 
ATOM     14  C   PHE A   1      33.745 -23.465 -18.252  0.00  0.00    +0.241 C 
ATOM     15  H   UNK A   2      34.128 -21.544 -17.655  0.00  0.00    +0.150 HD
BRANCH  13  16
ATOM     16  C   UNK A   2      34.535 -21.605 -19.714  0.00  0.00    +0.148 C 
BRANCH  16  18
ATOM     17  O   UNK A   2      36.628 -20.745 -18.859  0.00  0.00    -0.286 OA
ATOM     18  C   UNK A   2      36.041 -21.442 -19.683  0.00  0.00    +0.228 C 
ENDBRANCH  16  18
BRANCH  16  19
ATOM     19  C   UNK A   2      33.785 -20.332 -20.098  0.00  0.00    +0.085 C 
BRANCH  19  20
ATOM     20  S   UNK A   2      34.330 -19.598 -21.675  0.00  0.00    -0.133 S 
BRANCH  20  21
ATOM     21  C   UNK A   2      35.348 -18.267 -20.998  0.00  0.00    +0.084 C 
BRANCH  21  22
ATOM     22  C   UNK A   2      34.983 -16.926 -21.573  0.00  0.00    -0.011 C 
ATOM     23  C   UNK A   2      35.018 -16.724 -22.953  0.00  0.00    -0.003 C 
ATOM     24  C   UNK A   2      34.612 -15.883 -20.725  0.00  0.00    -0.003 C 
ATOM     25  C   UNK A   2      34.681 -15.481 -23.485  0.00  0.00    -0.000 C 
ATOM     26  C   UNK A   2      34.274 -14.638 -21.258  0.00  0.00    -0.000 C 
ATOM     27  C   UNK A   2      34.308 -14.437 -22.638  0.00  0.00    -0.000 C 
ENDBRANCH  21  22
ENDBRANCH  20  21
ENDBRANCH  19  20
ENDBRANCH  16  19
ENDBRANCH  13  16
ENDBRANCH   1  14
BRANCH   1  28
ATOM     28  CB  PHE A   1      32.339 -22.661 -16.335  0.00  0.00    +0.055 C 
BRANCH  28  29
ATOM     29  CG  PHE A   1      30.941 -23.190 -16.127  0.00  0.00    -0.020 C 
ATOM     30  CD1 PHE A   1      29.841 -22.424 -16.511  0.00  0.00    -0.004 C 
ATOM     31  CD2 PHE A   1      30.750 -24.445 -15.549  0.00  0.00    -0.004 C 
ATOM     32  CE1 PHE A   1      28.550 -22.914 -16.319  0.00  0.00    -0.000 C 
ATOM     33  CE2 PHE A   1      29.459 -24.936 -15.357  0.00  0.00    -0.000 C 
ATOM     34  CZ  PHE A   1      28.358 -24.170 -15.742  0.00  0.00    -0.000 C 
ENDBRANCH  28  29
ENDBRANCH   1  28
TORSDOF 10
ENDMDL
MODEL 2
REMARK VINA RESULT:     -10.2      1.494      2.177
REMARK  Name = 5287870
REMARK  10 active torsions:
REMARK  status: ('A' for Active; 'I' for Inactive)
REMARK    1  A    between atoms: CA_1  and  N_5
REMARK    2  A    between atoms: CA_1  and  C_14
REMARK    3  A    between atoms: CA_1  and  CB_28
REMARK    4  A    between atoms: N_13  and  C_16
REMARK    5  A    between atoms: C_16  and  C_18
REMARK    6  A    between atoms: C_16  and  C_19
REMARK    7  A    between atoms: C_19  and  S_20
REMARK    8  A    between atoms: S_20  and  C_21
REMARK    9  A    between atoms: C_21  and  C_22
REMARK   10  A    between atoms: CB_28  and  CG_29
REMARK                            x       y       z     vdW  Elec       q    Type
REMARK                         _______ _______ _______ _____ _____    ______ ____
ROOT
ATOM      1  CA  PHE A   1      33.462 -23.566 -15.756  0.00  0.00    +0.154 C 
ENDROOT
BRANCH   1   5
ATOM      2  O   UNK A   0      38.565 -24.000 -11.888  0.00  0.00    -0.350 OA
ATOM      3  O   UNK A   0      35.417 -25.553 -15.375  0.00  0.00    -0.253 OA
ATOM      4  N   UNK A   0      36.319 -24.454 -13.543  0.00  0.00    -0.259 N 
ATOM      5  N   PHE A   1      34.472 -23.567 -14.722  0.00  0.00    -0.282 N 
ATOM      6  C   UNK A   0      37.334 -25.490 -13.337  0.00  0.00    +0.127 C 
ATOM      7  C   UNK A   0      36.281 -23.427 -12.491  0.00  0.00    +0.127 C 
ATOM      8  C   UNK A   0      38.684 -24.873 -13.012  0.00  0.00    +0.164 C 
ATOM      9  C   UNK A   0      37.683 -22.915 -12.182  0.00  0.00    +0.164 C 
ATOM     10  C   UNK A   0      35.406 -24.589 -14.602  0.00  0.00    +0.304 C 
ATOM     11  H   PHE A   1      34.501 -22.818 -14.083  0.00  0.00    +0.151 HD
ENDBRANCH   1   5
BRANCH   1  14
ATOM     12  O   PHE A   1      35.320 -22.797 -17.109  0.00  0.00    -0.273 OA
ATOM     13  N   UNK A   2      33.212 -22.931 -18.073  0.00  0.00    -0.297 N 
ATOM     14  C   PHE A   1      34.118 -23.042 -17.028  0.00  0.00    +0.241 C 
ATOM     15  H   UNK A   2      32.269 -23.153 -17.899  0.00  0.00    +0.150 HD
BRANCH  13  16
ATOM     16  C   UNK A   2      33.583 -22.506 -19.404  0.00  0.00    +0.148 C 
BRANCH  16  18
ATOM     17  O   UNK A   2      33.980 -24.789 -20.098  0.00  0.00    -0.286 OA
ATOM     18  C   UNK A   2      34.380 -23.629 -20.035  0.00  0.00    +0.228 C 
ENDBRANCH  16  18
BRANCH  16  19
ATOM     19  C   UNK A   2      34.294 -21.155 -19.429  0.00  0.00    +0.085 C 
BRANCH  19  20
ATOM     20  S   UNK A   2      33.648 -20.001 -20.684  0.00  0.00    -0.133 S 
BRANCH  20  21
ATOM     21  C   UNK A   2      35.222 -19.544 -21.444  0.00  0.00    +0.084 C 
BRANCH  21  22
ATOM     22  C   UNK A   2      35.038 -18.618 -22.616  0.00  0.00    -0.011 C 
ATOM     23  C   UNK A   2      35.155 -17.239 -22.441  0.00  0.00    -0.003 C 
ATOM     24  C   UNK A   2      34.750 -19.140 -23.877  0.00  0.00    -0.003 C 
ATOM     25  C   UNK A   2      34.985 -16.382 -23.527  0.00  0.00    -0.000 C 
ATOM     26  C   UNK A   2      34.579 -18.282 -24.964  0.00  0.00    -0.000 C 
ATOM     27  C   UNK A   2      34.697 -16.903 -24.789  0.00  0.00    -0.000 C 
ENDBRANCH  21  22
ENDBRANCH  20  21
ENDBRANCH  19  20
ENDBRANCH  16  19
ENDBRANCH  13  16
ENDBRANCH   1  14
BRANCH   1  28
ATOM     28  CB  PHE A   1      32.253 -22.698 -15.384  0.00  0.00    +0.055 C 
BRANCH  28  29
ATOM     29  CG  PHE A   1      30.966 -23.483 -15.329  0.00  0.00    -0.020 C 
ATOM     30  CD1 PHE A   1      29.826 -23.002 -15.972  0.00  0.00    -0.004 C 
ATOM     31  CD2 PHE A   1      30.915 -24.691 -14.632  0.00  0.00    -0.004 C 
ATOM     32  CE1 PHE A   1      28.637 -23.728 -15.920  0.00  0.00    -0.000 C 
ATOM     33  CE2 PHE A   1      29.726 -25.417 -14.580  0.00  0.00    -0.000 C 
ATOM     34  CZ  PHE A   1      28.587 -24.936 -15.224  0.00  0.00    -0.000 C 
ENDBRANCH  28  29
ENDBRANCH   1  28
TORSDOF 10
ENDMDL
MODEL 3
REMARK VINA RESULT:     -10.1      1.515      2.090
REMARK  Name = 5287870
REMARK  10 active torsions:
REMARK  status: ('A' for Active; 'I' for Inactive)
REMARK    1  A    between atoms: CA_1  and  N_5
REMARK    2  A    between atoms: CA_1  and  C_14
REMARK    3  A    between atoms: CA_1  and  CB_28
REMARK    4  A    between atoms: N_13  and  C_16
REMARK    5  A    between atoms: C_16  and  C_18
REMARK    6  A    between atoms: C_16  and  C_19
REMARK    7  A    between atoms: C_19  and  S_20
REMARK    8  A    between atoms: S_20  and  C_21
REMARK    9  A    between atoms: C_21  and  C_22
REMARK   10  A    between atoms: CB_28  and  CG_29
REMARK                            x       y       z     vdW  Elec       q    Type
REMARK                         _______ _______ _______ _____ _____    ______ ____
ROOT
ATOM      1  CA  PHE A   1      33.333 -23.767 -15.275  0.00  0.00    +0.154 C 
ENDROOT
BRANCH   1   5
ATOM      2  O   UNK A   0      38.676 -23.787 -11.719  0.00  0.00    -0.350 OA
ATOM      3  O   UNK A   0      35.405 -25.639 -14.937  0.00  0.00    -0.253 OA
ATOM      4  N   UNK A   0      36.360 -24.420 -13.211  0.00  0.00    -0.259 N 
ATOM      5  N   PHE A   1      34.402 -23.675 -14.306  0.00  0.00    -0.282 N 
ATOM      6  C   UNK A   0      37.436 -25.396 -13.028  0.00  0.00    +0.127 C 
ATOM      7  C   UNK A   0      36.333 -23.352 -12.201  0.00  0.00    +0.127 C 
ATOM      8  C   UNK A   0      38.771 -24.702 -12.813  0.00  0.00    +0.164 C 
ATOM      9  C   UNK A   0      37.724 -22.760 -12.000  0.00  0.00    +0.164 C 
ATOM     10  C   UNK A   0      35.392 -24.645 -14.204  0.00  0.00    +0.304 C 
ATOM     11  H   PHE A   1      34.431 -22.899 -13.701  0.00  0.00    +0.151 HD
ENDBRANCH   1   5
BRANCH   1  14
ATOM     12  O   PHE A   1      33.455 -23.993 -17.685  0.00  0.00    -0.273 OA
ATOM     13  N   UNK A   2      35.088 -22.757 -16.591  0.00  0.00    -0.297 N 
ATOM     14  C   PHE A   1      33.949 -23.548 -16.651  0.00  0.00    +0.241 C 
ATOM     15  H   UNK A   2      35.400 -22.454 -15.708  0.00  0.00    +0.150 HD
BRANCH  13  16
ATOM     16  C   UNK A   2      35.838 -22.356 -17.759  0.00  0.00    +0.148 C 
BRANCH  16  18
ATOM     17  O   UNK A   2      37.604 -21.465 -16.366  0.00  0.00    -0.286 OA
ATOM     18  C   UNK A   2      36.843 -21.311 -17.318  0.00  0.00    +0.228 C 
ENDBRANCH  16  18
BRANCH  16  19
ATOM     19  C   UNK A   2      34.954 -21.908 -18.921  0.00  0.00    +0.085 C 
BRANCH  19  20
ATOM     20  S   UNK A   2      35.759 -20.729 -20.054  0.00  0.00    -0.133 S 
BRANCH  20  21
ATOM     21  C   UNK A   2      34.269 -19.956 -20.720  0.00  0.00    +0.084 C 
BRANCH  21  22
ATOM     22  C   UNK A   2      34.587 -18.863 -21.703  0.00  0.00    -0.011 C 
ATOM     23  C   UNK A   2      34.657 -17.537 -21.275  0.00  0.00    -0.003 C 
ATOM     24  C   UNK A   2      34.811 -19.176 -23.044  0.00  0.00    -0.003 C 
ATOM     25  C   UNK A   2      34.951 -16.525 -22.188  0.00  0.00    -0.000 C 
ATOM     26  C   UNK A   2      35.106 -18.163 -23.956  0.00  0.00    -0.000 C 
ATOM     27  C   UNK A   2      35.177 -16.837 -23.528  0.00  0.00    -0.000 C 
ENDBRANCH  21  22
ENDBRANCH  20  21
ENDBRANCH  19  20
ENDBRANCH  16  19
ENDBRANCH  13  16
ENDBRANCH   1  14
BRANCH   1  28
ATOM     28  CB  PHE A   1      32.227 -22.735 -15.016  0.00  0.00    +0.055 C 
BRANCH  28  29
ATOM     29  CG  PHE A   1      30.855 -23.246 -15.381  0.00  0.00    -0.020 C 
ATOM     30  CD1 PHE A   1      30.142 -22.650 -16.421  0.00  0.00    -0.004 C 
ATOM     31  CD2 PHE A   1      30.299 -24.315 -14.678  0.00  0.00    -0.004 C 
ATOM     32  CE1 PHE A   1      28.874 -23.123 -16.758  0.00  0.00    -0.000 C 
ATOM     33  CE2 PHE A   1      29.032 -24.788 -15.015  0.00  0.00    -0.000 C 
ATOM     34  CZ  PHE A   1      28.319 -24.192 -16.055  0.00  0.00    -0.000 C 
ENDBRANCH  28  29
ENDBRANCH   1  28
TORSDOF 10
ENDMDL
MODEL 4
REMARK VINA RESULT:      -9.7     10.642     15.782
REMARK  Name = 5287870
REMARK  10 active torsions:
REMARK  status: ('A' for Active; 'I' for Inactive)
REMARK    1  A    between atoms: CA_1  and  N_5
REMARK    2  A    between atoms: CA_1  and  C_14
REMARK    3  A    between atoms: CA_1  and  CB_28
REMARK    4  A    between atoms: N_13  and  C_16
REMARK    5  A    between atoms: C_16  and  C_18
REMARK    6  A    between atoms: C_16  and  C_19
REMARK    7  A    between atoms: C_19  and  S_20
REMARK    8  A    between atoms: S_20  and  C_21
REMARK    9  A    between atoms: C_21  and  C_22
REMARK   10  A    between atoms: CB_28  and  CG_29
REMARK                            x       y       z     vdW  Elec       q    Type
REMARK                         _______ _______ _______ _____ _____    ______ ____
ROOT
ATOM      1  CA  PHE A   1      32.870  -8.086 -23.001  0.00  0.00    +0.154 C 
ENDROOT
BRANCH   1   5
ATOM      2  O   UNK A   0      31.997  -2.352 -25.749  0.00  0.00    -0.350 OA
ATOM      3  O   UNK A   0      31.745  -5.673 -22.090  0.00  0.00    -0.253 OA
ATOM      4  N   UNK A   0      31.859  -4.709 -24.197  0.00  0.00    -0.259 N 
ATOM      5  N   PHE A   1      32.613  -6.916 -23.812  0.00  0.00    -0.282 N 
ATOM      6  C   UNK A   0      31.267  -3.455 -23.727  0.00  0.00    +0.127 C 
ATOM      7  C   UNK A   0      32.053  -4.780 -25.652  0.00  0.00    +0.127 C 
ATOM      8  C   UNK A   0      31.986  -2.256 -24.324  0.00  0.00    +0.164 C 
ATOM      9  C   UNK A   0      32.717  -3.510 -26.173  0.00  0.00    +0.164 C 
ATOM     10  C   UNK A   0      32.054  -5.759 -23.284  0.00  0.00    +0.304 C 
ATOM     11  H   PHE A   1      32.844  -6.940 -24.769  0.00  0.00    +0.151 HD
ENDBRANCH   1   5
BRANCH   1  14
ATOM     12  O   PHE A   1      35.184  -8.428 -23.635  0.00  0.00    -0.273 OA
ATOM     13  N   UNK A   2      33.617 -10.047 -24.196  0.00  0.00    -0.297 N 
ATOM     14  C   PHE A   1      34.026  -8.839 -23.648  0.00  0.00    +0.241 C 
ATOM     15  H   UNK A   2      32.662 -10.279 -24.154  0.00  0.00    +0.150 HD
BRANCH  13  16
ATOM     16  C   UNK A   2      34.523 -10.979 -24.827  0.00  0.00    +0.148 C 
BRANCH  16  18
ATOM     17  O   UNK A   2      35.672 -10.737 -26.942  0.00  0.00    -0.286 OA
ATOM     18  C   UNK A   2      35.283 -10.222 -25.896  0.00  0.00    +0.228 C 
ENDBRANCH  16  18
BRANCH  16  19
ATOM     19  C   UNK A   2      33.832 -12.241 -25.339  0.00  0.00    +0.085 C 
BRANCH  19  20
ATOM     20  S   UNK A   2      33.477 -13.470 -24.041  0.00  0.00    -0.133 S 
BRANCH  20  21
ATOM     21  C   UNK A   2      33.456 -14.944 -25.084  0.00  0.00    +0.084 C 
BRANCH  21  22
ATOM     22  C   UNK A   2      34.152 -16.109 -24.434  0.00  0.00    -0.011 C 
ATOM     23  C   UNK A   2      34.708 -15.969 -23.162  0.00  0.00    -0.003 C 
ATOM     24  C   UNK A   2      34.243 -17.328 -25.104  0.00  0.00    -0.003 C 
ATOM     25  C   UNK A   2      35.353 -17.049 -22.560  0.00  0.00    -0.000 C 
ATOM     26  C   UNK A   2      34.889 -18.409 -24.502  0.00  0.00    -0.000 C 
ATOM     27  C   UNK A   2      35.443 -18.269 -23.230  0.00  0.00    -0.000 C 
ENDBRANCH  21  22
ENDBRANCH  20  21
ENDBRANCH  19  20
ENDBRANCH  16  19
ENDBRANCH  13  16
ENDBRANCH   1  14
BRANCH   1  28
ATOM     28  CB  PHE A   1      31.639  -8.993 -22.888  0.00  0.00    +0.055 C 
BRANCH  28  29
ATOM     29  CG  PHE A   1      31.612  -9.782 -21.601  0.00  0.00    -0.020 C 
ATOM     30  CD1 PHE A   1      31.251 -11.130 -21.616  0.00  0.00    -0.004 C 
ATOM     31  CD2 PHE A   1      31.948  -9.164 -20.397  0.00  0.00    -0.004 C 
ATOM     32  CE1 PHE A   1      31.227 -11.858 -20.428  0.00  0.00    -0.000 C 
ATOM     33  CE2 PHE A   1      31.924  -9.892 -19.208  0.00  0.00    -0.000 C 
ATOM     34  CZ  PHE A   1      31.563 -11.239 -19.223  0.00  0.00    -0.000 C 
ENDBRANCH  28  29
ENDBRANCH   1  28
TORSDOF 10
ENDMDL
MODEL 5
REMARK VINA RESULT:      -9.6      1.909      5.167
REMARK  Name = 5287870
REMARK  10 active torsions:
REMARK  status: ('A' for Active; 'I' for Inactive)
REMARK    1  A    between atoms: CA_1  and  N_5
REMARK    2  A    between atoms: CA_1  and  C_14
REMARK    3  A    between atoms: CA_1  and  CB_28
REMARK    4  A    between atoms: N_13  and  C_16
REMARK    5  A    between atoms: C_16  and  C_18
REMARK    6  A    between atoms: C_16  and  C_19
REMARK    7  A    between atoms: C_19  and  S_20
REMARK    8  A    between atoms: S_20  and  C_21
REMARK    9  A    between atoms: C_21  and  C_22
REMARK   10  A    between atoms: CB_28  and  CG_29
REMARK                            x       y       z     vdW  Elec       q    Type
REMARK                         _______ _______ _______ _____ _____    ______ ____
ROOT
ATOM      1  CA  PHE A   1      33.374 -23.265 -16.758  0.00  0.00    +0.154 C 
ENDROOT
BRANCH   1   5
ATOM      2  O   UNK A   0      26.987 -22.899 -16.253  0.00  0.00    -0.350 OA
ATOM      3  O   UNK A   0      31.659 -22.405 -14.701  0.00  0.00    -0.253 OA
ATOM      4  N   UNK A   0      29.772 -23.136 -15.834  0.00  0.00    -0.259 N 
ATOM      5  N   PHE A   1      31.934 -23.391 -16.754  0.00  0.00    -0.282 N 
ATOM      6  C   UNK A   0      28.876 -22.696 -14.761  0.00  0.00    +0.127 C 
ATOM      7  C   UNK A   0      29.107 -23.893 -16.904  0.00  0.00    +0.127 C 
ATOM      8  C   UNK A   0      27.636 -22.025 -15.328  0.00  0.00    +0.164 C 
ATOM      9  C   UNK A   0      27.838 -23.183 -17.364  0.00  0.00    +0.164 C 
ATOM     10  C   UNK A   0      31.156 -22.937 -15.696  0.00  0.00    +0.304 C 
ATOM     11  H   PHE A   1      31.490 -23.809 -17.527  0.00  0.00    +0.151 HD
ENDBRANCH   1   5
BRANCH   1  14
ATOM     12  O   PHE A   1      33.799 -24.102 -18.993  0.00  0.00    -0.273 OA
ATOM     13  N   UNK A   2      34.176 -21.854 -18.548  0.00  0.00    -0.297 N 
ATOM     14  C   PHE A   1      33.814 -23.152 -18.213  0.00  0.00    +0.241 C 
ATOM     15  H   UNK A   2      34.154 -21.167 -17.844  0.00  0.00    +0.150 HD
BRANCH  13  16
ATOM     16  C   UNK A   2      34.586 -21.463 -19.877  0.00  0.00    +0.148 C 
BRANCH  16  18
ATOM     17  O   UNK A   2      36.757 -21.241 -18.835  0.00  0.00    -0.286 OA
ATOM     18  C   UNK A   2      36.094 -21.323 -19.866  0.00  0.00    +0.228 C 
ENDBRANCH  16  18
BRANCH  16  19
ATOM     19  C   UNK A   2      33.856 -20.225 -20.394  0.00  0.00    +0.085 C 
BRANCH  19  20
ATOM     20  S   UNK A   2      34.625 -19.471 -21.865  0.00  0.00    -0.133 S 
BRANCH  20  21
ATOM     21  C   UNK A   2      35.446 -18.088 -21.043  0.00  0.00    +0.084 C 
BRANCH  21  22
ATOM     22  C   UNK A   2      34.998 -16.759 -21.587  0.00  0.00    -0.011 C 
ATOM     23  C   UNK A   2      35.021 -16.523 -22.962  0.00  0.00    -0.003 C 
ATOM     24  C   UNK A   2      34.562 -15.761 -20.716  0.00  0.00    -0.003 C 
ATOM     25  C   UNK A   2      34.607 -15.291 -23.465  0.00  0.00    -0.000 C 
ATOM     26  C   UNK A   2      34.147 -14.528 -21.220  0.00  0.00    -0.000 C 
ATOM     27  C   UNK A   2      34.169 -14.293 -22.594  0.00  0.00    -0.000 C 
ENDBRANCH  21  22
ENDBRANCH  20  21
ENDBRANCH  19  20
ENDBRANCH  16  19
ENDBRANCH  13  16
ENDBRANCH   1  14
BRANCH   1  28
ATOM     28  CB  PHE A   1      34.062 -24.459 -16.085  0.00  0.00    +0.055 C 
BRANCH  28  29
ATOM     29  CG  PHE A   1      34.917 -24.053 -14.909  0.00  0.00    -0.020 C 
ATOM     30  CD1 PHE A   1      34.440 -24.220 -13.609  0.00  0.00    -0.004 C 
ATOM     31  CD2 PHE A   1      36.184 -23.510 -15.122  0.00  0.00    -0.004 C 
ATOM     32  CE1 PHE A   1      35.230 -23.846 -12.523  0.00  0.00    -0.000 C 
ATOM     33  CE2 PHE A   1      36.974 -23.136 -14.036  0.00  0.00    -0.000 C 
ATOM     34  CZ  PHE A   1      36.497 -23.303 -12.736  0.00  0.00    -0.000 C 
ENDBRANCH  28  29
ENDBRANCH   1  28
TORSDOF 10
ENDMDL
MODEL 6
REMARK VINA RESULT:      -9.4      8.542     13.125
REMARK  Name = 5287870
REMARK  10 active torsions:
REMARK  status: ('A' for Active; 'I' for Inactive)
REMARK    1  A    between atoms: CA_1  and  N_5
REMARK    2  A    between atoms: CA_1  and  C_14
REMARK    3  A    between atoms: CA_1  and  CB_28
REMARK    4  A    between atoms: N_13  and  C_16
REMARK    5  A    between atoms: C_16  and  C_18
REMARK    6  A    between atoms: C_16  and  C_19
REMARK    7  A    between atoms: C_19  and  S_20
REMARK    8  A    between atoms: S_20  and  C_21
REMARK    9  A    between atoms: C_21  and  C_22
REMARK   10  A    between atoms: CB_28  and  CG_29
REMARK                            x       y       z     vdW  Elec       q    Type
REMARK                         _______ _______ _______ _____ _____    ______ ____
ROOT
ATOM      1  CA  PHE A   1      33.108 -11.696 -23.037  0.00  0.00    +0.154 C 
ENDROOT
BRANCH   1   5
ATOM      2  O   UNK A   0      31.095  -5.612 -23.399  0.00  0.00    -0.350 OA
ATOM      3  O   UNK A   0      32.671  -9.701 -21.101  0.00  0.00    -0.253 OA
ATOM      4  N   UNK A   0      31.713  -8.267 -22.651  0.00  0.00    -0.259 N 
ATOM      5  N   PHE A   1      32.502 -10.406 -23.278  0.00  0.00    -0.282 N 
ATOM      6  C   UNK A   0      31.477  -7.230 -21.645  0.00  0.00    +0.127 C 
ATOM      7  C   UNK A   0      31.131  -7.975 -23.969  0.00  0.00    +0.127 C 
ATOM      8  C   UNK A   0      31.820  -5.853 -22.191  0.00  0.00    +0.164 C 
ATOM      9  C   UNK A   0      31.466  -6.553 -24.407  0.00  0.00    +0.164 C 
ATOM     10  C   UNK A   0      32.322  -9.472 -22.264  0.00  0.00    +0.304 C 
ATOM     11  H   PHE A   1      32.208 -10.180 -24.190  0.00  0.00    +0.151 HD
ENDBRANCH   1   5
BRANCH   1  14
ATOM     12  O   PHE A   1      34.338 -11.578 -25.122  0.00  0.00    -0.273 OA
ATOM     13  N   UNK A   2      33.157 -13.514 -24.625  0.00  0.00    -0.297 N 
ATOM     14  C   PHE A   1      33.600 -12.222 -24.380  0.00  0.00    +0.241 C 
ATOM     15  H   UNK A   2      32.565 -13.939 -23.963  0.00  0.00    +0.150 HD
BRANCH  13  16
ATOM     16  C   UNK A   2      33.519 -14.267 -25.805  0.00  0.00    +0.148 C 
BRANCH  16  18
ATOM     17  O   UNK A   2      32.740 -13.072 -27.759  0.00  0.00    -0.286 OA
ATOM     18  C   UNK A   2      32.524 -13.915 -26.892  0.00  0.00    +0.228 C 
ENDBRANCH  16  18
BRANCH  16  19
ATOM     19  C   UNK A   2      33.648 -15.766 -25.549  0.00  0.00    +0.085 C 
BRANCH  19  20
ATOM     20  S   UNK A   2      34.841 -16.195 -24.239  0.00  0.00    -0.133 S 
BRANCH  20  21
ATOM     21  C   UNK A   2      34.550 -17.977 -24.201  0.00  0.00    +0.084 C 
BRANCH  21  22
ATOM     22  C   UNK A   2      34.965 -18.592 -22.893  0.00  0.00    -0.011 C 
ATOM     23  C   UNK A   2      36.253 -18.380 -22.399  0.00  0.00    -0.003 C 
ATOM     24  C   UNK A   2      34.064 -19.377 -22.175  0.00  0.00    -0.003 C 
ATOM     25  C   UNK A   2      36.637 -18.951 -21.187  0.00  0.00    -0.000 C 
ATOM     26  C   UNK A   2      34.449 -19.949 -20.962  0.00  0.00    -0.000 C 
ATOM     27  C   UNK A   2      35.735 -19.735 -20.468  0.00  0.00    -0.000 C 
ENDBRANCH  21  22
ENDBRANCH  20  21
ENDBRANCH  19  20
ENDBRANCH  16  19
ENDBRANCH  13  16
ENDBRANCH   1  14
BRANCH   1  28
ATOM     28  CB  PHE A   1      32.126 -12.688 -22.403  0.00  0.00    +0.055 C 
BRANCH  28  29
ATOM     29  CG  PHE A   1      32.820 -13.837 -21.712  0.00  0.00    -0.020 C 
ATOM     30  CD1 PHE A   1      32.121 -15.013 -21.441  0.00  0.00    -0.004 C 
ATOM     31  CD2 PHE A   1      34.161 -13.721 -21.344  0.00  0.00    -0.004 C 
ATOM     32  CE1 PHE A   1      32.764 -16.074 -20.803  0.00  0.00    -0.000 C 
ATOM     33  CE2 PHE A   1      34.803 -14.782 -20.707  0.00  0.00    -0.000 C 
ATOM     34  CZ  PHE A   1      34.104 -15.958 -20.436  0.00  0.00    -0.000 C 
ENDBRANCH  28  29
ENDBRANCH   1  28
TORSDOF 10
ENDMDL
MODEL 7
REMARK VINA RESULT:      -9.3      6.400     12.628
REMARK  Name = 5287870
REMARK  10 active torsions:
REMARK  status: ('A' for Active; 'I' for Inactive)
REMARK    1  A    between atoms: CA_1  and  N_5
REMARK    2  A    between atoms: CA_1  and  C_14
REMARK    3  A    between atoms: CA_1  and  CB_28
REMARK    4  A    between atoms: N_13  and  C_16
REMARK    5  A    between atoms: C_16  and  C_18
REMARK    6  A    between atoms: C_16  and  C_19
REMARK    7  A    between atoms: C_19  and  S_20
REMARK    8  A    between atoms: S_20  and  C_21
REMARK    9  A    between atoms: C_21  and  C_22
REMARK   10  A    between atoms: CB_28  and  CG_29
REMARK                            x       y       z     vdW  Elec       q    Type
REMARK                         _______ _______ _______ _____ _____    ______ ____
ROOT
ATOM      1  CA  PHE A   1      32.619 -13.463 -23.895  0.00  0.00    +0.154 C 
ENDROOT
BRANCH   1   5
ATOM      2  O   UNK A   0      31.908  -8.869 -19.470  0.00  0.00    -0.350 OA
ATOM      3  O   UNK A   0      31.648 -13.477 -21.255  0.00  0.00    -0.253 OA
ATOM      4  N   UNK A   0      31.721 -11.163 -21.111  0.00  0.00    -0.259 N 
ATOM      5  N   PHE A   1      32.385 -12.294 -23.077  0.00  0.00    -0.282 N 
ATOM      6  C   UNK A   0      31.209 -11.166 -19.738  0.00  0.00    +0.127 C 
ATOM      7  C   UNK A   0      31.853  -9.825 -21.705  0.00  0.00    +0.127 C 
ATOM      8  C   UNK A   0      31.960 -10.167 -18.874  0.00  0.00    +0.164 C 
ATOM      9  C   UNK A   0      32.555  -8.872 -20.743  0.00  0.00    +0.164 C 
ATOM     10  C   UNK A   0      31.904 -12.387 -21.777  0.00  0.00    +0.304 C 
ATOM     11  H   PHE A   1      32.576 -11.404 -23.453  0.00  0.00    +0.151 HD
ENDBRANCH   1   5
BRANCH   1  14
ATOM     12  O   PHE A   1      34.576 -13.669 -22.480  0.00  0.00    -0.273 OA
ATOM     13  N   UNK A   2      33.997 -15.447 -23.857  0.00  0.00    -0.297 N 
ATOM     14  C   PHE A   1      33.846 -14.171 -23.332  0.00  0.00    +0.241 C 
ATOM     15  H   UNK A   2      33.354 -15.751 -24.538  0.00  0.00    +0.150 HD
BRANCH  13  16
ATOM     16  C   UNK A   2      35.050 -16.351 -23.455  0.00  0.00    +0.148 C 
BRANCH  16  18
ATOM     17  O   UNK A   2      34.674 -17.410 -25.598  0.00  0.00    -0.286 OA
ATOM     18  C   UNK A   2      35.054 -17.508 -24.434  0.00  0.00    +0.228 C 
ENDBRANCH  16  18
BRANCH  16  19
ATOM     19  C   UNK A   2      34.953 -16.781 -21.994  0.00  0.00    +0.085 C 
BRANCH  19  20
ATOM     20  S   UNK A   2      35.779 -18.364 -21.630  0.00  0.00    -0.133 S 
BRANCH  20  21
ATOM     21  C   UNK A   2      34.305 -19.401 -21.517  0.00  0.00    +0.084 C 
BRANCH  21  22
ATOM     22  C   UNK A   2      34.426 -20.445 -20.441  0.00  0.00    -0.011 C 
ATOM     23  C   UNK A   2      35.685 -20.824 -19.974  0.00  0.00    -0.003 C 
ATOM     24  C   UNK A   2      33.279 -21.036 -19.911  0.00  0.00    -0.003 C 
ATOM     25  C   UNK A   2      35.797 -21.792 -18.977  0.00  0.00    -0.000 C 
ATOM     26  C   UNK A   2      33.391 -22.005 -18.913  0.00  0.00    -0.000 C 
ATOM     27  C   UNK A   2      34.650 -22.382 -18.446  0.00  0.00    -0.000 C 
ENDBRANCH  21  22
ENDBRANCH  20  21
ENDBRANCH  19  20
ENDBRANCH  16  19
ENDBRANCH  13  16
ENDBRANCH   1  14
BRANCH   1  28
ATOM     28  CB  PHE A   1      32.842 -13.103 -25.369  0.00  0.00    +0.055 C 
BRANCH  28  29
ATOM     29  CG  PHE A   1      33.855 -12.000 -25.554  0.00  0.00    -0.020 C 
ATOM     30  CD1 PHE A   1      34.037 -11.045 -24.553  0.00  0.00    -0.004 C 
ATOM     31  CD2 PHE A   1      34.610 -11.935 -26.725  0.00  0.00    -0.004 C 
ATOM     32  CE1 PHE A   1      34.974 -10.026 -24.725  0.00  0.00    -0.000 C 
ATOM     33  CE2 PHE A   1      35.546 -10.916 -26.896  0.00  0.00    -0.000 C 
ATOM     34  CZ  PHE A   1      35.728  -9.961 -25.896  0.00  0.00    -0.000 C 
ENDBRANCH  28  29
ENDBRANCH   1  28
TORSDOF 10
ENDMDL
MODEL 8
REMARK VINA RESULT:      -9.1      5.397     11.840
REMARK  Name = 5287870
REMARK  10 active torsions:
REMARK  status: ('A' for Active; 'I' for Inactive)
REMARK    1  A    between atoms: CA_1  and  N_5
REMARK    2  A    between atoms: CA_1  and  C_14
REMARK    3  A    between atoms: CA_1  and  CB_28
REMARK    4  A    between atoms: N_13  and  C_16
REMARK    5  A    between atoms: C_16  and  C_18
REMARK    6  A    between atoms: C_16  and  C_19
REMARK    7  A    between atoms: C_19  and  S_20
REMARK    8  A    between atoms: S_20  and  C_21
REMARK    9  A    between atoms: C_21  and  C_22
REMARK   10  A    between atoms: CB_28  and  CG_29
REMARK                            x       y       z     vdW  Elec       q    Type
REMARK                         _______ _______ _______ _____ _____    ______ ____
ROOT
ATOM      1  CA  PHE A   1      33.669 -13.967 -21.509  0.00  0.00    +0.154 C 
ENDROOT
BRANCH   1   5
ATOM      2  O   UNK A   0      33.505 -13.665 -27.918  0.00  0.00    -0.350 OA
ATOM      3  O   UNK A   0      34.177 -11.898 -23.345  0.00  0.00    -0.253 OA
ATOM      4  N   UNK A   0      33.432 -13.169 -25.136  0.00  0.00    -0.259 N 
ATOM      5  N   PHE A   1      33.437 -14.029 -22.935  0.00  0.00    -0.282 N 
ATOM      6  C   UNK A   0      33.689 -12.091 -26.094  0.00  0.00    +0.127 C 
ATOM      7  C   UNK A   0      32.745 -14.336 -25.708  0.00  0.00    +0.127 C 
ATOM      8  C   UNK A   0      34.323 -12.631 -27.366  0.00  0.00    +0.164 C 
ATOM      9  C   UNK A   0      33.404 -14.766 -27.015  0.00  0.00    +0.164 C 
ATOM     10  C   UNK A   0      33.717 -12.960 -23.776  0.00  0.00    +0.304 C 
ATOM     11  H   PHE A   1      33.071 -14.857 -23.322  0.00  0.00    +0.151 HD
ENDBRANCH   1   5
BRANCH   1  14
ATOM     12  O   PHE A   1      34.924 -15.391 -20.002  0.00  0.00    -0.273 OA
ATOM     13  N   UNK A   2      34.508 -16.136 -22.162  0.00  0.00    -0.297 N 
ATOM     14  C   PHE A   1      34.449 -15.218 -21.123  0.00  0.00    +0.241 C 
ATOM     15  H   UNK A   2      34.095 -15.894 -23.022  0.00  0.00    +0.150 HD
BRANCH  13  16
ATOM     16  C   UNK A   2      35.146 -17.427 -22.045  0.00  0.00    +0.148 C 
BRANCH  16  18
ATOM     17  O   UNK A   2      34.998 -17.358 -24.459  0.00  0.00    -0.286 OA
ATOM     18  C   UNK A   2      35.341 -17.966 -23.448  0.00  0.00    +0.228 C 
ENDBRANCH  16  18
BRANCH  16  19
ATOM     19  C   UNK A   2      34.406 -18.385 -21.115  0.00  0.00    +0.085 C 
BRANCH  19  20
ATOM     20  S   UNK A   2      34.618 -20.144 -21.540  0.00  0.00    -0.133 S 
BRANCH  20  21
ATOM     21  C   UNK A   2      35.966 -20.523 -20.399  0.00  0.00    +0.084 C 
BRANCH  21  22
ATOM     22  C   UNK A   2      35.509 -21.369 -19.243  0.00  0.00    -0.011 C 
ATOM     23  C   UNK A   2      34.225 -21.915 -19.240  0.00  0.00    -0.003 C 
ATOM     24  C   UNK A   2      36.370 -21.607 -18.171  0.00  0.00    -0.003 C 
ATOM     25  C   UNK A   2      33.802 -22.698 -18.168  0.00  0.00    -0.000 C 
ATOM     26  C   UNK A   2      35.947 -22.392 -17.098  0.00  0.00    -0.000 C 
ATOM     27  C   UNK A   2      34.663 -22.938 -17.097  0.00  0.00    -0.000 C 
ENDBRANCH  21  22
ENDBRANCH  20  21
ENDBRANCH  19  20
ENDBRANCH  16  19
ENDBRANCH  13  16
ENDBRANCH   1  14
BRANCH   1  28
ATOM     28  CB  PHE A   1      32.360 -13.888 -20.712  0.00  0.00    +0.055 C 
BRANCH  28  29
ATOM     29  CG  PHE A   1      31.925 -12.468 -20.444  0.00  0.00    -0.020 C 
ATOM     30  CD1 PHE A   1      31.927 -11.973 -19.140  0.00  0.00    -0.004 C 
ATOM     31  CD2 PHE A   1      31.520 -11.652 -21.500  0.00  0.00    -0.004 C 
ATOM     32  CE1 PHE A   1      31.525 -10.660 -18.893  0.00  0.00    -0.000 C 
ATOM     33  CE2 PHE A   1      31.118 -10.340 -21.253  0.00  0.00    -0.000 C 
ATOM     34  CZ  PHE A   1      31.120  -9.844 -19.949  0.00  0.00    -0.000 C 
ENDBRANCH  28  29
ENDBRANCH   1  28
TORSDOF 10
ENDMDL
MODEL 9
REMARK VINA RESULT:      -9.1      7.243     12.207
REMARK  Name = 5287870
REMARK  10 active torsions:
REMARK  status: ('A' for Active; 'I' for Inactive)
REMARK    1  A    between atoms: CA_1  and  N_5
REMARK    2  A    between atoms: CA_1  and  C_14
REMARK    3  A    between atoms: CA_1  and  CB_28
REMARK    4  A    between atoms: N_13  and  C_16
REMARK    5  A    between atoms: C_16  and  C_18
REMARK    6  A    between atoms: C_16  and  C_19
REMARK    7  A    between atoms: C_19  and  S_20
REMARK    8  A    between atoms: S_20  and  C_21
REMARK    9  A    between atoms: C_21  and  C_22
REMARK   10  A    between atoms: CB_28  and  CG_29
REMARK                            x       y       z     vdW  Elec       q    Type
REMARK                         _______ _______ _______ _____ _____    ______ ____
ROOT
ATOM      1  CA  PHE A   1      33.790 -13.577 -23.050  0.00  0.00    +0.154 C 
ENDROOT
BRANCH   1   5
ATOM      2  O   UNK A   0      35.127 -19.810 -22.309  0.00  0.00    -0.350 OA
ATOM      3  O   UNK A   0      34.922 -15.059 -20.944  0.00  0.00    -0.253 OA
ATOM      4  N   UNK A   0      35.035 -16.986 -22.228  0.00  0.00    -0.259 N 
ATOM      5  N   PHE A   1      34.164 -14.972 -23.107  0.00  0.00    -0.282 N 
ATOM      6  C   UNK A   0      35.631 -17.759 -21.136  0.00  0.00    +0.127 C 
ATOM      7  C   UNK A   0      34.969 -17.703 -23.510  0.00  0.00    +0.127 C 
ATOM      8  C   UNK A   0      35.014 -19.145 -21.049  0.00  0.00    +0.164 C 
ATOM      9  C   UNK A   0      34.403 -19.106 -23.319  0.00  0.00    +0.164 C 
ATOM     10  C   UNK A   0      34.718 -15.634 -22.018  0.00  0.00    +0.304 C 
ATOM     11  H   PHE A   1      34.018 -15.471 -23.944  0.00  0.00    +0.151 HD
ENDBRANCH   1   5
BRANCH   1  14
ATOM     12  O   PHE A   1      31.918 -14.404 -21.753  0.00  0.00    -0.273 OA
ATOM     13  N   UNK A   2      32.547 -12.180 -21.521  0.00  0.00    -0.297 N 
ATOM     14  C   PHE A   1      32.639 -13.457 -22.059  0.00  0.00    +0.241 C 
ATOM     15  H   UNK A   2      33.176 -11.493 -21.839  0.00  0.00    +0.150 HD
BRANCH  13  16
ATOM     16  C   UNK A   2      31.574 -11.810 -20.519  0.00  0.00    +0.148 C 
BRANCH  16  18
ATOM     17  O   UNK A   2      30.381 -10.897 -22.416  0.00  0.00    -0.286 OA
ATOM     18  C   UNK A   2      30.359 -11.267 -21.244  0.00  0.00    +0.228 C 
ENDBRANCH  16  18
BRANCH  16  19
ATOM     19  C   UNK A   2      32.130 -10.866 -19.457  0.00  0.00    +0.085 C 
BRANCH  19  20
ATOM     20  S   UNK A   2      31.526  -9.152 -19.598  0.00  0.00    -0.133 S 
BRANCH  20  21
ATOM     21  C   UNK A   2      32.730  -8.556 -20.806  0.00  0.00    +0.084 C 
BRANCH  21  22
ATOM     22  C   UNK A   2      32.131  -7.557 -21.758  0.00  0.00    -0.011 C 
ATOM     23  C   UNK A   2      31.997  -6.222 -21.376  0.00  0.00    -0.003 C 
ATOM     24  C   UNK A   2      31.709  -7.965 -23.023  0.00  0.00    -0.003 C 
ATOM     25  C   UNK A   2      31.442  -5.296 -22.258  0.00  0.00    -0.000 C 
ATOM     26  C   UNK A   2      31.154  -7.039 -23.906  0.00  0.00    -0.000 C 
ATOM     27  C   UNK A   2      31.021  -5.704 -23.524  0.00  0.00    -0.000 C 
ENDBRANCH  21  22
ENDBRANCH  20  21
ENDBRANCH  19  20
ENDBRANCH  16  19
ENDBRANCH  13  16
ENDBRANCH   1  14
BRANCH   1  28
ATOM     28  CB  PHE A   1      33.371 -13.034 -24.422  0.00  0.00    +0.055 C 
BRANCH  28  29
ATOM     29  CG  PHE A   1      34.085 -11.755 -24.787  0.00  0.00    -0.020 C 
ATOM     30  CD1 PHE A   1      34.098 -10.684 -23.894  0.00  0.00    -0.004 C 
ATOM     31  CD2 PHE A   1      34.732 -11.645 -26.018  0.00  0.00    -0.004 C 
ATOM     32  CE1 PHE A   1      34.759  -9.503 -24.232  0.00  0.00    -0.000 C 
ATOM     33  CE2 PHE A   1      35.392 -10.464 -26.356  0.00  0.00    -0.000 C 
ATOM     34  CZ  PHE A   1      35.406  -9.393 -25.463  0.00  0.00    -0.000 C 
ENDBRANCH  28  29
ENDBRANCH   1  28
TORSDOF 10
ENDMDL
