MODEL 1
REMARK VINA RESULT:     -11.7      0.000      0.000
REMARK  Name = 42642648
REMARK  5 active torsions:
REMARK  status: ('A' for Active; 'I' for Inactive)
REMARK    1  A    between atoms: N_1  and  C_22
REMARK    2  A    between atoms: C_4  and  N_15
REMARK    3  A    between atoms: C_25  and  O_28
REMARK    4  A    between atoms: O_28  and  C_29
REMARK    5  A    between atoms: C_29  and  C_32
REMARK                            x       y       z     vdW  Elec       q    Type
REMARK                         _______ _______ _______ _____ _____    ______ ____
ROOT
ATOM      1  N   UNL     1      34.056 -13.400 -23.751  0.00  0.00    -0.301 N 
ATOM      2  N   UNL     1      32.935 -16.255 -26.530  0.00  0.00    -0.248 NA
ATOM      3  N   UNL     1      32.910 -13.985 -25.721  0.00  0.00    -0.233 NA
ATOM      4  C   UNL     1      35.323 -17.425 -23.321  0.00  0.00    +0.048 C 
ATOM      5  C   UNL     1      34.116 -15.700 -24.519  0.00  0.00    +0.117 C 
ATOM      6  C   UNL     1      34.922 -16.098 -23.438  0.00  0.00    +0.001 C 
ATOM      7  C   UNL     1      33.705 -16.625 -25.492  0.00  0.00    +0.067 C 
ATOM      8  C   UNL     1      33.681 -14.390 -24.694  0.00  0.00    +0.115 C 
ATOM      9  C   UNL     1      34.922 -18.350 -24.278  0.00  0.00    +0.016 C 
ATOM     10  C   UNL     1      34.120 -17.947 -25.349  0.00  0.00    +0.016 C 
ATOM     11  C   UNL     1      32.579 -14.956 -26.588  0.00  0.00    +0.251 C 
ATOM     12  H   UNL     1      34.927 -13.568 -23.324  0.00  0.00    +0.153 HD
ENDROOT
BRANCH   4  15
ATOM     13  O   UNL     1      36.920 -19.041 -20.471  0.00  0.00    -0.448 OA
ATOM     14  N   UNL     1      35.057 -19.844 -21.520  0.00  0.00    -0.222 NA
ATOM     15  N   UNL     1      36.130 -17.830 -22.239  0.00  0.00    -0.269 N 
ATOM     16  C   UNL     1      35.446 -20.816 -20.486  0.00  0.00    +0.151 C 
ATOM     17  C   UNL     1      36.438 -20.071 -19.619  0.00  0.00    +0.233 C 
ATOM     18  C   UNL     1      35.977 -18.930 -21.451  0.00  0.00    +0.284 C 
ATOM     19  C   UNL     1      34.224 -21.292 -19.724  0.00  0.00    +0.030 C 
ATOM     20  H   UNL     1      36.897 -17.249 -22.028  0.00  0.00    +0.157 HD
ENDBRANCH   4  15
BRANCH   1  22
ATOM     21 CL   UNL     1      30.510 -11.247 -20.759  0.00  0.00    -0.079 Cl
ATOM     22  C   UNL     1      33.425 -12.226 -23.309  0.00  0.00    +0.050 C 
ATOM     23  C   UNL     1      32.401 -12.297 -22.366  0.00  0.00    +0.029 C 
ATOM     24  C   UNL     1      33.824 -10.989 -23.814  0.00  0.00    +0.018 C 
ATOM     25  C   UNL     1      32.174  -9.892 -22.432  0.00  0.00    +0.150 C 
ATOM     26  C   UNL     1      31.775 -11.131 -21.926  0.00  0.00    +0.093 C 
ATOM     27  C   UNL     1      33.198  -9.822 -23.375  0.00  0.00    +0.039 C 
BRANCH  25  28
ATOM     28  O   UNL     1      31.580  -8.736 -22.021  0.00  0.00    -0.468 OA
BRANCH  28  29
ATOM     29  C   UNL     1      32.441  -7.643 -21.706  0.00  0.00    +0.257 C 
BRANCH  29  32
ATOM     30  S   UNL     1      32.447  -6.204 -24.079  0.00  0.00    -0.067 S 
ATOM     31  N   UNL     1      31.212  -5.486 -21.925  0.00  0.00    -0.237 NA
ATOM     32  C   UNL     1      31.973  -6.423 -22.444  0.00  0.00    +0.132 C 
ATOM     33  C   UNL     1      31.565  -4.734 -24.112  0.00  0.00    +0.057 C 
ATOM     34  C   UNL     1      30.979  -4.518 -22.883  0.00  0.00    +0.106 C 
ENDBRANCH  29  32
ENDBRANCH  28  29
ENDBRANCH  25  28
ENDBRANCH   1  22
TORSDOF 5
ENDMDL
MODEL 2
REMARK VINA RESULT:     -11.4      4.767     11.227
REMARK  Name = 42642648
REMARK  5 active torsions:
REMARK  status: ('A' for Active; 'I' for Inactive)
REMARK    1  A    between atoms: N_1  and  C_22
REMARK    2  A    between atoms: C_4  and  N_15
REMARK    3  A    between atoms: C_25  and  O_28
REMARK    4  A    between atoms: O_28  and  C_29
REMARK    5  A    between atoms: C_29  and  C_32
REMARK                            x       y       z     vdW  Elec       q    Type
REMARK                         _______ _______ _______ _____ _____    ______ ____
ROOT
ATOM      1  N   UNL     1      33.869 -18.076 -21.776  0.00  0.00    -0.301 N 
ATOM      2  N   UNL     1      34.596 -16.547 -25.552  0.00  0.00    -0.248 NA
ATOM      3  N   UNL     1      34.657 -18.366 -23.974  0.00  0.00    -0.233 NA
ATOM      4  C   UNL     1      32.906 -14.045 -22.678  0.00  0.00    +0.048 C 
ATOM      5  C   UNL     1      33.782 -16.210 -23.323  0.00  0.00    +0.117 C 
ATOM      6  C   UNL     1      33.211 -15.363 -22.355  0.00  0.00    +0.001 C 
ATOM      7  C   UNL     1      34.051 -15.746 -24.620  0.00  0.00    +0.067 C 
ATOM      8  C   UNL     1      34.111 -17.537 -23.064  0.00  0.00    +0.115 C 
ATOM      9  C   UNL     1      33.169 -13.574 -23.960  0.00  0.00    +0.016 C 
ATOM     10  C   UNL     1      33.736 -14.421 -24.915  0.00  0.00    +0.016 C 
ATOM     11  C   UNL     1      34.870 -17.813 -25.179  0.00  0.00    +0.251 C 
ATOM     12  H   UNL     1      33.102 -17.668 -21.313  0.00  0.00    +0.153 HD
ENDROOT
BRANCH   4  15
ATOM     13  O   UNL     1      31.548 -11.303 -20.699  0.00  0.00    -0.448 OA
ATOM     14  N   UNL     1      32.361 -11.071 -22.821  0.00  0.00    -0.222 NA
ATOM     15  N   UNL     1      32.334 -13.192 -21.714  0.00  0.00    -0.269 N 
ATOM     16  C   UNL     1      31.824  -9.767 -22.399  0.00  0.00    +0.151 C 
ATOM     17  C   UNL     1      31.639  -9.900 -20.902  0.00  0.00    +0.233 C 
ATOM     18  C   UNL     1      32.105 -11.853 -21.817  0.00  0.00    +0.284 C 
ATOM     19  C   UNL     1      32.777  -8.653 -22.787  0.00  0.00    +0.030 C 
ATOM     20  H   UNL     1      32.069 -13.613 -20.864  0.00  0.00    +0.157 HD
ENDBRANCH   4  15
BRANCH   1  22
ATOM     21 CL   UNL     1      33.457 -22.377 -19.037  0.00  0.00    -0.079 Cl
ATOM     22  C   UNL     1      34.511 -19.080 -21.033  0.00  0.00    +0.050 C 
ATOM     23  C   UNL     1      33.765 -20.113 -20.466  0.00  0.00    +0.029 C 
ATOM     24  C   UNL     1      35.894 -19.043 -20.862  0.00  0.00    +0.018 C 
ATOM     25  C   UNL     1      35.788 -21.074 -19.558  0.00  0.00    +0.150 C 
ATOM     26  C   UNL     1      34.404 -21.111 -19.729  0.00  0.00    +0.093 C 
ATOM     27  C   UNL     1      36.533 -20.040 -20.125  0.00  0.00    +0.039 C 
BRANCH  25  28
ATOM     28  O   UNL     1      36.438 -22.034 -18.842  0.00  0.00    -0.468 OA
BRANCH  28  29
ATOM     29  C   UNL     1      36.925 -21.662 -17.554  0.00  0.00    +0.257 C 
BRANCH  29  32
ATOM     30  S   UNL     1      37.544 -23.269 -15.377  0.00  0.00    -0.067 S 
ATOM     31  N   UNL     1      35.208 -23.111 -16.473  0.00  0.00    -0.237 NA
ATOM     32  C   UNL     1      36.440 -22.658 -16.541  0.00  0.00    +0.132 C 
ATOM     33  C   UNL     1      36.281 -24.222 -14.717  0.00  0.00    +0.057 C 
ATOM     34  C   UNL     1      35.118 -24.008 -15.427  0.00  0.00    +0.106 C 
ENDBRANCH  29  32
ENDBRANCH  28  29
ENDBRANCH  25  28
ENDBRANCH   1  22
TORSDOF 5
ENDMDL
MODEL 3
REMARK VINA RESULT:     -11.3      1.319      1.605
REMARK  Name = 42642648
REMARK  5 active torsions:
REMARK  status: ('A' for Active; 'I' for Inactive)
REMARK    1  A    between atoms: N_1  and  C_22
REMARK    2  A    between atoms: C_4  and  N_15
REMARK    3  A    between atoms: C_25  and  O_28
REMARK    4  A    between atoms: O_28  and  C_29
REMARK    5  A    between atoms: C_29  and  C_32
REMARK                            x       y       z     vdW  Elec       q    Type
REMARK                         _______ _______ _______ _____ _____    ______ ____
ROOT
ATOM      1  N   UNL     1      34.154 -13.399 -23.830  0.00  0.00    -0.301 N 
ATOM      2  N   UNL     1      32.947 -16.338 -26.483  0.00  0.00    -0.248 NA
ATOM      3  N   UNL     1      33.000 -14.034 -25.780  0.00  0.00    -0.233 NA
ATOM      4  C   UNL     1      35.269 -17.443 -23.203  0.00  0.00    +0.048 C 
ATOM      5  C   UNL     1      34.134 -15.733 -24.490  0.00  0.00    +0.117 C 
ATOM      6  C   UNL     1      34.918 -16.110 -23.384  0.00  0.00    +0.001 C 
ATOM      7  C   UNL     1      33.696 -16.687 -25.422  0.00  0.00    +0.067 C 
ATOM      8  C   UNL     1      33.749 -14.418 -24.729  0.00  0.00    +0.115 C 
ATOM      9  C   UNL     1      34.840 -18.397 -24.119  0.00  0.00    +0.016 C 
ATOM     10  C   UNL     1      34.061 -18.015 -25.215  0.00  0.00    +0.016 C 
ATOM     11  C   UNL     1      32.639 -15.031 -26.604  0.00  0.00    +0.251 C 
ATOM     12  H   UNL     1      35.015 -13.579 -23.389  0.00  0.00    +0.153 HD
ENDROOT
BRANCH   4  15
ATOM     13  O   UNL     1      36.837 -19.030 -20.320  0.00  0.00    -0.448 OA
ATOM     14  N   UNL     1      35.064 -19.910 -21.460  0.00  0.00    -0.222 NA
ATOM     15  N   UNL     1      36.054 -17.827 -22.097  0.00  0.00    -0.269 N 
ATOM     16  C   UNL     1      35.464 -20.881 -20.429  0.00  0.00    +0.151 C 
ATOM     17  C   UNL     1      36.379 -20.102 -19.508  0.00  0.00    +0.233 C 
ATOM     18  C   UNL     1      35.929 -18.950 -21.336  0.00  0.00    +0.284 C 
ATOM     19  C   UNL     1      34.241 -21.438 -19.726  0.00  0.00    +0.030 C 
ATOM     20  H   UNL     1      36.778 -17.209 -21.844  0.00  0.00    +0.157 HD
ENDBRANCH   4  15
BRANCH   1  22
ATOM     21 CL   UNL     1      34.236  -8.289 -24.035  0.00  0.00    -0.079 Cl
ATOM     22  C   UNL     1      33.564 -12.183 -23.448  0.00  0.00    +0.050 C 
ATOM     23  C   UNL     1      34.117 -10.976 -23.874  0.00  0.00    +0.029 C 
ATOM     24  C   UNL     1      32.426 -12.184 -22.644  0.00  0.00    +0.018 C 
ATOM     25  C   UNL     1      32.391  -9.769 -22.690  0.00  0.00    +0.150 C 
ATOM     26  C   UNL     1      33.531  -9.769 -23.496  0.00  0.00    +0.093 C 
ATOM     27  C   UNL     1      31.839 -10.977 -22.265  0.00  0.00    +0.039 C 
BRANCH  25  28
ATOM     28  O   UNL     1      31.797  -8.604 -22.304  0.00  0.00    -0.468 OA
BRANCH  28  29
ATOM     29  C   UNL     1      30.799  -8.069 -23.172  0.00  0.00    +0.257 C 
BRANCH  29  32
ATOM     30  S   UNL     1      30.795  -5.530 -22.053  0.00  0.00    -0.067 S 
ATOM     31  N   UNL     1      31.470  -6.063 -24.490  0.00  0.00    -0.237 NA
ATOM     32  C   UNL     1      31.054  -6.603 -23.367  0.00  0.00    +0.132 C 
ATOM     33  C   UNL     1      31.277  -4.225 -23.056  0.00  0.00    +0.057 C 
ATOM     34  C   UNL     1      31.597  -4.699 -24.311  0.00  0.00    +0.106 C 
ENDBRANCH  29  32
ENDBRANCH  28  29
ENDBRANCH  25  28
ENDBRANCH   1  22
TORSDOF 5
ENDMDL
MODEL 4
REMARK VINA RESULT:     -11.3      6.036     10.850
REMARK  Name = 42642648
REMARK  5 active torsions:
REMARK  status: ('A' for Active; 'I' for Inactive)
REMARK    1  A    between atoms: N_1  and  C_22
REMARK    2  A    between atoms: C_4  and  N_15
REMARK    3  A    between atoms: C_25  and  O_28
REMARK    4  A    between atoms: O_28  and  C_29
REMARK    5  A    between atoms: C_29  and  C_32
REMARK                            x       y       z     vdW  Elec       q    Type
REMARK                         _______ _______ _______ _____ _____    ______ ____
ROOT
ATOM      1  N   UNL     1      33.478 -22.643 -18.202  0.00  0.00    -0.301 N 
ATOM      2  N   UNL     1      30.354 -23.036 -15.516  0.00  0.00    -0.248 NA
ATOM      3  N   UNL     1      31.244 -22.215 -17.599  0.00  0.00    -0.233 NA
ATOM      4  C   UNL     1      34.023 -24.779 -14.579  0.00  0.00    +0.048 C 
ATOM      5  C   UNL     1      32.636 -23.495 -16.093  0.00  0.00    +0.117 C 
ATOM      6  C   UNL     1      33.872 -24.084 -15.774  0.00  0.00    +0.001 C 
ATOM      7  C   UNL     1      31.541 -23.595 -15.220  0.00  0.00    +0.067 C 
ATOM      8  C   UNL     1      32.419 -22.787 -17.272  0.00  0.00    +0.115 C 
ATOM      9  C   UNL     1      32.946 -24.885 -13.706  0.00  0.00    +0.016 C 
ATOM     10  C   UNL     1      31.721 -24.296 -14.030  0.00  0.00    +0.016 C 
ATOM     11  C   UNL     1      30.270 -22.376 -16.688  0.00  0.00    +0.251 C 
ATOM     12  H   UNL     1      34.114 -23.393 -18.198  0.00  0.00    +0.153 HD
ENDROOT
BRANCH   4  15
ATOM     13  O   UNL     1      37.297 -25.717 -13.281  0.00  0.00    -0.448 OA
ATOM     14  N   UNL     1      36.143 -23.858 -12.623  0.00  0.00    -0.222 NA
ATOM     15  N   UNL     1      35.260 -25.371 -14.253  0.00  0.00    -0.269 N 
ATOM     16  C   UNL     1      37.368 -23.939 -11.812  0.00  0.00    +0.151 C 
ATOM     17  C   UNL     1      38.231 -24.956 -12.527  0.00  0.00    +0.233 C 
ATOM     18  C   UNL     1      36.189 -24.924 -13.364  0.00  0.00    +0.284 C 
ATOM     19  C   UNL     1      38.019 -22.573 -11.702  0.00  0.00    +0.030 C 
ATOM     20  H   UNL     1      35.478 -26.208 -14.725  0.00  0.00    +0.157 HD
ENDBRANCH   4  15
BRANCH   1  22
ATOM     21 CL   UNL     1      37.099 -19.933 -20.592  0.00  0.00    -0.079 Cl
ATOM     22  C   UNL     1      33.794 -21.636 -19.129  0.00  0.00    +0.050 C 
ATOM     23  C   UNL     1      35.127 -21.313 -19.380  0.00  0.00    +0.029 C 
ATOM     24  C   UNL     1      32.775 -20.959 -19.797  0.00  0.00    +0.018 C 
ATOM     25  C   UNL     1      34.421 -19.636 -20.970  0.00  0.00    +0.150 C 
ATOM     26  C   UNL     1      35.441 -20.313 -20.301  0.00  0.00    +0.093 C 
ATOM     27  C   UNL     1      33.088 -19.959 -20.718  0.00  0.00    +0.039 C 
BRANCH  25  28
ATOM     28  O   UNL     1      34.698 -18.654 -21.874  0.00  0.00    -0.468 OA
BRANCH  28  29
ATOM     29  C   UNL     1      34.885 -17.336 -21.361  0.00  0.00    +0.257 C 
BRANCH  29  32
ATOM     30  S   UNL     1      34.286 -14.698 -21.979  0.00  0.00    -0.067 S 
ATOM     31  N   UNL     1      34.344 -16.634 -23.690  0.00  0.00    -0.237 NA
ATOM     32  C   UNL     1      34.513 -16.341 -22.421  0.00  0.00    +0.132 C 
ATOM     33  C   UNL     1      33.931 -14.334 -23.616  0.00  0.00    +0.057 C 
ATOM     34  C   UNL     1      34.010 -15.483 -24.375  0.00  0.00    +0.106 C 
ENDBRANCH  29  32
ENDBRANCH  28  29
ENDBRANCH  25  28
ENDBRANCH   1  22
TORSDOF 5
ENDMDL
MODEL 5
REMARK VINA RESULT:     -11.0      5.024     11.646
REMARK  Name = 42642648
REMARK  5 active torsions:
REMARK  status: ('A' for Active; 'I' for Inactive)
REMARK    1  A    between atoms: N_1  and  C_22
REMARK    2  A    between atoms: C_4  and  N_15
REMARK    3  A    between atoms: C_25  and  O_28
REMARK    4  A    between atoms: O_28  and  C_29
REMARK    5  A    between atoms: C_29  and  C_32
REMARK                            x       y       z     vdW  Elec       q    Type
REMARK                         _______ _______ _______ _____ _____    ______ ____
ROOT
ATOM      1  N   UNL     1      33.451 -18.645 -21.154  0.00  0.00    -0.301 N 
ATOM      2  N   UNL     1      35.188 -16.980 -24.522  0.00  0.00    -0.248 NA
ATOM      3  N   UNL     1      34.634 -18.898 -23.173  0.00  0.00    -0.233 NA
ATOM      4  C   UNL     1      33.329 -14.452 -21.778  0.00  0.00    +0.048 C 
ATOM      5  C   UNL     1      33.980 -16.679 -22.472  0.00  0.00    +0.117 C 
ATOM      6  C   UNL     1      33.354 -15.823 -21.549  0.00  0.00    +0.001 C 
ATOM      7  C   UNL     1      34.587 -16.171 -23.632  0.00  0.00    +0.067 C 
ATOM      8  C   UNL     1      34.040 -18.059 -22.302  0.00  0.00    +0.115 C 
ATOM      9  C   UNL     1      33.926 -13.937 -22.923  0.00  0.00    +0.016 C 
ATOM     10  C   UNL     1      34.547 -14.793 -23.835  0.00  0.00    +0.016 C 
ATOM     11  C   UNL     1      35.179 -18.299 -24.244  0.00  0.00    +0.251 C 
ATOM     12  H   UNL     1      32.674 -18.148 -20.809  0.00  0.00    +0.153 HD
ENDROOT
BRANCH   4  15
ATOM     13  O   UNL     1      31.562 -11.804 -20.003  0.00  0.00    -0.448 OA
ATOM     14  N   UNL     1      31.865 -11.848 -22.267  0.00  0.00    -0.222 NA
ATOM     15  N   UNL     1      32.703 -13.589 -20.856  0.00  0.00    -0.269 N 
ATOM     16  C   UNL     1      31.032 -10.678 -21.946  0.00  0.00    +0.151 C 
ATOM     17  C   UNL     1      31.171 -10.512 -20.448  0.00  0.00    +0.233 C 
ATOM     18  C   UNL     1      32.052 -12.422 -21.117  0.00  0.00    +0.284 C 
ATOM     19  C   UNL     1      31.502  -9.466 -22.728  0.00  0.00    +0.030 C 
ATOM     20  H   UNL     1      32.741 -13.863 -19.911  0.00  0.00    +0.157 HD
ENDBRANCH   4  15
BRANCH   1  22
ATOM     21 CL   UNL     1      37.051 -21.764 -19.290  0.00  0.00    -0.079 Cl
ATOM     22  C   UNL     1      33.759 -19.799 -20.415  0.00  0.00    +0.050 C 
ATOM     23  C   UNL     1      35.090 -20.175 -20.234  0.00  0.00    +0.029 C 
ATOM     24  C   UNL     1      32.736 -20.567 -19.863  0.00  0.00    +0.018 C 
ATOM     25  C   UNL     1      34.372 -22.090 -18.946  0.00  0.00    +0.150 C 
ATOM     26  C   UNL     1      35.397 -21.320 -19.499  0.00  0.00    +0.093 C 
ATOM     27  C   UNL     1      33.042 -21.713 -19.129  0.00  0.00    +0.039 C 
BRANCH  25  28
ATOM     28  O   UNL     1      34.642 -23.214 -18.224  0.00  0.00    -0.468 OA
BRANCH  28  29
ATOM     29  C   UNL     1      34.249 -23.211 -16.852  0.00  0.00    +0.257 C 
BRANCH  29  32
ATOM     30  S   UNL     1      36.739 -22.674 -15.751  0.00  0.00    -0.067 S 
ATOM     31  N   UNL     1      35.444 -24.891 -15.452  0.00  0.00    -0.237 NA
ATOM     32  C   UNL     1      35.391 -23.704 -16.014  0.00  0.00    +0.132 C 
ATOM     33  C   UNL     1      37.464 -23.906 -14.805  0.00  0.00    +0.057 C 
ATOM     34  C   UNL     1      36.634 -25.006 -14.760  0.00  0.00    +0.106 C 
ENDBRANCH  29  32
ENDBRANCH  28  29
ENDBRANCH  25  28
ENDBRANCH   1  22
TORSDOF 5
ENDMDL
MODEL 6
REMARK VINA RESULT:     -11.0      1.368      1.684
REMARK  Name = 42642648
REMARK  5 active torsions:
REMARK  status: ('A' for Active; 'I' for Inactive)
REMARK    1  A    between atoms: N_1  and  C_22
REMARK    2  A    between atoms: C_4  and  N_15
REMARK    3  A    between atoms: C_25  and  O_28
REMARK    4  A    between atoms: O_28  and  C_29
REMARK    5  A    between atoms: C_29  and  C_32
REMARK                            x       y       z     vdW  Elec       q    Type
REMARK                         _______ _______ _______ _____ _____    ______ ____
ROOT
ATOM      1  N   UNL     1      34.221 -14.324 -23.326  0.00  0.00    -0.301 N 
ATOM      2  N   UNL     1      33.475 -17.323 -26.079  0.00  0.00    -0.248 NA
ATOM      3  N   UNL     1      33.309 -15.023 -25.379  0.00  0.00    -0.233 NA
ATOM      4  C   UNL     1      35.529 -18.289 -22.583  0.00  0.00    +0.048 C 
ATOM      5  C   UNL     1      34.418 -16.651 -23.979  0.00  0.00    +0.117 C 
ATOM      6  C   UNL     1      35.112 -16.981 -22.801  0.00  0.00    +0.001 C 
ATOM      7  C   UNL     1      34.136 -17.627 -24.948  0.00  0.00    +0.067 C 
ATOM      8  C   UNL     1      33.973 -15.362 -24.258  0.00  0.00    +0.115 C 
ATOM      9  C   UNL     1      35.255 -19.265 -23.535  0.00  0.00    +0.016 C 
ATOM     10  C   UNL     1      34.565 -18.930 -24.703  0.00  0.00    +0.016 C 
ATOM     11  C   UNL     1      33.096 -16.039 -26.232  0.00  0.00    +0.251 C 
ATOM     12  H   UNL     1      35.044 -14.449 -22.801  0.00  0.00    +0.153 HD
ENDROOT
BRANCH   4  15
ATOM     13  O   UNL     1      36.902 -19.780 -19.554  0.00  0.00    -0.448 OA
ATOM     14  N   UNL     1      35.303 -20.765 -20.855  0.00  0.00    -0.222 NA
ATOM     15  N   UNL     1      36.224 -18.626 -21.404  0.00  0.00    -0.269 N 
ATOM     16  C   UNL     1      35.659 -21.710 -19.785  0.00  0.00    +0.151 C 
ATOM     17  C   UNL     1      36.432 -20.878 -18.784  0.00  0.00    +0.233 C 
ATOM     18  C   UNL     1      36.093 -19.754 -20.653  0.00  0.00    +0.284 C 
ATOM     19  C   UNL     1      34.409 -22.340 -19.201  0.00  0.00    +0.030 C 
ATOM     20  H   UNL     1      36.883 -17.966 -21.085  0.00  0.00    +0.157 HD
ENDBRANCH   4  15
BRANCH   1  22
ATOM     21 CL   UNL     1      33.555  -9.316 -24.130  0.00  0.00    -0.079 Cl
ATOM     22  C   UNL     1      33.518 -13.150 -23.007  0.00  0.00    +0.050 C 
ATOM     23  C   UNL     1      33.838 -11.952 -23.644  0.00  0.00    +0.029 C 
ATOM     24  C   UNL     1      32.502 -13.185 -22.054  0.00  0.00    +0.018 C 
ATOM     25  C   UNL     1      32.121 -10.820 -22.373  0.00  0.00    +0.150 C 
ATOM     26  C   UNL     1      33.139 -10.786 -23.328  0.00  0.00    +0.093 C 
ATOM     27  C   UNL     1      31.803 -12.020 -21.737  0.00  0.00    +0.039 C 
BRANCH  25  28
ATOM     28  O   UNL     1      31.423  -9.697 -22.044  0.00  0.00    -0.468 OA
BRANCH  28  29
ATOM     29  C   UNL     1      32.113  -8.707 -21.283  0.00  0.00    +0.257 C 
BRANCH  29  32
ATOM     30  S   UNL     1      31.046  -7.172 -23.334  0.00  0.00    -0.067 S 
ATOM     31  N   UNL     1      31.774  -6.250 -21.032  0.00  0.00    -0.237 NA
ATOM     32  C   UNL     1      31.689  -7.346 -21.753  0.00  0.00    +0.132 C 
ATOM     33  C   UNL     1      30.858  -5.492 -23.046  0.00  0.00    +0.057 C 
ATOM     34  C   UNL     1      31.297  -5.188 -21.775  0.00  0.00    +0.106 C 
ENDBRANCH  29  32
ENDBRANCH  28  29
ENDBRANCH  25  28
ENDBRANCH   1  22
TORSDOF 5
ENDMDL
MODEL 7
REMARK VINA RESULT:     -10.9      6.109     11.251
REMARK  Name = 42642648
REMARK  5 active torsions:
REMARK  status: ('A' for Active; 'I' for Inactive)
REMARK    1  A    between atoms: N_1  and  C_22
REMARK    2  A    between atoms: C_4  and  N_15
REMARK    3  A    between atoms: C_25  and  O_28
REMARK    4  A    between atoms: O_28  and  C_29
REMARK    5  A    between atoms: C_29  and  C_32
REMARK                            x       y       z     vdW  Elec       q    Type
REMARK                         _______ _______ _______ _____ _____    ______ ____
ROOT
ATOM      1  N   UNL     1      34.314 -22.835 -17.494  0.00  0.00    -0.301 N 
ATOM      2  N   UNL     1      30.722 -23.675 -15.617  0.00  0.00    -0.248 NA
ATOM      3  N   UNL     1      31.970 -23.022 -17.572  0.00  0.00    -0.233 NA
ATOM      4  C   UNL     1      34.245 -23.974 -13.409  0.00  0.00    +0.048 C 
ATOM      5  C   UNL     1      33.110 -23.496 -15.495  0.00  0.00    +0.117 C 
ATOM      6  C   UNL     1      34.297 -23.599 -14.747  0.00  0.00    +0.001 C 
ATOM      7  C   UNL     1      31.862 -23.769 -14.911  0.00  0.00    +0.067 C 
ATOM      8  C   UNL     1      33.093 -23.126 -16.836  0.00  0.00    +0.115 C 
ATOM      9  C   UNL     1      33.016 -24.246 -12.819  0.00  0.00    +0.016 C 
ATOM     10  C   UNL     1      31.841 -24.141 -13.569  0.00  0.00    +0.016 C 
ATOM     11  C   UNL     1      30.837 -23.307 -16.908  0.00  0.00    +0.251 C 
ATOM     12  H   UNL     1      35.084 -23.334 -17.139  0.00  0.00    +0.153 HD
ENDROOT
BRANCH   4  15
ATOM     13  O   UNL     1      37.615 -24.459 -12.110  0.00  0.00    -0.448 OA
ATOM     14  N   UNL     1      37.029 -24.767 -14.296  0.00  0.00    -0.222 NA
ATOM     15  N   UNL     1      35.431 -24.077 -12.654  0.00  0.00    -0.269 N 
ATOM     16  C   UNL     1      38.482 -24.970 -14.186  0.00  0.00    +0.151 C 
ATOM     17  C   UNL     1      38.736 -25.103 -12.700  0.00  0.00    +0.233 C 
ATOM     18  C   UNL     1      36.668 -24.439 -13.092  0.00  0.00    +0.284 C 
ATOM     19  C   UNL     1      38.905 -26.192 -14.977  0.00  0.00    +0.030 C 
ATOM     20  H   UNL     1      35.355 -23.863 -11.696  0.00  0.00    +0.157 HD
ENDBRANCH   4  15
BRANCH   1  22
ATOM     21 CL   UNL     1      32.667 -19.771 -21.244  0.00  0.00    -0.079 Cl
ATOM     22  C   UNL     1      34.637 -21.972 -18.554  0.00  0.00    +0.050 C 
ATOM     23  C   UNL     1      33.622 -21.366 -19.293  0.00  0.00    +0.029 C 
ATOM     24  C   UNL     1      35.972 -21.723 -18.867  0.00  0.00    +0.018 C 
ATOM     25  C   UNL     1      35.279 -20.258 -20.659  0.00  0.00    +0.150 C 
ATOM     26  C   UNL     1      33.942 -20.508 -20.345  0.00  0.00    +0.093 C 
ATOM     27  C   UNL     1      36.293 -20.865 -19.920  0.00  0.00    +0.039 C 
BRANCH  25  28
ATOM     28  O   UNL     1      35.621 -19.425 -21.682  0.00  0.00    -0.468 OA
BRANCH  28  29
ATOM     29  C   UNL     1      35.661 -18.028 -21.394  0.00  0.00    +0.257 C 
BRANCH  29  32
ATOM     30  S   UNL     1      34.906 -18.108 -24.063  0.00  0.00    -0.067 S 
ATOM     31  N   UNL     1      34.928 -15.976 -22.603  0.00  0.00    -0.237 NA
ATOM     32  C   UNL     1      35.173 -17.267 -22.591  0.00  0.00    +0.132 C 
ATOM     33  C   UNL     1      34.420 -16.633 -24.789  0.00  0.00    +0.057 C 
ATOM     34  C   UNL     1      34.497 -15.613 -23.864  0.00  0.00    +0.106 C 
ENDBRANCH  29  32
ENDBRANCH  28  29
ENDBRANCH  25  28
ENDBRANCH   1  22
TORSDOF 5
ENDMDL
MODEL 8
REMARK VINA RESULT:     -10.1      3.739     11.496
REMARK  Name = 42642648
REMARK  5 active torsions:
REMARK  status: ('A' for Active; 'I' for Inactive)
REMARK    1  A    between atoms: N_1  and  C_22
REMARK    2  A    between atoms: C_4  and  N_15
REMARK    3  A    between atoms: C_25  and  O_28
REMARK    4  A    between atoms: O_28  and  C_29
REMARK    5  A    between atoms: C_29  and  C_32
REMARK                            x       y       z     vdW  Elec       q    Type
REMARK                         _______ _______ _______ _____ _____    ______ ____
ROOT
ATOM      1  N   UNL     1      33.294  -8.925 -23.712  0.00  0.00    -0.301 N 
ATOM      2  N   UNL     1      31.825  -6.197 -20.968  0.00  0.00    -0.248 NA
ATOM      3  N   UNL     1      32.715  -8.372 -21.499  0.00  0.00    -0.233 NA
ATOM      4  C   UNL     1      32.089  -5.058 -24.969  0.00  0.00    +0.048 C 
ATOM      5  C   UNL     1      32.404  -6.720 -23.235  0.00  0.00    +0.117 C 
ATOM      6  C   UNL     1      32.492  -6.333 -24.584  0.00  0.00    +0.001 C 
ATOM      7  C   UNL     1      31.913  -5.837 -22.260  0.00  0.00    +0.067 C 
ATOM      8  C   UNL     1      32.789  -7.979 -22.785  0.00  0.00    +0.115 C 
ATOM      9  C   UNL     1      31.600  -4.175 -24.013  0.00  0.00    +0.016 C 
ATOM     10  C   UNL     1      31.515  -4.568 -22.674  0.00  0.00    +0.016 C 
ATOM     11  C   UNL     1      32.230  -7.445 -20.657  0.00  0.00    +0.251 C 
ATOM     12  H   UNL     1      33.762  -8.520 -24.477  0.00  0.00    +0.153 HD
ENDROOT
BRANCH   4  15
ATOM     13  O   UNL     1      33.047  -4.148 -28.365  0.00  0.00    -0.448 OA
ATOM     14  N   UNL     1      34.519  -4.835 -26.759  0.00  0.00    -0.222 NA
ATOM     15  N   UNL     1      32.174  -4.664 -26.319  0.00  0.00    -0.269 N 
ATOM     16  C   UNL     1      35.271  -4.651 -28.011  0.00  0.00    +0.151 C 
ATOM     17  C   UNL     1      34.332  -3.872 -28.907  0.00  0.00    +0.233 C 
ATOM     18  C   UNL     1      33.291  -4.576 -27.093  0.00  0.00    +0.284 C 
ATOM     19  C   UNL     1      36.576  -3.928 -27.741  0.00  0.00    +0.030 C 
ATOM     20  H   UNL     1      31.324  -4.422 -26.755  0.00  0.00    +0.157 HD
ENDBRANCH   4  15
BRANCH   1  22
ATOM     21 CL   UNL     1      31.866 -13.283 -21.447  0.00  0.00    -0.079 Cl
ATOM     22  C   UNL     1      33.257 -10.329 -23.748  0.00  0.00    +0.050 C 
ATOM     23  C   UNL     1      32.655 -11.037 -22.709  0.00  0.00    +0.029 C 
ATOM     24  C   UNL     1      33.821 -11.013 -24.824  0.00  0.00    +0.018 C 
ATOM     25  C   UNL     1      33.181 -13.116 -23.823  0.00  0.00    +0.150 C 
ATOM     26  C   UNL     1      32.616 -12.431 -22.746  0.00  0.00    +0.093 C 
ATOM     27  C   UNL     1      33.783 -12.407 -24.861  0.00  0.00    +0.039 C 
BRANCH  25  28
ATOM     28  O   UNL     1      33.159 -14.478 -23.885  0.00  0.00    -0.468 OA
BRANCH  28  29
ATOM     29  C   UNL     1      33.687 -15.080 -25.066  0.00  0.00    +0.257 C 
BRANCH  29  32
ATOM     30  S   UNL     1      35.023 -16.713 -23.264  0.00  0.00    -0.067 S 
ATOM     31  N   UNL     1      34.007 -17.513 -25.502  0.00  0.00    -0.237 NA
ATOM     32  C   UNL     1      34.177 -16.459 -24.735  0.00  0.00    +0.132 C 
ATOM     33  C   UNL     1      35.181 -18.371 -23.670  0.00  0.00    +0.057 C 
ATOM     34  C   UNL     1      34.583 -18.609 -24.890  0.00  0.00    +0.106 C 
ENDBRANCH  29  32
ENDBRANCH  28  29
ENDBRANCH  25  28
ENDBRANCH   1  22
TORSDOF 5
ENDMDL
MODEL 9
REMARK VINA RESULT:      -9.9      4.129     10.598
REMARK  Name = 42642648
REMARK  5 active torsions:
REMARK  status: ('A' for Active; 'I' for Inactive)
REMARK    1  A    between atoms: N_1  and  C_22
REMARK    2  A    between atoms: C_4  and  N_15
REMARK    3  A    between atoms: C_25  and  O_28
REMARK    4  A    between atoms: O_28  and  C_29
REMARK    5  A    between atoms: C_29  and  C_32
REMARK                            x       y       z     vdW  Elec       q    Type
REMARK                         _______ _______ _______ _____ _____    ______ ____
ROOT
ATOM      1  N   UNL     1      33.838 -15.644 -23.001  0.00  0.00    -0.301 N 
ATOM      2  N   UNL     1      33.159 -14.976 -27.029  0.00  0.00    -0.248 NA
ATOM      3  N   UNL     1      33.349 -16.471 -25.149  0.00  0.00    -0.233 NA
ATOM      4  C   UNL     1      33.965 -11.706 -24.573  0.00  0.00    +0.048 C 
ATOM      5  C   UNL     1      33.658 -14.092 -24.857  0.00  0.00    +0.117 C 
ATOM      6  C   UNL     1      33.929 -12.987 -24.031  0.00  0.00    +0.001 C 
ATOM      7  C   UNL     1      33.420 -13.926 -26.231  0.00  0.00    +0.067 C 
ATOM      8  C   UNL     1      33.608 -15.398 -24.378  0.00  0.00    +0.115 C 
ATOM      9  C   UNL     1      33.732 -11.530 -25.932  0.00  0.00    +0.016 C 
ATOM     10  C   UNL     1      33.464 -12.633 -26.747  0.00  0.00    +0.016 C 
ATOM     11  C   UNL     1      33.138 -16.191 -26.446  0.00  0.00    +0.251 C 
ATOM     12  H   UNL     1      33.565 -14.902 -22.415  0.00  0.00    +0.153 HD
ENDROOT
BRANCH   4  15
ATOM     13  O   UNL     1      33.964  -8.631 -22.618  0.00  0.00    -0.448 OA
ATOM     14  N   UNL     1      32.168  -9.394 -23.806  0.00  0.00    -0.222 NA
ATOM     15  N   UNL     1      34.237 -10.595 -23.751  0.00  0.00    -0.269 N 
ATOM     16  C   UNL     1      31.749  -8.183 -23.084  0.00  0.00    +0.151 C 
ATOM     17  C   UNL     1      33.043  -7.548 -22.622  0.00  0.00    +0.233 C 
ATOM     18  C   UNL     1      33.398  -9.571 -23.429  0.00  0.00    +0.284 C 
ATOM     19  C   UNL     1      30.932  -7.283 -23.992  0.00  0.00    +0.030 C 
ATOM     20  H   UNL     1      35.142 -10.552 -23.364  0.00  0.00    +0.157 HD
ENDBRANCH   4  15
BRANCH   1  22
ATOM     21 CL   UNL     1      37.876 -18.666 -22.155  0.00  0.00    -0.079 Cl
ATOM     22  C   UNL     1      34.379 -16.741 -22.313  0.00  0.00    +0.050 C 
ATOM     23  C   UNL     1      35.701 -17.124 -22.540  0.00  0.00    +0.029 C 
ATOM     24  C   UNL     1      33.595 -17.448 -21.403  0.00  0.00    +0.018 C 
ATOM     25  C   UNL     1      35.453 -18.922 -20.944  0.00  0.00    +0.150 C 
ATOM     26  C   UNL     1      36.239 -18.214 -21.855  0.00  0.00    +0.093 C 
ATOM     27  C   UNL     1      34.132 -18.538 -20.718  0.00  0.00    +0.039 C 
BRANCH  25  28
ATOM     28  O   UNL     1      35.952 -19.991 -20.261  0.00  0.00    -0.468 OA
BRANCH  28  29
ATOM     29  C   UNL     1      35.160 -21.177 -20.250  0.00  0.00    +0.257 C 
BRANCH  29  32
ATOM     30  S   UNL     1      33.872 -22.651 -18.283  0.00  0.00    -0.067 S 
ATOM     31  N   UNL     1      36.289 -21.753 -18.104  0.00  0.00    -0.237 NA
ATOM     32  C   UNL     1      35.236 -21.804 -18.888  0.00  0.00    +0.132 C 
ATOM     33  C   UNL     1      34.749 -22.987 -16.848  0.00  0.00    +0.057 C 
ATOM     34  C   UNL     1      36.008 -22.432 -16.934  0.00  0.00    +0.106 C 
ENDBRANCH  29  32
ENDBRANCH  28  29
ENDBRANCH  25  28
ENDBRANCH   1  22
TORSDOF 5
ENDMDL
