MODEL 1
REMARK VINA RESULT:      -6.0      0.000      0.000
REMARK  Name = 444200
REMARK  4 active torsions:
REMARK  status: ('A' for Active; 'I' for Inactive)
REMARK    1  A    between atoms: C_2  and  O_8
REMARK    2  A    between atoms: C_3  and  O_10
REMARK    3  A    between atoms: C_4  and  O_12
REMARK    4  A    between atoms: C_6  and  O_14
REMARK                            x       y       z     vdW  Elec       q    Type
REMARK                         _______ _______ _______ _____ _____    ______ ____
ROOT
ATOM      1  O   UNL     1      38.521 -25.035 -12.694  0.00  0.00    -0.329 OA
ATOM      2  C   UNL     1      36.477 -25.350 -14.695  0.00  0.00    +0.171 C 
ATOM      3  C   UNL     1      37.961 -25.261 -15.062  0.00  0.00    +0.167 C 
ATOM      4  C   UNL     1      36.217 -24.636 -13.368  0.00  0.00    +0.196 C 
ATOM      5  C   UNL     1      38.827 -25.757 -13.897  0.00  0.00    +0.147 C 
ATOM      6  C   UNL     1      37.157 -25.162 -12.280  0.00  0.00    +0.262 C 
ATOM      7  C   UNL     1      40.318 -25.578 -14.164  0.00  0.00    +0.035 C 
ENDROOT
BRANCH   2   8
ATOM      8  O   UNL     1      35.685 -24.748 -15.716  0.00  0.00    -0.379 OA
ATOM      9  H   UNL     1      35.040 -25.392 -16.047  0.00  0.00    +0.211 HD
ENDBRANCH   2   8
BRANCH   3  10
ATOM     10  O   UNL     1      38.302 -23.902 -15.347  0.00  0.00    -0.379 OA
ATOM     11  H   UNL     1      38.790 -23.527 -14.596  0.00  0.00    +0.211 HD
ENDBRANCH   3  10
BRANCH   4  12
ATOM     12  O   UNL     1      34.867 -24.831 -12.958  0.00  0.00    -0.378 OA
ATOM     13  H   UNL     1      34.828 -25.548 -12.306  0.00  0.00    +0.211 HD
ENDBRANCH   4  12
BRANCH   6  14
ATOM     14  O   UNL     1      36.824 -26.511 -11.952  0.00  0.00    -0.358 OA
ATOM     15  H   UNL     1      36.271 -26.886 -12.655  0.00  0.00    +0.213 HD
ENDBRANCH   6  14
TORSDOF 4
ENDMDL
MODEL 2
REMARK VINA RESULT:      -5.9      1.554      3.192
REMARK  Name = 444200
REMARK  4 active torsions:
REMARK  status: ('A' for Active; 'I' for Inactive)
REMARK    1  A    between atoms: C_2  and  O_8
REMARK    2  A    between atoms: C_3  and  O_10
REMARK    3  A    between atoms: C_4  and  O_12
REMARK    4  A    between atoms: C_6  and  O_14
REMARK                            x       y       z     vdW  Elec       q    Type
REMARK                         _______ _______ _______ _____ _____    ______ ____
ROOT
ATOM      1  O   UNL     1      36.627 -24.859 -14.433  0.00  0.00    -0.329 OA
ATOM      2  C   UNL     1      35.871 -24.370 -11.699  0.00  0.00    +0.171 C 
ATOM      3  C   UNL     1      37.143 -25.141 -12.060  0.00  0.00    +0.167 C 
ATOM      4  C   UNL     1      34.840 -24.496 -12.822  0.00  0.00    +0.196 C 
ATOM      5  C   UNL     1      37.654 -24.708 -13.440  0.00  0.00    +0.147 C 
ATOM      6  C   UNL     1      35.452 -24.089 -14.165  0.00  0.00    +0.262 C 
ATOM      7  C   UNL     1      38.852 -25.530 -13.901  0.00  0.00    +0.035 C 
ENDROOT
BRANCH   2   8
ATOM      8  O   UNL     1      35.314 -24.883 -10.492  0.00  0.00    -0.379 OA
ATOM      9  H   UNL     1      35.404 -24.222  -9.788  0.00  0.00    +0.211 HD
ENDBRANCH   2   8
BRANCH   3  10
ATOM     10  O   UNL     1      36.860 -26.543 -12.091  0.00  0.00    -0.379 OA
ATOM     11  H   UNL     1      37.348 -26.955 -12.821  0.00  0.00    +0.211 HD
ENDBRANCH   3  10
BRANCH   4  12
ATOM     12  O   UNL     1      33.710 -23.673 -12.550  0.00  0.00    -0.378 OA
ATOM     13  H   UNL     1      33.584 -23.604 -11.591  0.00  0.00    +0.211 HD
ENDBRANCH   4  12
BRANCH   6  14
ATOM     14  O   UNL     1      35.721 -22.687 -14.177  0.00  0.00    -0.358 OA
ATOM     15  H   UNL     1      36.623 -22.529 -13.857  0.00  0.00    +0.213 HD
ENDBRANCH   6  14
TORSDOF 4
ENDMDL
MODEL 3
REMARK VINA RESULT:      -5.9      1.594      3.118
REMARK  Name = 444200
REMARK  4 active torsions:
REMARK  status: ('A' for Active; 'I' for Inactive)
REMARK    1  A    between atoms: C_2  and  O_8
REMARK    2  A    between atoms: C_3  and  O_10
REMARK    3  A    between atoms: C_4  and  O_12
REMARK    4  A    between atoms: C_6  and  O_14
REMARK                            x       y       z     vdW  Elec       q    Type
REMARK                         _______ _______ _______ _____ _____    ______ ____
ROOT
ATOM      1  O   UNL     1      36.716 -26.087 -12.222  0.00  0.00    -0.329 OA
ATOM      2  C   UNL     1      36.378 -24.722 -14.732  0.00  0.00    +0.171 C 
ATOM      3  C   UNL     1      35.706 -24.229 -13.448  0.00  0.00    +0.167 C 
ATOM      4  C   UNL     1      36.637 -26.226 -14.650  0.00  0.00    +0.196 C 
ATOM      5  C   UNL     1      36.519 -24.664 -12.222  0.00  0.00    +0.147 C 
ATOM      6  C   UNL     1      37.411 -26.571 -13.375  0.00  0.00    +0.262 C 
ATOM      7  C   UNL     1      35.832 -24.303 -10.910  0.00  0.00    +0.035 C 
ENDROOT
BRANCH   2   8
ATOM      8  O   UNL     1      35.542 -24.450 -15.855  0.00  0.00    -0.379 OA
ATOM      9  H   UNL     1      34.628 -24.333 -15.557  0.00  0.00    +0.211 HD
ENDBRANCH   2   8
BRANCH   3  10
ATOM     10  O   UNL     1      34.392 -24.786 -13.352  0.00  0.00    -0.379 OA
ATOM     11  H   UNL     1      34.418 -25.721 -13.610  0.00  0.00    +0.211 HD
ENDBRANCH   3  10
BRANCH   4  12
ATOM     12  O   UNL     1      37.381 -26.663 -15.784  0.00  0.00    -0.378 OA
ATOM     13  H   UNL     1      36.830 -26.590 -16.578  0.00  0.00    +0.211 HD
ENDBRANCH   4  12
BRANCH   6  14
ATOM     14  O   UNL     1      38.739 -26.052 -13.451  0.00  0.00    -0.358 OA
ATOM     15  H   UNL     1      39.361 -26.704 -13.090  0.00  0.00    +0.213 HD
ENDBRANCH   6  14
TORSDOF 4
ENDMDL
MODEL 4
REMARK VINA RESULT:      -5.9      2.123      2.770
REMARK  Name = 444200
REMARK  4 active torsions:
REMARK  status: ('A' for Active; 'I' for Inactive)
REMARK    1  A    between atoms: C_2  and  O_8
REMARK    2  A    between atoms: C_3  and  O_10
REMARK    3  A    between atoms: C_4  and  O_12
REMARK    4  A    between atoms: C_6  and  O_14
REMARK                            x       y       z     vdW  Elec       q    Type
REMARK                         _______ _______ _______ _____ _____    ______ ____
ROOT
ATOM      1  O   UNL     1      37.606 -22.992 -13.045  0.00  0.00    -0.329 OA
ATOM      2  C   UNL     1      35.276 -24.653 -12.741  0.00  0.00    +0.171 C 
ATOM      3  C   UNL     1      35.684 -24.074 -14.098  0.00  0.00    +0.167 C 
ATOM      4  C   UNL     1      35.802 -23.769 -11.609  0.00  0.00    +0.196 C 
ATOM      5  C   UNL     1      37.198 -23.829 -14.138  0.00  0.00    +0.147 C 
ATOM      6  C   UNL     1      37.308 -23.542 -11.758  0.00  0.00    +0.262 C 
ATOM      7  C   UNL     1      37.642 -23.141 -15.424  0.00  0.00    +0.035 C 
ENDROOT
BRANCH   2   8
ATOM      8  O   UNL     1      33.856 -24.734 -12.652  0.00  0.00    -0.379 OA
ATOM      9  H   UNL     1      33.537 -25.457 -13.214  0.00  0.00    +0.211 HD
ENDBRANCH   2   8
BRANCH   3  10
ATOM     10  O   UNL     1      35.009 -22.831 -14.310  0.00  0.00    -0.379 OA
ATOM     11  H   UNL     1      35.034 -22.606 -15.253  0.00  0.00    +0.211 HD
ENDBRANCH   3  10
BRANCH   4  12
ATOM     12  O   UNL     1      35.539 -24.374 -10.347  0.00  0.00    -0.378 OA
ATOM     13  H   UNL     1      36.090 -23.955  -9.668  0.00  0.00    +0.211 HD
ENDBRANCH   4  12
BRANCH   6  14
ATOM     14  O   UNL     1      38.015 -24.760 -11.525  0.00  0.00    -0.358 OA
ATOM     15  H   UNL     1      38.344 -25.109 -12.368  0.00  0.00    +0.213 HD
ENDBRANCH   6  14
TORSDOF 4
ENDMDL
MODEL 5
REMARK VINA RESULT:      -5.8      1.708      2.967
REMARK  Name = 444200
REMARK  4 active torsions:
REMARK  status: ('A' for Active; 'I' for Inactive)
REMARK    1  A    between atoms: C_2  and  O_8
REMARK    2  A    between atoms: C_3  and  O_10
REMARK    3  A    between atoms: C_4  and  O_12
REMARK    4  A    between atoms: C_6  and  O_14
REMARK                            x       y       z     vdW  Elec       q    Type
REMARK                         _______ _______ _______ _____ _____    ______ ____
ROOT
ATOM      1  O   UNL     1      36.360 -23.585 -13.810  0.00  0.00    -0.329 OA
ATOM      2  C   UNL     1      37.446 -26.247 -13.940  0.00  0.00    +0.171 C 
ATOM      3  C   UNL     1      38.044 -25.174 -13.026  0.00  0.00    +0.167 C 
ATOM      4  C   UNL     1      36.739 -25.595 -15.128  0.00  0.00    +0.196 C 
ATOM      5  C   UNL     1      36.972 -24.148 -12.638  0.00  0.00    +0.147 C 
ATOM      6  C   UNL     1      35.724 -24.555 -14.647  0.00  0.00    +0.262 C 
ATOM      7  C   UNL     1      37.541 -22.990 -11.826  0.00  0.00    +0.035 C 
ENDROOT
BRANCH   2   8
ATOM      8  O   UNL     1      38.475 -27.108 -14.421  0.00  0.00    -0.379 OA
ATOM      9  H   UNL     1      38.375 -27.986 -14.023  0.00  0.00    +0.211 HD
ENDBRANCH   2   8
BRANCH   3  10
ATOM     10  O   UNL     1      39.103 -24.499 -13.710  0.00  0.00    -0.379 OA
ATOM     11  H   UNL     1      39.450 -23.789 -13.148  0.00  0.00    +0.211 HD
ENDBRANCH   3  10
BRANCH   4  12
ATOM     12  O   UNL     1      36.069 -26.581 -15.907  0.00  0.00    -0.378 OA
ATOM     13  H   UNL     1      35.171 -26.709 -15.563  0.00  0.00    +0.211 HD
ENDBRANCH   4  12
BRANCH   6  14
ATOM     14  O   UNL     1      34.637 -25.199 -13.982  0.00  0.00    -0.358 OA
ATOM     15  H   UNL     1      33.848 -25.164 -14.546  0.00  0.00    +0.213 HD
ENDBRANCH   6  14
TORSDOF 4
ENDMDL
MODEL 6
REMARK VINA RESULT:      -5.8      1.638      3.305
REMARK  Name = 444200
REMARK  4 active torsions:
REMARK  status: ('A' for Active; 'I' for Inactive)
REMARK    1  A    between atoms: C_2  and  O_8
REMARK    2  A    between atoms: C_3  and  O_10
REMARK    3  A    between atoms: C_4  and  O_12
REMARK    4  A    between atoms: C_6  and  O_14
REMARK                            x       y       z     vdW  Elec       q    Type
REMARK                         _______ _______ _______ _____ _____    ______ ____
ROOT
ATOM      1  O   UNL     1      35.855 -24.484 -15.943  0.00  0.00    -0.329 OA
ATOM      2  C   UNL     1      37.499 -24.244 -13.593  0.00  0.00    +0.171 C 
ATOM      3  C   UNL     1      37.615 -23.264 -14.763  0.00  0.00    +0.167 C 
ATOM      4  C   UNL     1      36.965 -25.591 -14.082  0.00  0.00    +0.196 C 
ATOM      5  C   UNL     1      36.283 -23.179 -15.519  0.00  0.00    +0.147 C 
ATOM      6  C   UNL     1      35.663 -25.403 -14.864  0.00  0.00    +0.262 C 
ATOM      7  C   UNL     1      36.376 -22.308 -16.767  0.00  0.00    +0.035 C 
ENDROOT
BRANCH   2   8
ATOM      8  O   UNL     1      38.776 -24.436 -12.989  0.00  0.00    -0.379 OA
ATOM      9  H   UNL     1      39.470 -24.300 -13.651  0.00  0.00    +0.211 HD
ENDBRANCH   2   8
BRANCH   3  10
ATOM     10  O   UNL     1      38.630 -23.713 -15.665  0.00  0.00    -0.379 OA
ATOM     11  H   UNL     1      38.907 -24.610 -15.418  0.00  0.00    +0.211 HD
ENDBRANCH   3  10
BRANCH   4  12
ATOM     12  O   UNL     1      36.731 -26.459 -12.978  0.00  0.00    -0.378 OA
ATOM     13  H   UNL     1      36.433 -27.323 -13.304  0.00  0.00    +0.211 HD
ENDBRANCH   4  12
BRANCH   6  14
ATOM     14  O   UNL     1      34.619 -24.980 -13.986  0.00  0.00    -0.358 OA
ATOM     15  H   UNL     1      34.871 -25.173 -13.069  0.00  0.00    +0.213 HD
ENDBRANCH   6  14
TORSDOF 4
ENDMDL
MODEL 7
REMARK VINA RESULT:      -5.8      1.881      2.947
REMARK  Name = 444200
REMARK  4 active torsions:
REMARK  status: ('A' for Active; 'I' for Inactive)
REMARK    1  A    between atoms: C_2  and  O_8
REMARK    2  A    between atoms: C_3  and  O_10
REMARK    3  A    between atoms: C_4  and  O_12
REMARK    4  A    between atoms: C_6  and  O_14
REMARK                            x       y       z     vdW  Elec       q    Type
REMARK                         _______ _______ _______ _____ _____    ______ ____
ROOT
ATOM      1  O   UNL     1      38.128 -23.648 -14.760  0.00  0.00    -0.329 OA
ATOM      2  C   UNL     1      35.612 -25.045 -14.779  0.00  0.00    +0.171 C 
ATOM      3  C   UNL     1      35.745 -23.612 -15.301  0.00  0.00    +0.167 C 
ATOM      4  C   UNL     1      36.697 -25.332 -13.741  0.00  0.00    +0.196 C 
ATOM      5  C   UNL     1      37.175 -23.356 -15.794  0.00  0.00    +0.147 C 
ATOM      6  C   UNL     1      38.082 -25.003 -14.304  0.00  0.00    +0.262 C 
ATOM      7  C   UNL     1      37.395 -21.907 -16.214  0.00  0.00    +0.035 C 
ENDROOT
BRANCH   2   8
ATOM      8  O   UNL     1      34.331 -25.231 -14.183  0.00  0.00    -0.379 OA
ATOM      9  H   UNL     1      33.640 -25.063 -14.842  0.00  0.00    +0.211 HD
ENDBRANCH   2   8
BRANCH   3  10
ATOM     10  O   UNL     1      35.446 -22.690 -14.249  0.00  0.00    -0.379 OA
ATOM     11  H   UNL     1      36.075 -22.817 -13.521  0.00  0.00    +0.211 HD
ENDBRANCH   3  10
BRANCH   4  12
ATOM     12  O   UNL     1      36.659 -26.702 -13.353  0.00  0.00    -0.378 OA
ATOM     13  H   UNL     1      37.468 -26.921 -12.864  0.00  0.00    +0.211 HD
ENDBRANCH   4  12
BRANCH   6  14
ATOM     14  O   UNL     1      38.423 -25.925 -15.340  0.00  0.00    -0.358 OA
ATOM     15  H   UNL     1      38.049 -25.618 -16.180  0.00  0.00    +0.213 HD
ENDBRANCH   6  14
TORSDOF 4
ENDMDL
MODEL 8
REMARK VINA RESULT:      -5.7      1.658      3.607
REMARK  Name = 444200
REMARK  4 active torsions:
REMARK  status: ('A' for Active; 'I' for Inactive)
REMARK    1  A    between atoms: C_2  and  O_8
REMARK    2  A    between atoms: C_3  and  O_10
REMARK    3  A    between atoms: C_4  and  O_12
REMARK    4  A    between atoms: C_6  and  O_14
REMARK                            x       y       z     vdW  Elec       q    Type
REMARK                         _______ _______ _______ _____ _____    ______ ____
ROOT
ATOM      1  O   UNL     1      35.997 -25.175 -15.560  0.00  0.00    -0.329 OA
ATOM      2  C   UNL     1      38.006 -25.000 -13.506  0.00  0.00    +0.171 C 
ATOM      3  C   UNL     1      36.995 -23.875 -13.746  0.00  0.00    +0.167 C 
ATOM      4  C   UNL     1      38.219 -25.801 -14.791  0.00  0.00    +0.196 C 
ATOM      5  C   UNL     1      35.708 -24.440 -14.360  0.00  0.00    +0.147 C 
ATOM      6  C   UNL     1      36.880 -26.282 -15.355  0.00  0.00    +0.262 C 
ATOM      7  C   UNL     1      34.712 -23.346 -14.730  0.00  0.00    +0.035 C 
ENDROOT
BRANCH   2   8
ATOM      8  O   UNL     1      39.252 -24.454 -13.081  0.00  0.00    -0.379 OA
ATOM      9  H   UNL     1      39.297 -24.466 -12.113  0.00  0.00    +0.211 HD
ENDBRANCH   2   8
BRANCH   3  10
ATOM     10  O   UNL     1      37.553 -22.914 -14.645  0.00  0.00    -0.379 OA
ATOM     11  H   UNL     1      37.860 -22.142 -14.143  0.00  0.00    +0.211 HD
ENDBRANCH   3  10
BRANCH   4  12
ATOM     12  O   UNL     1      39.055 -26.926 -14.538  0.00  0.00    -0.378 OA
ATOM     13  H   UNL     1      39.012 -27.536 -15.291  0.00  0.00    +0.211 HD
ENDBRANCH   4  12
BRANCH   6  14
ATOM     14  O   UNL     1      36.308 -27.266 -14.493  0.00  0.00    -0.358 OA
ATOM     15  H   UNL     1      36.217 -26.898 -13.600  0.00  0.00    +0.213 HD
ENDBRANCH   6  14
TORSDOF 4
ENDMDL
MODEL 9
REMARK VINA RESULT:      -5.7      2.024      3.311
REMARK  Name = 444200
REMARK  4 active torsions:
REMARK  status: ('A' for Active; 'I' for Inactive)
REMARK    1  A    between atoms: C_2  and  O_8
REMARK    2  A    between atoms: C_3  and  O_10
REMARK    3  A    between atoms: C_4  and  O_12
REMARK    4  A    between atoms: C_6  and  O_14
REMARK                            x       y       z     vdW  Elec       q    Type
REMARK                         _______ _______ _______ _____ _____    ______ ____
ROOT
ATOM      1  O   UNL     1      37.556 -23.357 -13.527  0.00  0.00    -0.329 OA
ATOM      2  C   UNL     1      36.403 -24.820 -11.334  0.00  0.00    +0.171 C 
ATOM      3  C   UNL     1      36.336 -25.336 -12.773  0.00  0.00    +0.167 C 
ATOM      4  C   UNL     1      36.526 -23.296 -11.324  0.00  0.00    +0.196 C 
ATOM      5  C   UNL     1      37.516 -24.791 -13.589  0.00  0.00    +0.147 C 
ATOM      6  C   UNL     1      37.697 -22.843 -12.200  0.00  0.00    +0.262 C 
ATOM      7  C   UNL     1      37.432 -25.178 -15.062  0.00  0.00    +0.035 C 
ENDROOT
BRANCH   2   8
ATOM      8  O   UNL     1      35.228 -25.201 -10.623  0.00  0.00    -0.379 OA
ATOM      9  H   UNL     1      34.735 -24.408 -10.364  0.00  0.00    +0.211 HD
ENDBRANCH   2   8
BRANCH   3  10
ATOM     10  O   UNL     1      35.116 -24.904 -13.380  0.00  0.00    -0.379 OA
ATOM     11  H   UNL     1      35.315 -24.302 -14.114  0.00  0.00    +0.211 HD
ENDBRANCH   3  10
BRANCH   4  12
ATOM     12  O   UNL     1      36.722 -22.824  -9.995  0.00  0.00    -0.378 OA
ATOM     13  H   UNL     1      37.554 -22.328  -9.947  0.00  0.00    +0.211 HD
ENDBRANCH   4  12
BRANCH   6  14
ATOM     14  O   UNL     1      38.935 -23.236 -11.606  0.00  0.00    -0.358 OA
ATOM     15  H   UNL     1      38.863 -24.148 -11.283  0.00  0.00    +0.213 HD
ENDBRANCH   6  14
TORSDOF 4
ENDMDL
