MODEL 1
REMARK VINA RESULT:      -7.4      0.000      0.000
REMARK  Name = 439216
REMARK  2 active torsions:
REMARK  status: ('A' for Active; 'I' for Inactive)
REMARK    1  A    between atoms: CA_5  and  C_12
REMARK    2  A    between atoms: C_12  and  O_13
REMARK                            x       y       z     vdW  Elec       q    Type
REMARK                         _______ _______ _______ _____ _____    ______ ____
ROOT
ATOM      1  O   UNL     1      37.017 -26.534 -11.631  0.00  0.00    -0.275 OA
ATOM      2  O   UNL     1      36.511 -27.293 -16.144  0.00  0.00    -0.252 OA
ATOM      3  N   UNL     1      37.847 -25.548 -15.485  0.00  0.00    -0.280 N 
ATOM      4  N   UNL     1      36.843 -26.946 -13.892  0.00  0.00    -0.240 N 
ATOM      5  CA  UNL     1      38.586 -24.864 -14.450  0.00  0.00    +0.182 C 
ATOM      6  C   UNL     1      37.854 -24.854 -13.122  0.00  0.00    +0.117 C 
ATOM      7  C   UNL     1      37.228 -26.189 -12.792  0.00  0.00    +0.232 C 
ATOM      8  C   UNL     1      37.035 -26.641 -15.241  0.00  0.00    +0.307 C 
ATOM      9  H   UNL     1      37.925 -25.221 -16.410  0.00  0.00    +0.151 HD
ATOM     10  H   UNL     1      36.385 -27.796 -13.699  0.00  0.00    +0.159 HD
ENDROOT
BRANCH   5  12
ATOM     11  OXT UNL     1      40.113 -26.756 -14.470  0.00  0.00    -0.248 OA
ATOM     12  C   UNL     1      39.916 -25.548 -14.357  0.00  0.00    +0.332 C 
BRANCH  12  13
ATOM     13  O   UNL     1      40.933 -24.674 -14.125  0.00  0.00    -0.479 OA
ATOM     14  H   UNL     1      40.997 -24.238 -13.299  0.00  0.00    +0.295 HD
ENDBRANCH  12  13
ENDBRANCH   5  12
TORSDOF 2
ENDMDL
MODEL 2
REMARK VINA RESULT:      -6.7      2.725      4.103
REMARK  Name = 439216
REMARK  2 active torsions:
REMARK  status: ('A' for Active; 'I' for Inactive)
REMARK    1  A    between atoms: CA_5  and  C_12
REMARK    2  A    between atoms: C_12  and  O_13
REMARK                            x       y       z     vdW  Elec       q    Type
REMARK                         _______ _______ _______ _____ _____    ______ ____
ROOT
ATOM      1  O   UNL     1      38.424 -22.220 -11.883  0.00  0.00    -0.275 OA
ATOM      2  O   UNL     1      35.226 -24.897  -9.931  0.00  0.00    -0.252 OA
ATOM      3  N   UNL     1      35.446 -24.967 -12.214  0.00  0.00    -0.280 N 
ATOM      4  N   UNL     1      36.873 -23.629 -10.921  0.00  0.00    -0.240 N 
ATOM      5  CA  UNL     1      36.205 -24.663 -13.404  0.00  0.00    +0.182 C 
ATOM      6  C   UNL     1      36.856 -23.294 -13.345  0.00  0.00    +0.117 C 
ATOM      7  C   UNL     1      37.485 -23.006 -12.001  0.00  0.00    +0.232 C 
ATOM      8  C   UNL     1      35.807 -24.529 -10.952  0.00  0.00    +0.307 C 
ATOM      9  H   UNL     1      34.632 -25.512 -12.304  0.00  0.00    +0.151 HD
ATOM     10  H   UNL     1      37.234 -23.412 -10.031  0.00  0.00    +0.159 HD
ENDROOT
BRANCH   5  12
ATOM     11  OXT UNL     1      38.339 -25.644 -14.030  0.00  0.00    -0.248 OA
ATOM     12  C   UNL     1      37.212 -25.762 -13.556  0.00  0.00    +0.332 C 
BRANCH  12  13
ATOM     13  O   UNL     1      36.746 -26.957 -13.102  0.00  0.00    -0.479 OA
ATOM     14  H   UNL     1      37.282 -27.489 -12.547  0.00  0.00    +0.295 HD
ENDBRANCH  12  13
ENDBRANCH   5  12
TORSDOF 2
ENDMDL
MODEL 3
REMARK VINA RESULT:      -6.6      1.291      3.332
REMARK  Name = 439216
REMARK  2 active torsions:
REMARK  status: ('A' for Active; 'I' for Inactive)
REMARK    1  A    between atoms: CA_5  and  C_12
REMARK    2  A    between atoms: C_12  and  O_13
REMARK                            x       y       z     vdW  Elec       q    Type
REMARK                         _______ _______ _______ _____ _____    ______ ____
ROOT
ATOM      1  O   UNL     1      39.695 -24.350 -14.812  0.00  0.00    -0.275 OA
ATOM      2  O   UNL     1      36.426 -27.324 -16.105  0.00  0.00    -0.252 OA
ATOM      3  N   UNL     1      36.765 -27.001 -13.859  0.00  0.00    -0.280 N 
ATOM      4  N   UNL     1      37.999 -25.781 -15.436  0.00  0.00    -0.240 N 
ATOM      5  CA  UNL     1      37.339 -26.230 -12.782  0.00  0.00    +0.182 C 
ATOM      6  C   UNL     1      38.735 -25.731 -13.103  0.00  0.00    +0.117 C 
ATOM      7  C   UNL     1      38.853 -25.194 -14.511  0.00  0.00    +0.232 C 
ATOM      8  C   UNL     1      37.017 -26.743 -15.195  0.00  0.00    +0.307 C 
ATOM      9  H   UNL     1      36.166 -27.748 -13.632  0.00  0.00    +0.151 HD
ATOM     10  H   UNL     1      38.096 -25.484 -16.370  0.00  0.00    +0.159 HD
ENDROOT
BRANCH   5  12
ATOM     11  OXT UNL     1      36.135 -24.177 -13.276  0.00  0.00    -0.248 OA
ATOM     12  C   UNL     1      36.386 -25.106 -12.512  0.00  0.00    +0.332 C 
BRANCH  12  13
ATOM     13  O   UNL     1      35.796 -25.209 -11.290  0.00  0.00    -0.479 OA
ATOM     14  H   UNL     1      35.422 -26.024 -11.018  0.00  0.00    +0.295 HD
ENDBRANCH  12  13
ENDBRANCH   5  12
TORSDOF 2
ENDMDL
MODEL 4
REMARK VINA RESULT:      -6.5      1.974      3.211
REMARK  Name = 439216
REMARK  2 active torsions:
REMARK  status: ('A' for Active; 'I' for Inactive)
REMARK    1  A    between atoms: CA_5  and  C_12
REMARK    2  A    between atoms: C_12  and  O_13
REMARK                            x       y       z     vdW  Elec       q    Type
REMARK                         _______ _______ _______ _____ _____    ______ ____
ROOT
ATOM      1  O   UNL     1      36.330 -24.281 -15.748  0.00  0.00    -0.275 OA
ATOM      2  O   UNL     1      38.119 -23.770 -11.535  0.00  0.00    -0.252 OA
ATOM      3  N   UNL     1      38.893 -25.495 -12.836  0.00  0.00    -0.280 N 
ATOM      4  N   UNL     1      37.298 -23.995 -13.675  0.00  0.00    -0.240 N 
ATOM      5  CA  UNL     1      39.006 -26.131 -14.128  0.00  0.00    +0.182 C 
ATOM      6  C   UNL     1      37.719 -26.055 -14.927  0.00  0.00    +0.117 C 
ATOM      7  C   UNL     1      37.066 -24.694 -14.853  0.00  0.00    +0.232 C 
ATOM      8  C   UNL     1      38.109 -24.378 -12.606  0.00  0.00    +0.307 C 
ATOM      9  H   UNL     1      39.398 -25.875 -12.081  0.00  0.00    +0.151 HD
ATOM     10  H   UNL     1      36.838 -23.129 -13.583  0.00  0.00    +0.159 HD
ENDROOT
BRANCH   5  12
ATOM     11  OXT UNL     1      40.907 -24.630 -14.338  0.00  0.00    -0.248 OA
ATOM     12  C   UNL     1      40.148 -25.462 -14.830  0.00  0.00    +0.332 C 
BRANCH  12  13
ATOM     13  O   UNL     1      40.276 -25.875 -16.120  0.00  0.00    -0.479 OA
ATOM     14  H   UNL     1      40.731 -25.341 -16.740  0.00  0.00    +0.295 HD
ENDBRANCH  12  13
ENDBRANCH   5  12
TORSDOF 2
ENDMDL
MODEL 5
REMARK VINA RESULT:      -6.4      1.649      3.445
REMARK  Name = 439216
REMARK  2 active torsions:
REMARK  status: ('A' for Active; 'I' for Inactive)
REMARK    1  A    between atoms: CA_5  and  C_12
REMARK    2  A    between atoms: C_12  and  O_13
REMARK                            x       y       z     vdW  Elec       q    Type
REMARK                         _______ _______ _______ _____ _____    ______ ____
ROOT
ATOM      1  O   UNL     1      37.673 -23.202 -13.111  0.00  0.00    -0.275 OA
ATOM      2  O   UNL     1      40.715 -26.064 -15.050  0.00  0.00    -0.252 OA
ATOM      3  N   UNL     1      38.661 -26.904 -14.466  0.00  0.00    -0.280 N 
ATOM      4  N   UNL     1      39.150 -24.632 -14.154  0.00  0.00    -0.240 N 
ATOM      5  CA  UNL     1      37.289 -26.685 -14.072  0.00  0.00    +0.182 C 
ATOM      6  C   UNL     1      37.143 -25.540 -13.088  0.00  0.00    +0.117 C 
ATOM      7  C   UNL     1      37.981 -24.339 -13.462  0.00  0.00    +0.232 C 
ATOM      8  C   UNL     1      39.586 -25.883 -14.593  0.00  0.00    +0.307 C 
ATOM      9  H   UNL     1      38.953 -27.825 -14.653  0.00  0.00    +0.151 HD
ATOM     10  H   UNL     1      39.738 -23.870 -14.361  0.00  0.00    +0.159 HD
ENDROOT
BRANCH   5  12
ATOM     11  OXT UNL     1      35.686 -25.562 -15.513  0.00  0.00    -0.248 OA
ATOM     12  C   UNL     1      36.519 -26.447 -15.335  0.00  0.00    +0.332 C 
BRANCH  12  13
ATOM     13  O   UNL     1      36.839 -27.340 -16.312  0.00  0.00    -0.479 OA
ATOM     14  H   UNL     1      37.688 -27.318 -16.707  0.00  0.00    +0.295 HD
ENDBRANCH  12  13
ENDBRANCH   5  12
TORSDOF 2
ENDMDL
MODEL 6
REMARK VINA RESULT:      -6.4      1.984      3.739
REMARK  Name = 439216
REMARK  2 active torsions:
REMARK  status: ('A' for Active; 'I' for Inactive)
REMARK    1  A    between atoms: CA_5  and  C_12
REMARK    2  A    between atoms: C_12  and  O_13
REMARK                            x       y       z     vdW  Elec       q    Type
REMARK                         _______ _______ _______ _____ _____    ______ ____
ROOT
ATOM      1  O   UNL     1      37.770 -22.676 -15.369  0.00  0.00    -0.275 OA
ATOM      2  O   UNL     1      37.644 -24.910 -11.345  0.00  0.00    -0.252 OA
ATOM      3  N   UNL     1      36.464 -25.789 -13.105  0.00  0.00    -0.280 N 
ATOM      4  N   UNL     1      37.759 -23.854 -13.388  0.00  0.00    -0.240 N 
ATOM      5  CA  UNL     1      36.182 -25.833 -14.521  0.00  0.00    +0.182 C 
ATOM      6  C   UNL     1      36.176 -24.455 -15.156  0.00  0.00    +0.117 C 
ATOM      7  C   UNL     1      37.320 -23.589 -14.679  0.00  0.00    +0.232 C 
ATOM      8  C   UNL     1      37.313 -24.860 -12.529  0.00  0.00    +0.307 C 
ATOM      9  H   UNL     1      36.031 -26.452 -12.521  0.00  0.00    +0.151 HD
ATOM     10  H   UNL     1      38.467 -23.266 -13.038  0.00  0.00    +0.159 HD
ENDROOT
BRANCH   5  12
ATOM     11  OXT UNL     1      38.328 -26.966 -14.666  0.00  0.00    -0.248 OA
ATOM     12  C   UNL     1      37.215 -26.731 -15.130  0.00  0.00    +0.332 C 
BRANCH  12  13
ATOM     13  O   UNL     1      36.791 -27.290 -16.297  0.00  0.00    -0.479 OA
ATOM     14  H   UNL     1      36.057 -27.872 -16.298  0.00  0.00    +0.295 HD
ENDBRANCH  12  13
ENDBRANCH   5  12
TORSDOF 2
ENDMDL
MODEL 7
REMARK VINA RESULT:      -6.3      1.835      3.468
REMARK  Name = 439216
REMARK  2 active torsions:
REMARK  status: ('A' for Active; 'I' for Inactive)
REMARK    1  A    between atoms: CA_5  and  C_12
REMARK    2  A    between atoms: C_12  and  O_13
REMARK                            x       y       z     vdW  Elec       q    Type
REMARK                         _______ _______ _______ _____ _____    ______ ____
ROOT
ATOM      1  O   UNL     1      37.136 -23.168 -15.536  0.00  0.00    -0.275 OA
ATOM      2  O   UNL     1      40.697 -26.087 -15.498  0.00  0.00    -0.252 OA
ATOM      3  N   UNL     1      39.599 -25.697 -13.521  0.00  0.00    -0.280 N 
ATOM      4  N   UNL     1      38.863 -24.695 -15.510  0.00  0.00    -0.240 N 
ATOM      5  CA  UNL     1      38.452 -25.181 -12.812  0.00  0.00    +0.182 C 
ATOM      6  C   UNL     1      37.948 -23.874 -13.393  0.00  0.00    +0.117 C 
ATOM      7  C   UNL     1      37.911 -23.884 -14.904  0.00  0.00    +0.232 C 
ATOM      8  C   UNL     1      39.783 -25.536 -14.883  0.00  0.00    +0.307 C 
ATOM      9  H   UNL     1      40.283 -26.188 -13.012  0.00  0.00    +0.151 HD
ATOM     10  H   UNL     1      38.891 -24.675 -16.494  0.00  0.00    +0.159 HD
ENDROOT
BRANCH   5  12
ATOM     11  OXT UNL     1      37.285 -27.104 -13.733  0.00  0.00    -0.248 OA
ATOM     12  C   UNL     1      37.409 -26.256 -12.853  0.00  0.00    +0.332 C 
BRANCH  12  13
ATOM     13  O   UNL     1      36.573 -26.208 -11.780  0.00  0.00    -0.479 OA
ATOM     14  H   UNL     1      36.162 -26.991 -11.472  0.00  0.00    +0.295 HD
ENDBRANCH  12  13
ENDBRANCH   5  12
TORSDOF 2
ENDMDL
MODEL 8
REMARK VINA RESULT:      -6.3      2.199      3.148
REMARK  Name = 439216
REMARK  2 active torsions:
REMARK  status: ('A' for Active; 'I' for Inactive)
REMARK    1  A    between atoms: CA_5  and  C_12
REMARK    2  A    between atoms: C_12  and  O_13
REMARK                            x       y       z     vdW  Elec       q    Type
REMARK                         _______ _______ _______ _____ _____    ______ ____
ROOT
ATOM      1  O   UNL     1      37.692 -24.406 -11.294  0.00  0.00    -0.275 OA
ATOM      2  O   UNL     1      37.082 -22.461 -15.423  0.00  0.00    -0.252 OA
ATOM      3  N   UNL     1      37.981 -24.571 -15.345  0.00  0.00    -0.280 N 
ATOM      4  N   UNL     1      37.320 -23.485 -13.374  0.00  0.00    -0.240 N 
ATOM      5  CA  UNL     1      38.262 -25.781 -14.609  0.00  0.00    +0.182 C 
ATOM      6  C   UNL     1      38.686 -25.507 -13.178  0.00  0.00    +0.117 C 
ATOM      7  C   UNL     1      37.840 -24.444 -12.514  0.00  0.00    +0.232 C 
ATOM      8  C   UNL     1      37.434 -23.440 -14.765  0.00  0.00    +0.307 C 
ATOM      9  H   UNL     1      38.188 -24.549 -16.307  0.00  0.00    +0.151 HD
ATOM     10  H   UNL     1      36.811 -22.753 -12.956  0.00  0.00    +0.159 HD
ENDROOT
BRANCH   5  12
ATOM     11  OXT UNL     1      36.309 -26.764 -15.670  0.00  0.00    -0.248 OA
ATOM     12  C   UNL     1      37.022 -26.618 -14.680  0.00  0.00    +0.332 C 
BRANCH  12  13
ATOM     13  O   UNL     1      36.741 -27.230 -13.497  0.00  0.00    -0.479 OA
ATOM     14  H   UNL     1      37.390 -27.759 -13.078  0.00  0.00    +0.295 HD
ENDBRANCH  12  13
ENDBRANCH   5  12
TORSDOF 2
ENDMDL
MODEL 9
REMARK VINA RESULT:      -6.2      2.217      3.074
REMARK  Name = 439216
REMARK  2 active torsions:
REMARK  status: ('A' for Active; 'I' for Inactive)
REMARK    1  A    between atoms: CA_5  and  C_12
REMARK    2  A    between atoms: C_12  and  O_13
REMARK                            x       y       z     vdW  Elec       q    Type
REMARK                         _______ _______ _______ _____ _____    ______ ____
ROOT
ATOM      1  O   UNL     1      37.163 -26.497 -11.971  0.00  0.00    -0.275 OA
ATOM      2  O   UNL     1      40.853 -25.577 -14.567  0.00  0.00    -0.252 OA
ATOM      3  N   UNL     1      38.791 -24.965 -15.365  0.00  0.00    -0.280 N 
ATOM      4  N   UNL     1      39.003 -25.954 -13.249  0.00  0.00    -0.240 N 
ATOM      5  CA  UNL     1      37.384 -24.731 -15.138  0.00  0.00    +0.182 C 
ATOM      6  C   UNL     1      36.763 -25.765 -14.218  0.00  0.00    +0.117 C 
ATOM      7  C   UNL     1      37.637 -26.085 -13.028  0.00  0.00    +0.232 C 
ATOM      8  C   UNL     1      39.635 -25.499 -14.408  0.00  0.00    +0.307 C 
ATOM      9  H   UNL     1      39.168 -24.734 -16.244  0.00  0.00    +0.151 HD
ATOM     10  H   UNL     1      39.592 -26.209 -12.503  0.00  0.00    +0.159 HD
ENDROOT
BRANCH   5  12
ATOM     11  OXT UNL     1      37.685 -22.966 -13.493  0.00  0.00    -0.248 OA
ATOM     12  C   UNL     1      37.270 -23.343 -14.587  0.00  0.00    +0.332 C 
BRANCH  12  13
ATOM     13  O   UNL     1      36.635 -22.496 -15.443  0.00  0.00    -0.479 OA
ATOM     14  H   UNL     1      37.131 -21.879 -15.944  0.00  0.00    +0.295 HD
ENDBRANCH  12  13
ENDBRANCH   5  12
TORSDOF 2
ENDMDL
