MODEL 1
REMARK VINA RESULT:      -7.9      0.000      0.000
REMARK  Name = 447955
REMARK  1 active torsions:
REMARK  status: ('A' for Active; 'I' for Inactive)
REMARK    1  A    between atoms: C_4  and  C_13
REMARK                            x       y       z     vdW  Elec       q    Type
REMARK                         _______ _______ _______ _____ _____    ______ ____
ROOT
ATOM      1  N   UNL     1      33.945 -20.025 -20.602  0.00  0.00    -0.338 NA
ATOM      2  N   UNL     1      35.281 -21.645 -19.419  0.00  0.00    -0.170 NA
ATOM      3  N   UNL     1      32.942 -21.827 -19.482  0.00  0.00    -0.293 N 
ATOM      4  C   UNL     1      35.085 -19.385 -20.937  0.00  0.00    +0.147 C 
ATOM      5  C   UNL     1      36.342 -19.808 -20.556  0.00  0.00    +0.055 C 
ATOM      6  C   UNL     1      34.115 -21.131 -19.853  0.00  0.00    +0.141 C 
ATOM      7  C   UNL     1      36.380 -20.955 -19.790  0.00  0.00    +0.114 C 
ATOM      8  H   UNL     1      32.061 -21.495 -19.772  0.00  0.00    +0.155 HD
ATOM      9  H   UNL     1      33.007 -22.643 -18.934  0.00  0.00    +0.155 HD
ENDROOT
BRANCH   4  13
ATOM     10 CL   UNL     1      34.967 -19.618 -24.154  0.00  0.00    -0.075 Cl
ATOM     11 CL   UNL     1      34.497 -14.251 -22.138  0.00  0.00    -0.075 Cl
ATOM     12  S   UNL     1      34.677 -16.698 -23.809  0.00  0.00    -0.064 S 
ATOM     13  C   UNL     1      34.927 -18.204 -21.735  0.00  0.00    +0.049 C 
ATOM     14  C   UNL     1      34.809 -16.867 -21.249  0.00  0.00    +0.022 C 
ATOM     15  C   UNL     1      34.870 -18.251 -23.115  0.00  0.00    +0.090 C 
ATOM     16  C   UNL     1      34.668 -15.951 -22.269  0.00  0.00    +0.088 C 
ENDBRANCH   4  13
TORSDOF 1
ENDMDL
MODEL 2
REMARK VINA RESULT:      -7.5      1.755      2.463
REMARK  Name = 447955
REMARK  1 active torsions:
REMARK  status: ('A' for Active; 'I' for Inactive)
REMARK    1  A    between atoms: C_4  and  C_13
REMARK                            x       y       z     vdW  Elec       q    Type
REMARK                         _______ _______ _______ _____ _____    ______ ____
ROOT
ATOM      1  N   UNL     1      33.819 -19.053 -21.190  0.00  0.00    -0.338 NA
ATOM      2  N   UNL     1      35.337 -20.533 -20.043  0.00  0.00    -0.170 NA
ATOM      3  N   UNL     1      33.018 -20.890 -19.969  0.00  0.00    -0.293 N 
ATOM      4  C   UNL     1      34.887 -18.340 -21.606  0.00  0.00    +0.147 C 
ATOM      5  C   UNL     1      36.191 -18.657 -21.287  0.00  0.00    +0.055 C 
ATOM      6  C   UNL     1      34.113 -20.120 -20.423  0.00  0.00    +0.141 C 
ATOM      7  C   UNL     1      36.358 -19.775 -20.494  0.00  0.00    +0.114 C 
ATOM      8  H   UNL     1      32.101 -20.634 -20.216  0.00  0.00    +0.155 HD
ATOM      9  H   UNL     1      33.175 -21.682 -19.404  0.00  0.00    +0.155 HD
ENDROOT
BRANCH   4  13
ATOM     10 CL   UNL     1      34.697 -15.407 -20.273  0.00  0.00    -0.075 Cl
ATOM     11 CL   UNL     1      33.787 -15.504 -25.952  0.00  0.00    -0.075 Cl
ATOM     12  S   UNL     1      34.148 -14.756 -23.101  0.00  0.00    -0.064 S 
ATOM     13  C   UNL     1      34.596 -17.199 -22.424  0.00  0.00    +0.049 C 
ATOM     14  C   UNL     1      34.367 -17.208 -23.833  0.00  0.00    +0.022 C 
ATOM     15  C   UNL     1      34.504 -15.924 -21.901  0.00  0.00    +0.090 C 
ATOM     16  C   UNL     1      34.112 -15.948 -24.329  0.00  0.00    +0.088 C 
ENDBRANCH   4  13
TORSDOF 1
ENDMDL
MODEL 3
REMARK VINA RESULT:      -7.4      3.471      5.303
REMARK  Name = 447955
REMARK  1 active torsions:
REMARK  status: ('A' for Active; 'I' for Inactive)
REMARK    1  A    between atoms: C_4  and  C_13
REMARK                            x       y       z     vdW  Elec       q    Type
REMARK                         _______ _______ _______ _____ _____    ______ ____
ROOT
ATOM      1  N   UNL     1      34.686 -16.932 -22.065  0.00  0.00    -0.338 NA
ATOM      2  N   UNL     1      34.621 -16.199 -24.360  0.00  0.00    -0.170 NA
ATOM      3  N   UNL     1      34.544 -14.651 -22.598  0.00  0.00    -0.293 N 
ATOM      4  C   UNL     1      34.757 -18.204 -22.512  0.00  0.00    +0.147 C 
ATOM      5  C   UNL     1      34.766 -18.547 -23.849  0.00  0.00    +0.055 C 
ATOM      6  C   UNL     1      34.621 -15.995 -23.029  0.00  0.00    +0.141 C 
ATOM      7  C   UNL     1      34.695 -17.493 -24.737  0.00  0.00    +0.114 C 
ATOM      8  H   UNL     1      34.540 -14.444 -21.635  0.00  0.00    +0.155 HD
ATOM      9  H   UNL     1      34.494 -13.924 -23.260  0.00  0.00    +0.155 HD
ENDROOT
BRANCH   4  13
ATOM     10 CL   UNL     1      37.624 -19.128 -21.353  0.00  0.00    -0.075 Cl
ATOM     11 CL   UNL     1      33.124 -21.858 -19.030  0.00  0.00    -0.075 Cl
ATOM     12  S   UNL     1      35.818 -20.864 -19.786  0.00  0.00    -0.064 S 
ATOM     13  C   UNL     1      34.828 -19.218 -21.501  0.00  0.00    +0.049 C 
ATOM     14  C   UNL     1      33.720 -19.904 -20.916  0.00  0.00    +0.022 C 
ATOM     15  C   UNL     1      36.029 -19.648 -20.973  0.00  0.00    +0.090 C 
ATOM     16  C   UNL     1      34.117 -20.824 -19.971  0.00  0.00    +0.088 C 
ENDBRANCH   4  13
TORSDOF 1
ENDMDL
MODEL 4
REMARK VINA RESULT:      -7.3      4.389      6.291
REMARK  Name = 447955
REMARK  1 active torsions:
REMARK  status: ('A' for Active; 'I' for Inactive)
REMARK    1  A    between atoms: C_4  and  C_13
REMARK                            x       y       z     vdW  Elec       q    Type
REMARK                         _______ _______ _______ _____ _____    ______ ____
ROOT
ATOM      1  N   UNL     1      34.293 -14.028 -23.485  0.00  0.00    -0.338 NA
ATOM      2  N   UNL     1      32.586 -12.501 -22.733  0.00  0.00    -0.170 NA
ATOM      3  N   UNL     1      34.172 -11.843 -24.334  0.00  0.00    -0.293 N 
ATOM      4  C   UNL     1      33.776 -14.956 -22.653  0.00  0.00    +0.147 C 
ATOM      5  C   UNL     1      32.682 -14.735 -21.842  0.00  0.00    +0.055 C 
ATOM      6  C   UNL     1      33.658 -12.840 -23.474  0.00  0.00    +0.141 C 
ATOM      7  C   UNL     1      32.122 -13.476 -21.924  0.00  0.00    +0.114 C 
ATOM      8  H   UNL     1      34.955 -12.036 -24.898  0.00  0.00    +0.155 HD
ATOM      9  H   UNL     1      33.747 -10.955 -24.366  0.00  0.00    +0.155 HD
ENDROOT
BRANCH   4  13
ATOM     10 CL   UNL     1      33.973 -16.678 -25.375  0.00  0.00    -0.075 Cl
ATOM     11 CL   UNL     1      36.432 -19.160 -20.805  0.00  0.00    -0.075 Cl
ATOM     12  S   UNL     1      35.385 -18.468 -23.496  0.00  0.00    -0.064 S 
ATOM     13  C   UNL     1      34.438 -16.228 -22.649  0.00  0.00    +0.049 C 
ATOM     14  C   UNL     1      35.052 -16.856 -21.524  0.00  0.00    +0.022 C 
ATOM     15  C   UNL     1      34.549 -17.003 -23.788  0.00  0.00    +0.090 C 
ATOM     16  C   UNL     1      35.604 -18.077 -21.844  0.00  0.00    +0.088 C 
ENDBRANCH   4  13
TORSDOF 1
ENDMDL
MODEL 5
REMARK VINA RESULT:      -7.3      5.270      7.448
REMARK  Name = 447955
REMARK  1 active torsions:
REMARK  status: ('A' for Active; 'I' for Inactive)
REMARK    1  A    between atoms: C_4  and  C_13
REMARK                            x       y       z     vdW  Elec       q    Type
REMARK                         _______ _______ _______ _____ _____    ______ ____
ROOT
ATOM      1  N   UNL     1      32.214 -12.892 -22.521  0.00  0.00    -0.338 NA
ATOM      2  N   UNL     1      32.237 -10.499 -22.803  0.00  0.00    -0.170 NA
ATOM      3  N   UNL     1      30.686 -11.530 -21.375  0.00  0.00    -0.293 N 
ATOM      4  C   UNL     1      33.246 -12.967 -23.388  0.00  0.00    +0.147 C 
ATOM      5  C   UNL     1      33.819 -11.868 -23.994  0.00  0.00    +0.055 C 
ATOM      6  C   UNL     1      31.766 -11.646 -22.278  0.00  0.00    +0.141 C 
ATOM      7  C   UNL     1      33.268 -10.647 -23.661  0.00  0.00    +0.114 C 
ATOM      8  H   UNL     1      30.302 -12.336 -20.962  0.00  0.00    +0.155 HD
ATOM      9  H   UNL     1      30.317 -10.642 -21.161  0.00  0.00    +0.155 HD
ENDROOT
BRANCH   4  13
ATOM     10 CL   UNL     1      32.694 -14.333 -26.260  0.00  0.00    -0.075 Cl
ATOM     11 CL   UNL     1      35.694 -17.608 -22.603  0.00  0.00    -0.075 Cl
ATOM     12  S   UNL     1      34.225 -16.477 -24.923  0.00  0.00    -0.064 S 
ATOM     13  C   UNL     1      33.738 -14.286 -23.660  0.00  0.00    +0.049 C 
ATOM     14  C   UNL     1      34.484 -15.110 -22.763  0.00  0.00    +0.022 C 
ATOM     15  C   UNL     1      33.529 -14.913 -24.873  0.00  0.00    +0.090 C 
ATOM     16  C   UNL     1      34.812 -16.326 -23.322  0.00  0.00    +0.088 C 
ENDBRANCH   4  13
TORSDOF 1
ENDMDL
MODEL 6
REMARK VINA RESULT:      -7.2      5.346      6.698
REMARK  Name = 447955
REMARK  1 active torsions:
REMARK  status: ('A' for Active; 'I' for Inactive)
REMARK    1  A    between atoms: C_4  and  C_13
REMARK                            x       y       z     vdW  Elec       q    Type
REMARK                         _______ _______ _______ _____ _____    ______ ____
ROOT
ATOM      1  N   UNL     1      34.331 -14.923 -23.337  0.00  0.00    -0.338 NA
ATOM      2  N   UNL     1      34.440 -16.457 -25.193  0.00  0.00    -0.170 NA
ATOM      3  N   UNL     1      35.700 -16.827 -23.249  0.00  0.00    -0.293 N 
ATOM      4  C   UNL     1      33.452 -14.185 -24.047  0.00  0.00    +0.147 C 
ATOM      5  C   UNL     1      33.025 -14.513 -25.318  0.00  0.00    +0.055 C 
ATOM      6  C   UNL     1      34.778 -16.029 -23.962  0.00  0.00    +0.141 C 
ATOM      7  C   UNL     1      33.558 -15.672 -25.846  0.00  0.00    +0.114 C 
ATOM      8  H   UNL     1      35.983 -16.561 -22.344  0.00  0.00    +0.155 HD
ATOM      9  H   UNL     1      36.061 -17.647 -23.657  0.00  0.00    +0.155 HD
ENDROOT
BRANCH   4  13
ATOM     10 CL   UNL     1      34.347 -11.274 -25.117  0.00  0.00    -0.075 Cl
ATOM     11 CL   UNL     1      30.789 -11.160 -20.597  0.00  0.00    -0.075 Cl
ATOM     12  S   UNL     1      32.589 -10.511 -22.868  0.00  0.00    -0.064 S 
ATOM     13  C   UNL     1      32.963 -13.003 -23.400  0.00  0.00    +0.049 C 
ATOM     14  C   UNL     1      32.081 -12.959 -22.278  0.00  0.00    +0.022 C 
ATOM     15  C   UNL     1      33.316 -11.735 -23.819  0.00  0.00    +0.090 C 
ATOM     16  C   UNL     1      31.796 -11.669 -21.888  0.00  0.00    +0.088 C 
ENDBRANCH   4  13
TORSDOF 1
ENDMDL
MODEL 7
REMARK VINA RESULT:      -7.1      5.345      7.440
REMARK  Name = 447955
REMARK  1 active torsions:
REMARK  status: ('A' for Active; 'I' for Inactive)
REMARK    1  A    between atoms: C_4  and  C_13
REMARK                            x       y       z     vdW  Elec       q    Type
REMARK                         _______ _______ _______ _____ _____    ______ ____
ROOT
ATOM      1  N   UNL     1      32.234 -12.980 -22.350  0.00  0.00    -0.338 NA
ATOM      2  N   UNL     1      32.212 -10.628 -22.876  0.00  0.00    -0.170 NA
ATOM      3  N   UNL     1      30.681 -11.535 -21.346  0.00  0.00    -0.293 N 
ATOM      4  C   UNL     1      33.267 -13.124 -23.207  0.00  0.00    +0.147 C 
ATOM      5  C   UNL     1      33.819 -12.082 -23.924  0.00  0.00    +0.055 C 
ATOM      6  C   UNL     1      31.763 -11.724 -22.235  0.00  0.00    +0.141 C 
ATOM      7  C   UNL     1      33.246 -10.844 -23.716  0.00  0.00    +0.114 C 
ATOM      8  H   UNL     1      30.312 -12.302 -20.852  0.00  0.00    +0.155 HD
ATOM      9  H   UNL     1      30.296 -10.637 -21.223  0.00  0.00    +0.155 HD
ENDROOT
BRANCH   4  13
ATOM     10 CL   UNL     1      34.569 -14.618 -20.660  0.00  0.00    -0.075 Cl
ATOM     11 CL   UNL     1      34.569 -17.728 -25.499  0.00  0.00    -0.075 Cl
ATOM     12  S   UNL     1      34.882 -16.702 -22.731  0.00  0.00    -0.064 S 
ATOM     13  C   UNL     1      33.783 -14.454 -23.344  0.00  0.00    +0.049 C 
ATOM     14  C   UNL     1      33.790 -15.238 -24.538  0.00  0.00    +0.022 C 
ATOM     15  C   UNL     1      34.350 -15.136 -22.285  0.00  0.00    +0.090 C 
ATOM     16  C   UNL     1      34.358 -16.478 -24.345  0.00  0.00    +0.088 C 
ENDBRANCH   4  13
TORSDOF 1
ENDMDL
MODEL 8
REMARK VINA RESULT:      -7.1      1.588      2.756
REMARK  Name = 447955
REMARK  1 active torsions:
REMARK  status: ('A' for Active; 'I' for Inactive)
REMARK    1  A    between atoms: C_4  and  C_13
REMARK                            x       y       z     vdW  Elec       q    Type
REMARK                         _______ _______ _______ _____ _____    ______ ____
ROOT
ATOM      1  N   UNL     1      35.651 -19.777 -20.726  0.00  0.00    -0.338 NA
ATOM      2  N   UNL     1      34.400 -21.342 -19.388  0.00  0.00    -0.170 NA
ATOM      3  N   UNL     1      36.747 -21.335 -19.356  0.00  0.00    -0.293 N 
ATOM      4  C   UNL     1      34.479 -19.282 -21.176  0.00  0.00    +0.147 C 
ATOM      5  C   UNL     1      33.245 -19.757 -20.783  0.00  0.00    +0.055 C 
ATOM      6  C   UNL     1      35.539 -20.791 -19.848  0.00  0.00    +0.141 C 
ATOM      7  C   UNL     1      33.266 -20.799 -19.878  0.00  0.00    +0.114 C 
ATOM      8  H   UNL     1      37.609 -20.971 -19.659  0.00  0.00    +0.155 HD
ATOM      9  H   UNL     1      36.724 -22.079 -18.711  0.00  0.00    +0.155 HD
ENDROOT
BRANCH   4  13
ATOM     10 CL   UNL     1      34.646 -16.239 -20.113  0.00  0.00    -0.075 Cl
ATOM     11 CL   UNL     1      34.778 -16.771 -25.840  0.00  0.00    -0.075 Cl
ATOM     12  S   UNL     1      34.760 -15.802 -23.033  0.00  0.00    -0.064 S 
ATOM     13  C   UNL     1      34.577 -18.201 -22.113  0.00  0.00    +0.049 C 
ATOM     14  C   UNL     1      34.610 -18.317 -23.535  0.00  0.00    +0.022 C 
ATOM     15  C   UNL     1      34.651 -16.882 -21.708  0.00  0.00    +0.090 C 
ATOM     16  C   UNL     1      34.708 -17.092 -24.158  0.00  0.00    +0.088 C 
ENDBRANCH   4  13
TORSDOF 1
ENDMDL
MODEL 9
REMARK VINA RESULT:      -7.1      3.452      5.236
REMARK  Name = 447955
REMARK  1 active torsions:
REMARK  status: ('A' for Active; 'I' for Inactive)
REMARK    1  A    between atoms: C_4  and  C_13
REMARK                            x       y       z     vdW  Elec       q    Type
REMARK                         _______ _______ _______ _____ _____    ______ ____
ROOT
ATOM      1  N   UNL     1      34.884 -17.410 -21.443  0.00  0.00    -0.338 NA
ATOM      2  N   UNL     1      34.958 -16.645 -23.727  0.00  0.00    -0.170 NA
ATOM      3  N   UNL     1      34.694 -15.128 -21.956  0.00  0.00    -0.293 N 
ATOM      4  C   UNL     1      35.035 -18.671 -21.899  0.00  0.00    +0.147 C 
ATOM      5  C   UNL     1      35.154 -18.994 -23.236  0.00  0.00    +0.055 C 
ATOM      6  C   UNL     1      34.853 -16.461 -22.398  0.00  0.00    +0.141 C 
ATOM      7  C   UNL     1      35.108 -17.930 -24.114  0.00  0.00    +0.114 C 
ATOM      8  H   UNL     1      34.612 -14.935 -20.995  0.00  0.00    +0.155 HD
ATOM      9  H   UNL     1      34.665 -14.393 -22.612  0.00  0.00    +0.155 HD
ENDROOT
BRANCH   4  13
ATOM     10 CL   UNL     1      32.317 -20.190 -21.051  0.00  0.00    -0.075 Cl
ATOM     11 CL   UNL     1      37.014 -21.975 -18.250  0.00  0.00    -0.075 Cl
ATOM     12  S   UNL     1      34.268 -21.545 -19.294  0.00  0.00    -0.064 S 
ATOM     13  C   UNL     1      35.071 -19.697 -20.898  0.00  0.00    +0.049 C 
ATOM     14  C   UNL     1      36.228 -20.150 -20.195  0.00  0.00    +0.022 C 
ATOM     15  C   UNL     1      33.935 -20.376 -20.501  0.00  0.00    +0.090 C 
ATOM     16  C   UNL     1      35.934 -21.150 -19.294  0.00  0.00    +0.088 C 
ENDBRANCH   4  13
TORSDOF 1
ENDMDL
