MODEL 1
REMARK VINA RESULT:     -11.4      0.000      0.000
REMARK  Name = 3152
REMARK  6 active torsions:
REMARK  status: ('A' for Active; 'I' for Inactive)
REMARK    1  A    between atoms: C_1  and  C_3
REMARK    2  A    between atoms: C_1  and  C_17
REMARK    3  A    between atoms: C_10  and  O_12
REMARK    4  A    between atoms: C_11  and  O_14
REMARK    5  A    between atoms: N_16  and  C_23
REMARK    6  A    between atoms: C_23  and  C_24
REMARK                            x       y       z     vdW  Elec       q    Type
REMARK                         _______ _______ _______ _____ _____    ______ ____
ROOT
ATOM      1  C   UNL     1      35.635 -16.961 -21.873  0.00  0.00    +0.008 C 
ENDROOT
BRANCH   1   3
ATOM      2  O   UNL     1      37.520 -19.138 -20.962  0.00  0.00    -0.291 OA
ATOM      3  C   UNL     1      35.447 -18.453 -22.070  0.00  0.00    +0.066 C 
ATOM      4  C   UNL     1      34.002 -18.914 -21.771  0.00  0.00    +0.034 C 
ATOM      5  C   UNL     1      36.316 -19.248 -21.112  0.00  0.00    +0.173 C 
ATOM      6  C   UNL     1      34.169 -20.011 -20.768  0.00  0.00    -0.016 C 
ATOM      7  C   UNL     1      35.490 -20.196 -20.382  0.00  0.00    +0.034 C 
ATOM      8  C   UNL     1      33.174 -20.800 -20.211  0.00  0.00    +0.036 C 
ATOM      9  C   UNL     1      35.879 -21.144 -19.453  0.00  0.00    +0.043 C 
ATOM     10  C   UNL     1      33.537 -21.769 -19.271  0.00  0.00    +0.172 C 
ATOM     11  C   UNL     1      34.879 -21.940 -18.894  0.00  0.00    +0.172 C 
BRANCH  10  12
ATOM     12  O   UNL     1      32.566 -22.551 -18.716  0.00  0.00    -0.468 OA
ATOM     13  C   UNL     1      32.347 -22.414 -17.314  0.00  0.00    +0.253 C 
ENDBRANCH  10  12
BRANCH  11  14
ATOM     14  O   UNL     1      35.219 -22.887 -17.973  0.00  0.00    -0.468 OA
ATOM     15  C   UNL     1      35.986 -22.454 -16.853  0.00  0.00    +0.253 C 
ENDBRANCH  11  14
ENDBRANCH   1   3
BRANCH   1  17
ATOM     16  N   UNL     1      32.824 -13.685 -22.014  0.00  0.00    +0.390 N 
ATOM     17  C   UNL     1      34.320 -16.207 -22.040  0.00  0.00    -0.004 C 
ATOM     18  C   UNL     1      33.921 -15.500 -20.740  0.00  0.00    -0.023 C 
ATOM     19  C   UNL     1      34.411 -15.184 -23.178  0.00  0.00    -0.023 C 
ATOM     20  C   UNL     1      32.655 -14.659 -20.929  0.00  0.00    -0.077 C 
ATOM     21  C   UNL     1      33.130 -14.355 -23.286  0.00  0.00    -0.077 C 
ATOM     22  H   UNL     1      33.613 -13.083 -21.778  0.00  0.00    -0.079 HD
BRANCH  16  23
ATOM     23  C   UNL     1      31.627 -12.855 -22.148  0.00  0.00    -0.050 C 
BRANCH  23  24
ATOM     24  C   UNL     1      31.732 -11.583 -21.351  0.00  0.00    -0.043 C 
ATOM     25  C   UNL     1      31.551 -11.621 -19.976  0.00  0.00    -0.006 C 
ATOM     26  C   UNL     1      32.010 -10.389 -22.003  0.00  0.00    -0.006 C 
ATOM     27  C   UNL     1      31.649 -10.442 -19.237  0.00  0.00    -0.000 C 
ATOM     28  C   UNL     1      32.109  -9.210 -21.264  0.00  0.00    -0.000 C 
ATOM     29  C   UNL     1      31.928  -9.236 -19.881  0.00  0.00    -0.000 C 
ENDBRANCH  23  24
ENDBRANCH  16  23
ENDBRANCH   1  17
TORSDOF 6
ENDMDL
MODEL 2
REMARK VINA RESULT:     -11.3      1.886      3.354
REMARK  Name = 3152
REMARK  6 active torsions:
REMARK  status: ('A' for Active; 'I' for Inactive)
REMARK    1  A    between atoms: C_1  and  C_3
REMARK    2  A    between atoms: C_1  and  C_17
REMARK    3  A    between atoms: C_10  and  O_12
REMARK    4  A    between atoms: C_11  and  O_14
REMARK    5  A    between atoms: N_16  and  C_23
REMARK    6  A    between atoms: C_23  and  C_24
REMARK                            x       y       z     vdW  Elec       q    Type
REMARK                         _______ _______ _______ _____ _____    ______ ____
ROOT
ATOM      1  C   UNL     1      35.164 -19.401 -22.912  0.00  0.00    +0.008 C 
ENDROOT
BRANCH   1   3
ATOM      2  O   UNL     1      32.647 -20.076 -21.384  0.00  0.00    -0.291 OA
ATOM      3  C   UNL     1      34.957 -19.265 -21.416  0.00  0.00    +0.066 C 
ATOM      4  C   UNL     1      36.165 -19.778 -20.600  0.00  0.00    +0.034 C 
ATOM      5  C   UNL     1      33.783 -20.103 -20.944  0.00  0.00    +0.173 C 
ATOM      6  C   UNL     1      35.570 -20.769 -19.650  0.00  0.00    -0.016 C 
ATOM      7  C   UNL     1      34.210 -20.964 -19.853  0.00  0.00    +0.034 C 
ATOM      8  C   UNL     1      36.225 -21.480 -18.657  0.00  0.00    +0.036 C 
ATOM      9  C   UNL     1      33.455 -21.846 -19.102  0.00  0.00    +0.043 C 
ATOM     10  C   UNL     1      35.488 -22.378 -17.879  0.00  0.00    +0.172 C 
ATOM     11  C   UNL     1      34.112 -22.560 -18.100  0.00  0.00    +0.172 C 
BRANCH  10  12
ATOM     12  O   UNL     1      36.122 -23.083 -16.898  0.00  0.00    -0.468 OA
ATOM     13  C   UNL     1      37.030 -22.362 -16.068  0.00  0.00    +0.253 C 
ENDBRANCH  10  12
BRANCH  11  14
ATOM     14  O   UNL     1      33.405 -23.441 -17.337  0.00  0.00    -0.468 OA
ATOM     15  C   UNL     1      32.147 -22.997 -16.834  0.00  0.00    +0.253 C 
ENDBRANCH  11  14
ENDBRANCH   1   3
BRANCH   1  17
ATOM     16  N   UNL     1      33.868 -15.555 -24.388  0.00  0.00    +0.390 N 
ATOM     17  C   UNL     1      35.210 -18.039 -23.596  0.00  0.00    -0.004 C 
ATOM     18  C   UNL     1      34.220 -17.975 -24.764  0.00  0.00    -0.023 C 
ATOM     19  C   UNL     1      34.908 -16.913 -22.601  0.00  0.00    -0.023 C 
ATOM     20  C   UNL     1      34.188 -16.578 -25.390  0.00  0.00    -0.077 C 
ATOM     21  C   UNL     1      34.854 -15.552 -23.299  0.00  0.00    -0.077 C 
ATOM     22  H   UNL     1      32.957 -15.780 -23.986  0.00  0.00    -0.079 HD
BRANCH  16  23
ATOM     23  C   UNL     1      33.790 -14.234 -25.010  0.00  0.00    -0.050 C 
BRANCH  23  24
ATOM     24  C   UNL     1      33.246 -13.197 -24.063  0.00  0.00    -0.043 C 
ATOM     25  C   UNL     1      33.578 -11.863 -24.246  0.00  0.00    -0.006 C 
ATOM     26  C   UNL     1      32.419 -13.592 -23.020  0.00  0.00    -0.006 C 
ATOM     27  C   UNL     1      33.074 -10.903 -23.369  0.00  0.00    -0.000 C 
ATOM     28  C   UNL     1      31.914 -12.632 -22.143  0.00  0.00    -0.000 C 
ATOM     29  C   UNL     1      32.241 -11.287 -22.318  0.00  0.00    -0.000 C 
ENDBRANCH  23  24
ENDBRANCH  16  23
ENDBRANCH   1  17
TORSDOF 6
ENDMDL
MODEL 3
REMARK VINA RESULT:     -11.3      3.439      9.360
REMARK  Name = 3152
REMARK  6 active torsions:
REMARK  status: ('A' for Active; 'I' for Inactive)
REMARK    1  A    between atoms: C_1  and  C_3
REMARK    2  A    between atoms: C_1  and  C_17
REMARK    3  A    between atoms: C_10  and  O_12
REMARK    4  A    between atoms: C_11  and  O_14
REMARK    5  A    between atoms: N_16  and  C_23
REMARK    6  A    between atoms: C_23  and  C_24
REMARK                            x       y       z     vdW  Elec       q    Type
REMARK                         _______ _______ _______ _____ _____    ______ ____
ROOT
ATOM      1  C   UNL     1      36.271 -19.529 -20.893  0.00  0.00    +0.008 C 
ENDROOT
BRANCH   1   3
ATOM      2  O   UNL     1      35.168 -16.818 -20.146  0.00  0.00    -0.291 OA
ATOM      3  C   UNL     1      34.993 -18.903 -21.417  0.00  0.00    +0.066 C 
ATOM      4  C   UNL     1      34.825 -19.086 -22.943  0.00  0.00    +0.034 C 
ATOM      5  C   UNL     1      34.986 -17.401 -21.200  0.00  0.00    +0.173 C 
ATOM      6  C   UNL     1      34.613 -17.697 -23.456  0.00  0.00    -0.016 C 
ATOM      7  C   UNL     1      34.716 -16.731 -22.463  0.00  0.00    +0.034 C 
ATOM      8  C   UNL     1      34.356 -17.313 -24.763  0.00  0.00    +0.036 C 
ATOM      9  C   UNL     1      34.572 -15.378 -22.709  0.00  0.00    +0.043 C 
ATOM     10  C   UNL     1      34.203 -15.951 -25.042  0.00  0.00    +0.172 C 
ATOM     11  C   UNL     1      34.311 -14.991 -24.023  0.00  0.00    +0.172 C 
BRANCH  10  12
ATOM     12  O   UNL     1      33.949 -15.562 -26.325  0.00  0.00    -0.468 OA
ATOM     13  C   UNL     1      32.658 -15.021 -26.594  0.00  0.00    +0.253 C 
ENDBRANCH  10  12
BRANCH  11  14
ATOM     14  O   UNL     1      34.162 -13.666 -24.310  0.00  0.00    -0.468 OA
ATOM     15  C   UNL     1      33.285 -12.917 -23.473  0.00  0.00    +0.253 C 
ENDBRANCH  11  14
ENDBRANCH   1   3
BRANCH   1  17
ATOM     16  N   UNL     1      34.831 -22.252 -17.866  0.00  0.00    +0.390 N 
ATOM     17  C   UNL     1      35.992 -20.834 -20.154  0.00  0.00    -0.004 C 
ATOM     18  C   UNL     1      36.647 -20.834 -18.768  0.00  0.00    -0.023 C 
ATOM     19  C   UNL     1      34.485 -21.076 -20.015  0.00  0.00    -0.023 C 
ATOM     20  C   UNL     1      36.286 -22.098 -17.983  0.00  0.00    -0.077 C 
ATOM     21  C   UNL     1      34.197 -22.332 -19.189  0.00  0.00    -0.077 C 
ATOM     22  H   UNL     1      34.464 -21.426 -17.390  0.00  0.00    -0.079 HD
BRANCH  16  23
ATOM     23  C   UNL     1      34.503 -23.434 -17.069  0.00  0.00    -0.050 C 
BRANCH  23  24
ATOM     24  C   UNL     1      33.220 -23.257 -16.302  0.00  0.00    -0.043 C 
ATOM     25  C   UNL     1      32.028 -23.094 -16.993  0.00  0.00    -0.006 C 
ATOM     26  C   UNL     1      33.248 -23.260 -14.914  0.00  0.00    -0.006 C 
ATOM     27  C   UNL     1      30.839 -22.930 -16.282  0.00  0.00    -0.000 C 
ATOM     28  C   UNL     1      32.059 -23.097 -14.203  0.00  0.00    -0.000 C 
ATOM     29  C   UNL     1      30.854 -22.932 -14.887  0.00  0.00    -0.000 C 
ENDBRANCH  23  24
ENDBRANCH  16  23
ENDBRANCH   1  17
TORSDOF 6
ENDMDL
MODEL 4
REMARK VINA RESULT:     -11.3      1.368      1.785
REMARK  Name = 3152
REMARK  6 active torsions:
REMARK  status: ('A' for Active; 'I' for Inactive)
REMARK    1  A    between atoms: C_1  and  C_3
REMARK    2  A    between atoms: C_1  and  C_17
REMARK    3  A    between atoms: C_10  and  O_12
REMARK    4  A    between atoms: C_11  and  O_14
REMARK    5  A    between atoms: N_16  and  C_23
REMARK    6  A    between atoms: C_23  and  C_24
REMARK                            x       y       z     vdW  Elec       q    Type
REMARK                         _______ _______ _______ _____ _____    ______ ____
ROOT
ATOM      1  C   UNL     1      35.655 -17.574 -21.407  0.00  0.00    +0.008 C 
ENDROOT
BRANCH   1   3
ATOM      2  O   UNL     1      37.405 -19.830 -20.421  0.00  0.00    -0.291 OA
ATOM      3  C   UNL     1      35.385 -19.057 -21.568  0.00  0.00    +0.066 C 
ATOM      4  C   UNL     1      33.913 -19.429 -21.274  0.00  0.00    +0.034 C 
ATOM      5  C   UNL     1      36.199 -19.876 -20.582  0.00  0.00    +0.173 C 
ATOM      6  C   UNL     1      34.008 -20.507 -20.242  0.00  0.00    -0.016 C 
ATOM      7  C   UNL     1      35.313 -20.757 -19.837  0.00  0.00    +0.034 C 
ATOM      8  C   UNL     1      32.965 -21.224 -19.676  0.00  0.00    +0.036 C 
ATOM      9  C   UNL     1      35.639 -21.701 -18.881  0.00  0.00    +0.043 C 
ATOM     10  C   UNL     1      33.263 -22.188 -18.708  0.00  0.00    +0.172 C 
ATOM     11  C   UNL     1      34.590 -22.425 -18.313  0.00  0.00    +0.172 C 
BRANCH  10  12
ATOM     12  O   UNL     1      32.244 -22.899 -18.145  0.00  0.00    -0.468 OA
ATOM     13  C   UNL     1      31.878 -22.559 -16.810  0.00  0.00    +0.253 C 
ENDBRANCH  10  12
BRANCH  11  14
ATOM     14  O   UNL     1      34.867 -23.366 -17.365  0.00  0.00    -0.468 OA
ATOM     15  C   UNL     1      35.504 -22.915 -16.173  0.00  0.00    +0.253 C 
ENDBRANCH  11  14
ENDBRANCH   1   3
BRANCH   1  17
ATOM     16  N   UNL     1      33.402 -14.139 -22.741  0.00  0.00    +0.390 N 
ATOM     17  C   UNL     1      34.488 -16.735 -21.919  0.00  0.00    -0.004 C 
ATOM     18  C   UNL     1      34.108 -15.646 -20.910  0.00  0.00    -0.023 C 
ATOM     19  C   UNL     1      34.820 -16.096 -23.271  0.00  0.00    -0.023 C 
ATOM     20  C   UNL     1      33.005 -14.738 -21.461  0.00  0.00    -0.077 C 
ATOM     21  C   UNL     1      33.694 -15.174 -23.743  0.00  0.00    -0.077 C 
ATOM     22  H   UNL     1      34.255 -13.601 -22.587  0.00  0.00    -0.079 HD
BRANCH  16  23
ATOM     23  C   UNL     1      32.360 -13.235 -23.229  0.00  0.00    -0.050 C 
BRANCH  23  24
ATOM     24  C   UNL     1      32.869 -11.828 -23.392  0.00  0.00    -0.043 C 
ATOM     25  C   UNL     1      32.245 -10.792 -22.712  0.00  0.00    -0.006 C 
ATOM     26  C   UNL     1      33.956 -11.587 -24.221  0.00  0.00    -0.006 C 
ATOM     27  C   UNL     1      32.717  -9.488 -22.864  0.00  0.00    -0.000 C 
ATOM     28  C   UNL     1      34.429 -10.282 -24.372  0.00  0.00    -0.000 C 
ATOM     29  C   UNL     1      33.809  -9.234 -23.694  0.00  0.00    -0.000 C 
ENDBRANCH  23  24
ENDBRANCH  16  23
ENDBRANCH   1  17
TORSDOF 6
ENDMDL
MODEL 5
REMARK VINA RESULT:     -11.2      2.458      3.482
REMARK  Name = 3152
REMARK  6 active torsions:
REMARK  status: ('A' for Active; 'I' for Inactive)
REMARK    1  A    between atoms: C_1  and  C_3
REMARK    2  A    between atoms: C_1  and  C_17
REMARK    3  A    between atoms: C_10  and  O_12
REMARK    4  A    between atoms: C_11  and  O_14
REMARK    5  A    between atoms: N_16  and  C_23
REMARK    6  A    between atoms: C_23  and  C_24
REMARK                            x       y       z     vdW  Elec       q    Type
REMARK                         _______ _______ _______ _____ _____    ______ ____
ROOT
ATOM      1  C   UNL     1      35.100 -18.350 -23.202  0.00  0.00    +0.008 C 
ENDROOT
BRANCH   1   3
ATOM      2  O   UNL     1      32.842 -19.518 -21.570  0.00  0.00    -0.291 OA
ATOM      3  C   UNL     1      35.019 -18.403 -21.689  0.00  0.00    +0.066 C 
ATOM      4  C   UNL     1      36.353 -18.831 -21.036  0.00  0.00    +0.034 C 
ATOM      5  C   UNL     1      34.008 -19.438 -21.227  0.00  0.00    +0.173 C 
ATOM      6  C   UNL     1      35.979 -19.989 -20.166  0.00  0.00    -0.016 C 
ATOM      7  C   UNL     1      34.641 -20.345 -20.282  0.00  0.00    +0.034 C 
ATOM      8  C   UNL     1      36.809 -20.707 -19.318  0.00  0.00    +0.036 C 
ATOM      9  C   UNL     1      34.077 -21.395 -19.584  0.00  0.00    +0.043 C 
ATOM     10  C   UNL     1      36.266 -21.773 -18.596  0.00  0.00    +0.172 C 
ATOM     11  C   UNL     1      34.910 -22.116 -18.728  0.00  0.00    +0.172 C 
BRANCH  10  12
ATOM     12  O   UNL     1      37.073 -22.486 -17.758  0.00  0.00    -0.468 OA
ATOM     13  C   UNL     1      37.194 -22.013 -16.419  0.00  0.00    +0.253 C 
ENDBRANCH  10  12
BRANCH  11  14
ATOM     14  O   UNL     1      34.394 -23.161 -18.020  0.00  0.00    -0.468 OA
ATOM     15  C   UNL     1      33.046 -23.036 -17.572  0.00  0.00    +0.253 C 
ENDBRANCH  11  14
ENDBRANCH   1   3
BRANCH   1  17
ATOM     16  N   UNL     1      33.857 -14.539 -24.809  0.00  0.00    +0.390 N 
ATOM     17  C   UNL     1      34.198 -17.260 -23.772  0.00  0.00    -0.004 C 
ATOM     18  C   UNL     1      34.180 -16.028 -22.860  0.00  0.00    -0.023 C 
ATOM     19  C   UNL     1      34.646 -16.854 -25.180  0.00  0.00    -0.023 C 
ATOM     20  C   UNL     1      33.357 -14.893 -23.475  0.00  0.00    -0.077 C 
ATOM     21  C   UNL     1      33.808 -15.693 -25.718  0.00  0.00    -0.077 C 
ATOM     22  H   UNL     1      34.833 -14.254 -24.715  0.00  0.00    -0.079 HD
BRANCH  16  23
ATOM     23  C   UNL     1      33.095 -13.420 -25.362  0.00  0.00    -0.050 C 
BRANCH  23  24
ATOM     24  C   UNL     1      33.805 -12.106 -25.168  0.00  0.00    -0.043 C 
ATOM     25  C   UNL     1      33.578 -11.370 -24.015  0.00  0.00    -0.006 C 
ATOM     26  C   UNL     1      34.678 -11.651 -26.148  0.00  0.00    -0.006 C 
ATOM     27  C   UNL     1      34.237 -10.153 -23.836  0.00  0.00    -0.000 C 
ATOM     28  C   UNL     1      35.337 -10.434 -25.968  0.00  0.00    -0.000 C 
ATOM     29  C   UNL     1      35.116  -9.685 -24.813  0.00  0.00    -0.000 C 
ENDBRANCH  23  24
ENDBRANCH  16  23
ENDBRANCH   1  17
TORSDOF 6
ENDMDL
MODEL 6
REMARK VINA RESULT:     -11.0      3.331      9.584
REMARK  Name = 3152
REMARK  6 active torsions:
REMARK  status: ('A' for Active; 'I' for Inactive)
REMARK    1  A    between atoms: C_1  and  C_3
REMARK    2  A    between atoms: C_1  and  C_17
REMARK    3  A    between atoms: C_10  and  O_12
REMARK    4  A    between atoms: C_11  and  O_14
REMARK    5  A    between atoms: N_16  and  C_23
REMARK    6  A    between atoms: C_23  and  C_24
REMARK                            x       y       z     vdW  Elec       q    Type
REMARK                         _______ _______ _______ _____ _____    ______ ____
ROOT
ATOM      1  C   UNL     1      35.610 -18.226 -21.401  0.00  0.00    +0.008 C 
ENDROOT
BRANCH   1   3
ATOM      2  O   UNL     1      34.826 -15.587 -20.158  0.00  0.00    -0.291 OA
ATOM      3  C   UNL     1      34.369 -17.415 -21.721  0.00  0.00    +0.066 C 
ATOM      4  C   UNL     1      34.089 -17.332 -23.239  0.00  0.00    +0.034 C 
ATOM      5  C   UNL     1      34.523 -15.972 -21.273  0.00  0.00    +0.173 C 
ATOM      6  C   UNL     1      33.982 -15.865 -23.511  0.00  0.00    -0.016 C 
ATOM      7  C   UNL     1      34.241 -15.086 -22.391  0.00  0.00    +0.034 C 
ATOM      8  C   UNL     1      33.683 -15.253 -24.719  0.00  0.00    +0.036 C 
ATOM      9  C   UNL     1      34.215 -13.704 -22.411  0.00  0.00    +0.043 C 
ATOM     10  C   UNL     1      33.646 -13.856 -24.770  0.00  0.00    +0.172 C 
ATOM     11  C   UNL     1      33.911 -13.087 -23.625  0.00  0.00    +0.172 C 
BRANCH  10  12
ATOM     12  O   UNL     1      33.353 -13.244 -25.953  0.00  0.00    -0.468 OA
ATOM     13  C   UNL     1      32.795 -14.057 -26.982  0.00  0.00    +0.253 C 
ENDBRANCH  10  12
BRANCH  11  14
ATOM     14  O   UNL     1      33.875 -11.725 -23.690  0.00  0.00    -0.468 OA
ATOM     15  C   UNL     1      32.771 -11.077 -23.063  0.00  0.00    +0.253 C 
ENDBRANCH  11  14
ENDBRANCH   1   3
BRANCH   1  17
ATOM     16  N   UNL     1      34.428 -21.739 -19.186  0.00  0.00    +0.390 N 
ATOM     17  C   UNL     1      35.264 -19.680 -21.098  0.00  0.00    -0.004 C 
ATOM     18  C   UNL     1      36.218 -20.266 -20.051  0.00  0.00    -0.023 C 
ATOM     19  C   UNL     1      33.817 -19.811 -20.611  0.00  0.00    -0.023 C 
ATOM     20  C   UNL     1      35.814 -21.692 -19.668  0.00  0.00    -0.077 C 
ATOM     21  C   UNL     1      33.493 -21.252 -20.210  0.00  0.00    -0.077 C 
ATOM     22  H   UNL     1      34.354 -21.124 -18.375  0.00  0.00    -0.079 HD
BRANCH  16  23
ATOM     23  C   UNL     1      34.074 -23.098 -18.775  0.00  0.00    -0.050 C 
BRANCH  23  24
ATOM     24  C   UNL     1      33.559 -23.141 -17.361  0.00  0.00    -0.043 C 
ATOM     25  C   UNL     1      32.193 -23.069 -17.128  0.00  0.00    -0.006 C 
ATOM     26  C   UNL     1      34.459 -23.252 -16.310  0.00  0.00    -0.006 C 
ATOM     27  C   UNL     1      31.717 -23.110 -15.818  0.00  0.00    -0.000 C 
ATOM     28  C   UNL     1      33.983 -23.293 -14.999  0.00  0.00    -0.000 C 
ATOM     29  C   UNL     1      32.612 -23.222 -14.753  0.00  0.00    -0.000 C 
ENDBRANCH  23  24
ENDBRANCH  16  23
ENDBRANCH   1  17
TORSDOF 6
ENDMDL
MODEL 7
REMARK VINA RESULT:     -10.9      2.743      5.935
REMARK  Name = 3152
REMARK  6 active torsions:
REMARK  status: ('A' for Active; 'I' for Inactive)
REMARK    1  A    between atoms: C_1  and  C_3
REMARK    2  A    between atoms: C_1  and  C_17
REMARK    3  A    between atoms: C_10  and  O_12
REMARK    4  A    between atoms: C_11  and  O_14
REMARK    5  A    between atoms: N_16  and  C_23
REMARK    6  A    between atoms: C_23  and  C_24
REMARK                            x       y       z     vdW  Elec       q    Type
REMARK                         _______ _______ _______ _____ _____    ______ ____
ROOT
ATOM      1  C   UNL     1      34.944 -22.342 -19.474  0.00  0.00    +0.008 C 
ENDROOT
BRANCH   1   3
ATOM      2  O   UNL     1      33.247 -23.057 -17.080  0.00  0.00    -0.291 OA
ATOM      3  C   UNL     1      35.161 -21.876 -18.047  0.00  0.00    +0.066 C 
ATOM      4  C   UNL     1      36.645 -21.943 -17.620  0.00  0.00    +0.034 C 
ATOM      5  C   UNL     1      34.430 -22.768 -17.059  0.00  0.00    +0.173 C 
ATOM      6  C   UNL     1      36.628 -22.756 -16.364  0.00  0.00    -0.016 C 
ATOM      7  C   UNL     1      35.364 -23.238 -16.048  0.00  0.00    +0.034 C 
ATOM      8  C   UNL     1      37.705 -23.067 -15.548  0.00  0.00    +0.036 C 
ATOM      9  C   UNL     1      35.113 -24.026 -14.941  0.00  0.00    +0.043 C 
ATOM     10  C   UNL     1      37.481 -23.860 -14.419  0.00  0.00    +0.172 C 
ATOM     11  C   UNL     1      36.195 -24.337 -14.117  0.00  0.00    +0.172 C 
BRANCH  10  12
ATOM     12  O   UNL     1      38.534 -24.171 -13.608  0.00  0.00    -0.468 OA
ATOM     13  C   UNL     1      39.273 -25.347 -13.931  0.00  0.00    +0.253 C 
ENDBRANCH  10  12
BRANCH  11  14
ATOM     14  O   UNL     1      35.992 -25.113 -13.014  0.00  0.00    -0.468 OA
ATOM     15  C   UNL     1      35.446 -24.471 -11.864  0.00  0.00    +0.253 C 
ENDBRANCH  11  14
ENDBRANCH   1   3
BRANCH   1  17
ATOM     16  N   UNL     1      35.346 -18.348 -21.067  0.00  0.00    +0.390 N 
ATOM     17  C   UNL     1      35.187 -21.214 -20.472  0.00  0.00    -0.004 C 
ATOM     18  C   UNL     1      33.941 -20.335 -20.624  0.00  0.00    -0.023 C 
ATOM     19  C   UNL     1      36.380 -20.351 -20.048  0.00  0.00    -0.023 C 
ATOM     20  C   UNL     1      34.210 -19.144 -21.547  0.00  0.00    -0.077 C 
ATOM     21  C   UNL     1      36.568 -19.160 -20.990  0.00  0.00    -0.077 C 
ATOM     22  H   UNL     1      35.127 -18.020 -20.125  0.00  0.00    -0.079 HD
BRANCH  16  23
ATOM     23  C   UNL     1      35.558 -17.185 -21.928  0.00  0.00    -0.050 C 
BRANCH  23  24
ATOM     24  C   UNL     1      34.473 -16.154 -21.759  0.00  0.00    -0.043 C 
ATOM     25  C   UNL     1      33.944 -15.529 -22.878  0.00  0.00    -0.006 C 
ATOM     26  C   UNL     1      34.018 -15.845 -20.484  0.00  0.00    -0.006 C 
ATOM     27  C   UNL     1      32.939 -14.575 -22.721  0.00  0.00    -0.000 C 
ATOM     28  C   UNL     1      33.012 -14.891 -20.327  0.00  0.00    -0.000 C 
ATOM     29  C   UNL     1      32.473 -14.256 -21.445  0.00  0.00    -0.000 C 
ENDBRANCH  23  24
ENDBRANCH  16  23
ENDBRANCH   1  17
TORSDOF 6
ENDMDL
MODEL 8
REMARK VINA RESULT:     -10.9      2.832      5.938
REMARK  Name = 3152
REMARK  6 active torsions:
REMARK  status: ('A' for Active; 'I' for Inactive)
REMARK    1  A    between atoms: C_1  and  C_3
REMARK    2  A    between atoms: C_1  and  C_17
REMARK    3  A    between atoms: C_10  and  O_12
REMARK    4  A    between atoms: C_11  and  O_14
REMARK    5  A    between atoms: N_16  and  C_23
REMARK    6  A    between atoms: C_23  and  C_24
REMARK                            x       y       z     vdW  Elec       q    Type
REMARK                         _______ _______ _______ _____ _____    ______ ____
ROOT
ATOM      1  C   UNL     1      34.951 -22.564 -19.402  0.00  0.00    +0.008 C 
ENDROOT
BRANCH   1   3
ATOM      2  O   UNL     1      32.222 -22.635 -18.109  0.00  0.00    -0.291 OA
ATOM      3  C   UNL     1      34.592 -22.026 -18.030  0.00  0.00    +0.066 C 
ATOM      4  C   UNL     1      35.641 -22.393 -16.955  0.00  0.00    +0.034 C 
ATOM      5  C   UNL     1      33.292 -22.627 -17.526  0.00  0.00    +0.173 C 
ATOM      6  C   UNL     1      34.844 -23.056 -15.877  0.00  0.00    -0.016 C 
ATOM      7  C   UNL     1      33.502 -23.201 -16.207  0.00  0.00    +0.034 C 
ATOM      8  C   UNL     1      35.306 -23.528 -14.658  0.00  0.00    +0.036 C 
ATOM      9  C   UNL     1      32.580 -23.800 -15.369  0.00  0.00    +0.043 C 
ATOM     10  C   UNL     1      34.396 -24.136 -13.788  0.00  0.00    +0.172 C 
ATOM     11  C   UNL     1      33.043 -24.272 -14.141  0.00  0.00    +0.172 C 
BRANCH  10  12
ATOM     12  O   UNL     1      34.840 -24.603 -12.585  0.00  0.00    -0.468 OA
ATOM     13  C   UNL     1      35.908 -23.888 -11.968  0.00  0.00    +0.253 C 
ENDBRANCH  10  12
BRANCH  11  14
ATOM     14  O   UNL     1      32.167 -24.870 -13.284  0.00  0.00    -0.468 OA
ATOM     15  C   UNL     1      30.778 -24.665 -13.531  0.00  0.00    +0.253 C 
ENDBRANCH  11  14
ENDBRANCH   1   3
BRANCH   1  17
ATOM     16  N   UNL     1      35.474 -18.567 -20.953  0.00  0.00    +0.390 N 
ATOM     17  C   UNL     1      35.249 -21.434 -20.383  0.00  0.00    -0.004 C 
ATOM     18  C   UNL     1      34.022 -20.535 -20.576  0.00  0.00    -0.023 C 
ATOM     19  C   UNL     1      36.438 -20.592 -19.909  0.00  0.00    -0.023 C 
ATOM     20  C   UNL     1      34.344 -19.343 -21.481  0.00  0.00    -0.077 C 
ATOM     21  C   UNL     1      36.680 -19.398 -20.836  0.00  0.00    -0.077 C 
ATOM     22  H   UNL     1      35.224 -18.241 -20.019  0.00  0.00    -0.079 HD
BRANCH  16  23
ATOM     23  C   UNL     1      35.736 -17.403 -21.799  0.00  0.00    -0.050 C 
BRANCH  23  24
ATOM     24  C   UNL     1      34.646 -16.370 -21.687  0.00  0.00    -0.043 C 
ATOM     25  C   UNL     1      34.211 -15.969 -20.432  0.00  0.00    -0.006 C 
ATOM     26  C   UNL     1      34.093 -15.832 -22.841  0.00  0.00    -0.006 C 
ATOM     27  C   UNL     1      33.202 -15.012 -20.328  0.00  0.00    -0.000 C 
ATOM     28  C   UNL     1      33.084 -14.874 -22.737  0.00  0.00    -0.000 C 
ATOM     29  C   UNL     1      32.639 -14.464 -21.481  0.00  0.00    -0.000 C 
ENDBRANCH  23  24
ENDBRANCH  16  23
ENDBRANCH   1  17
TORSDOF 6
ENDMDL
MODEL 9
REMARK VINA RESULT:     -10.9      4.462     10.824
REMARK  Name = 3152
REMARK  6 active torsions:
REMARK  status: ('A' for Active; 'I' for Inactive)
REMARK    1  A    between atoms: C_1  and  C_3
REMARK    2  A    between atoms: C_1  and  C_17
REMARK    3  A    between atoms: C_10  and  O_12
REMARK    4  A    between atoms: C_11  and  O_14
REMARK    5  A    between atoms: N_16  and  C_23
REMARK    6  A    between atoms: C_23  and  C_24
REMARK                            x       y       z     vdW  Elec       q    Type
REMARK                         _______ _______ _______ _____ _____    ______ ____
ROOT
ATOM      1  C   UNL     1      32.510 -13.173 -20.248  0.00  0.00    +0.008 C 
ENDROOT
BRANCH   1   3
ATOM      2  O   UNL     1      31.153 -10.726 -19.111  0.00  0.00    -0.291 OA
ATOM      3  C   UNL     1      31.626 -12.202 -21.006  0.00  0.00    +0.066 C 
ATOM      4  C   UNL     1      32.204 -11.829 -22.391  0.00  0.00    +0.034 C 
ATOM      5  C   UNL     1      31.500 -10.881 -20.268  0.00  0.00    +0.173 C 
ATOM      6  C   UNL     1      32.245 -10.334 -22.379  0.00  0.00    -0.016 C 
ATOM      7  C   UNL     1      31.853  -9.790 -21.163  0.00  0.00    +0.034 C 
ATOM      8  C   UNL     1      32.634  -9.495 -23.412  0.00  0.00    +0.036 C 
ATOM      9  C   UNL     1      31.827  -8.430 -20.918  0.00  0.00    +0.043 C 
ATOM     10  C   UNL     1      32.616  -8.114 -23.196  0.00  0.00    +0.172 C 
ATOM     11  C   UNL     1      32.216  -7.585 -21.957  0.00  0.00    +0.172 C 
BRANCH  10  12
ATOM     12  O   UNL     1      32.997  -7.279 -24.205  0.00  0.00    -0.468 OA
ATOM     13  C   UNL     1      34.391  -7.010 -24.331  0.00  0.00    +0.253 C 
ENDBRANCH  10  12
BRANCH  11  14
ATOM     14  O   UNL     1      32.206  -6.236 -21.758  0.00  0.00    -0.468 OA
ATOM     15  C   UNL     1      30.950  -5.573 -21.880  0.00  0.00    +0.253 C 
ENDBRANCH  11  14
ENDBRANCH   1   3
BRANCH   1  17
ATOM     16  N   UNL     1      34.069 -17.054 -21.327  0.00  0.00    +0.390 N 
ATOM     17  C   UNL     1      32.815 -14.415 -21.079  0.00  0.00    -0.004 C 
ATOM     18  C   UNL     1      34.326 -14.594 -21.269  0.00  0.00    -0.023 C 
ATOM     19  C   UNL     1      32.223 -15.671 -20.431  0.00  0.00    -0.023 C 
ATOM     20  C   UNL     1      34.642 -15.891 -22.016  0.00  0.00    -0.077 C 
ATOM     21  C   UNL     1      32.610 -16.933 -21.207  0.00  0.00    -0.077 C 
ATOM     22  H   UNL     1      34.461 -17.086 -20.385  0.00  0.00    -0.079 HD
BRANCH  16  23
ATOM     23  C   UNL     1      34.424 -18.290 -22.023  0.00  0.00    -0.050 C 
BRANCH  23  24
ATOM     24  C   UNL     1      34.517 -19.460 -21.080  0.00  0.00    -0.043 C 
ATOM     25  C   UNL     1      35.764 -19.907 -20.667  0.00  0.00    -0.006 C 
ATOM     26  C   UNL     1      33.353 -20.074 -20.637  0.00  0.00    -0.006 C 
ATOM     27  C   UNL     1      35.849 -20.991 -19.793  0.00  0.00    -0.000 C 
ATOM     28  C   UNL     1      33.439 -21.158 -19.762  0.00  0.00    -0.000 C 
ATOM     29  C   UNL     1      34.687 -21.616 -19.341  0.00  0.00    -0.000 C 
ENDBRANCH  23  24
ENDBRANCH  16  23
ENDBRANCH   1  17
TORSDOF 6
ENDMDL
