MODEL 1
REMARK VINA RESULT:     -11.0      0.000      0.000
REMARK  Name = 54369
REMARK  4 active torsions:
REMARK  status: ('A' for Active; 'I' for Inactive)
REMARK    1  A    between atoms: C_6  and  C_18
REMARK    2  A    between atoms: C_18  and  C_19
REMARK    3  A    between atoms: C_20  and  O_25
REMARK    4  A    between atoms: C_22  and  O_27
REMARK                            x       y       z     vdW  Elec       q    Type
REMARK                         _______ _______ _______ _____ _____    ______ ____
ROOT
ATOM      1  N   UNL     1      32.991 -20.159 -21.020  0.00  0.00    -0.182 NA
ATOM      2  N   UNL     1      32.791 -21.730 -19.332  0.00  0.00    -0.273 NA
ATOM      3  N   UNL     1      34.712 -22.516 -18.111  0.00  0.00    -0.312 NA
ATOM      4  N   UNL     1      36.844 -21.723 -18.585  0.00  0.00    -0.332 N 
ATOM      5  N   UNL     1      32.570 -23.325 -17.624  0.00  0.00    -0.283 N 
ATOM      6  C   UNL     1      35.143 -19.243 -21.623  0.00  0.00    -0.001 C 
ATOM      7  C   UNL     1      35.734 -20.029 -20.651  0.00  0.00    -0.010 C 
ATOM      8  C   UNL     1      34.939 -20.878 -19.867  0.00  0.00    +0.115 C 
ATOM      9  C   UNL     1      33.776 -19.344 -21.767  0.00  0.00    +0.106 C 
ATOM     10  C   UNL     1      33.555 -20.923 -20.076  0.00  0.00    +0.104 C 
ATOM     11  C   UNL     1      37.221 -19.907 -20.508  0.00  0.00    +0.032 C 
ATOM     12  C   UNL     1      35.460 -21.699 -18.870  0.00  0.00    +0.201 C 
ATOM     13  C   UNL     1      33.402 -22.483 -18.393  0.00  0.00    +0.206 C 
ATOM     14  H   UNL     1      37.190 -22.311 -17.877  0.00  0.00    +0.145 HD
ATOM     15  H   UNL     1      37.461 -21.153 -19.098  0.00  0.00    +0.145 HD
ATOM     16  H   UNL     1      31.599 -23.340 -17.788  0.00  0.00    +0.156 HD
ATOM     17  H   UNL     1      32.960 -23.897 -16.925  0.00  0.00    +0.156 HD
ENDROOT
BRANCH   6  18
ATOM     18  C   UNL     1      35.917 -18.318 -22.497  0.00  0.00    +0.057 C 
BRANCH  18  19
ATOM     19  C   UNL     1      35.106 -17.157 -23.038  0.00  0.00    +0.019 C 
ATOM     20  C   UNL     1      34.718 -16.133 -22.192  0.00  0.00    +0.135 C 
ATOM     21  C   UNL     1      34.770 -17.155 -24.380  0.00  0.00    +0.036 C 
ATOM     22  C   UNL     1      34.024 -16.094 -24.894  0.00  0.00    +0.139 C 
ATOM     23  C   UNL     1      33.972 -15.073 -22.705  0.00  0.00    +0.040 C 
ATOM     24  C   UNL     1      33.624 -15.053 -24.055  0.00  0.00    +0.040 C 
BRANCH  20  25
ATOM     25  O   UNL     1      35.048 -16.138 -20.870  0.00  0.00    -0.472 OA
ATOM     26  C   UNL     1      34.614 -15.024 -20.090  0.00  0.00    +0.252 C 
ENDBRANCH  20  25
BRANCH  22  27
ATOM     27  O   UNL     1      33.686 -16.074 -26.211  0.00  0.00    -0.471 OA
ATOM     28  C   UNL     1      32.920 -14.961 -26.669  0.00  0.00    +0.252 C 
ENDBRANCH  22  27
ENDBRANCH  18  19
ENDBRANCH   6  18
TORSDOF 4
ENDMDL
MODEL 2
REMARK VINA RESULT:     -10.9      1.081      2.583
REMARK  Name = 54369
REMARK  4 active torsions:
REMARK  status: ('A' for Active; 'I' for Inactive)
REMARK    1  A    between atoms: C_6  and  C_18
REMARK    2  A    between atoms: C_18  and  C_19
REMARK    3  A    between atoms: C_20  and  O_25
REMARK    4  A    between atoms: C_22  and  O_27
REMARK                            x       y       z     vdW  Elec       q    Type
REMARK                         _______ _______ _______ _____ _____    ______ ____
ROOT
ATOM      1  N   UNL     1      32.875 -20.461 -20.685  0.00  0.00    -0.182 NA
ATOM      2  N   UNL     1      32.734 -21.998 -18.959  0.00  0.00    -0.273 NA
ATOM      3  N   UNL     1      34.689 -22.711 -17.746  0.00  0.00    -0.312 NA
ATOM      4  N   UNL     1      36.794 -21.879 -18.267  0.00  0.00    -0.332 N 
ATOM      5  N   UNL     1      32.572 -23.558 -17.213  0.00  0.00    -0.283 N 
ATOM      6  C   UNL     1      34.997 -19.510 -21.337  0.00  0.00    -0.001 C 
ATOM      7  C   UNL     1      35.619 -20.259 -20.355  0.00  0.00    -0.010 C 
ATOM      8  C   UNL     1      34.854 -21.108 -19.542  0.00  0.00    +0.115 C 
ATOM      9  C   UNL     1      33.631 -19.646 -21.461  0.00  0.00    +0.106 C 
ATOM     10  C   UNL     1      33.469 -21.190 -19.732  0.00  0.00    +0.104 C 
ATOM     11  C   UNL     1      37.105 -20.099 -20.235  0.00  0.00    +0.032 C 
ATOM     12  C   UNL     1      35.407 -21.893 -18.533  0.00  0.00    +0.201 C 
ATOM     13  C   UNL     1      33.374 -22.714 -18.012  0.00  0.00    +0.206 C 
ATOM     14  H   UNL     1      37.164 -22.442 -17.549  0.00  0.00    +0.145 HD
ATOM     15  H   UNL     1      37.392 -21.306 -18.800  0.00  0.00    +0.145 HD
ATOM     16  H   UNL     1      31.600 -23.600 -17.365  0.00  0.00    +0.156 HD
ATOM     17  H   UNL     1      32.984 -24.105 -16.506  0.00  0.00    +0.156 HD
ENDROOT
BRANCH   6  18
ATOM     18  C   UNL     1      35.738 -18.587 -22.242  0.00  0.00    +0.057 C 
BRANCH  18  19
ATOM     19  C   UNL     1      35.024 -17.275 -22.504  0.00  0.00    +0.019 C 
ATOM     20  C   UNL     1      34.693 -16.917 -23.799  0.00  0.00    +0.135 C 
ATOM     21  C   UNL     1      34.720 -16.463 -21.426  0.00  0.00    +0.036 C 
ATOM     22  C   UNL     1      34.063 -15.253 -21.650  0.00  0.00    +0.139 C 
ATOM     23  C   UNL     1      34.036 -15.707 -24.022  0.00  0.00    +0.040 C 
ATOM     24  C   UNL     1      33.722 -14.875 -22.948  0.00  0.00    +0.040 C 
BRANCH  20  25
ATOM     25  O   UNL     1      34.995 -17.717 -24.859  0.00  0.00    -0.472 OA
ATOM     26  C   UNL     1      34.013 -18.679 -25.244  0.00  0.00    +0.252 C 
ENDBRANCH  20  25
BRANCH  22  27
ATOM     27  O   UNL     1      33.755 -14.442 -20.602  0.00  0.00    -0.471 OA
ATOM     28  C   UNL     1      32.540 -13.699 -20.691  0.00  0.00    +0.252 C 
ENDBRANCH  22  27
ENDBRANCH  18  19
ENDBRANCH   6  18
TORSDOF 4
ENDMDL
MODEL 3
REMARK VINA RESULT:     -10.2      3.601      5.848
REMARK  Name = 54369
REMARK  4 active torsions:
REMARK  status: ('A' for Active; 'I' for Inactive)
REMARK    1  A    between atoms: C_6  and  C_18
REMARK    2  A    between atoms: C_18  and  C_19
REMARK    3  A    between atoms: C_20  and  O_25
REMARK    4  A    between atoms: C_22  and  O_27
REMARK                            x       y       z     vdW  Elec       q    Type
REMARK                         _______ _______ _______ _____ _____    ______ ____
ROOT
ATOM      1  N   UNL     1      34.756 -15.361 -21.236  0.00  0.00    -0.182 NA
ATOM      2  N   UNL     1      35.346 -17.546 -20.750  0.00  0.00    -0.273 NA
ATOM      3  N   UNL     1      35.285 -19.270 -22.431  0.00  0.00    -0.312 NA
ATOM      4  N   UNL     1      34.629 -18.800 -24.609  0.00  0.00    -0.332 N 
ATOM      5  N   UNL     1      35.946 -19.756 -20.238  0.00  0.00    -0.283 N 
ATOM      6  C   UNL     1      34.054 -14.724 -23.458  0.00  0.00    -0.001 C 
ATOM      7  C   UNL     1      34.227 -16.032 -23.873  0.00  0.00    -0.010 C 
ATOM      8  C   UNL     1      34.667 -16.998 -22.955  0.00  0.00    +0.115 C 
ATOM      9  C   UNL     1      34.330 -14.442 -22.138  0.00  0.00    +0.106 C 
ATOM     10  C   UNL     1      34.926 -16.629 -21.629  0.00  0.00    +0.104 C 
ATOM     11  C   UNL     1      33.922 -16.321 -25.312  0.00  0.00    +0.032 C 
ATOM     12  C   UNL     1      34.864 -18.333 -23.297  0.00  0.00    +0.201 C 
ATOM     13  C   UNL     1      35.503 -18.812 -21.189  0.00  0.00    +0.206 C 
ATOM     14  H   UNL     1      34.775 -19.749 -24.828  0.00  0.00    +0.145 HD
ATOM     15  H   UNL     1      34.318 -18.176 -25.305  0.00  0.00    +0.145 HD
ATOM     16  H   UNL     1      36.122 -19.475 -19.311  0.00  0.00    +0.156 HD
ATOM     17  H   UNL     1      36.078 -20.696 -20.501  0.00  0.00    +0.156 HD
ENDROOT
BRANCH   6  18
ATOM     18  C   UNL     1      33.590 -13.641 -24.369  0.00  0.00    +0.057 C 
BRANCH  18  19
ATOM     19  C   UNL     1      33.094 -12.401 -23.651  0.00  0.00    +0.019 C 
ATOM     20  C   UNL     1      33.575 -11.155 -24.013  0.00  0.00    +0.135 C 
ATOM     21  C   UNL     1      32.163 -12.553 -22.639  0.00  0.00    +0.036 C 
ATOM     22  C   UNL     1      31.697 -11.423 -21.967  0.00  0.00    +0.139 C 
ATOM     23  C   UNL     1      33.108 -10.025 -23.342  0.00  0.00    +0.040 C 
ATOM     24  C   UNL     1      32.170 -10.159 -22.319  0.00  0.00    +0.040 C 
BRANCH  20  25
ATOM     25  O   UNL     1      34.492 -11.008 -25.009  0.00  0.00    -0.472 OA
ATOM     26  C   UNL     1      35.288  -9.823 -24.986  0.00  0.00    +0.252 C 
ENDBRANCH  20  25
BRANCH  22  27
ATOM     27  O   UNL     1      30.780 -11.553 -20.970  0.00  0.00    -0.471 OA
ATOM     28  C   UNL     1      31.100 -10.961 -19.712  0.00  0.00    +0.252 C 
ENDBRANCH  22  27
ENDBRANCH  18  19
ENDBRANCH   6  18
TORSDOF 4
ENDMDL
MODEL 4
REMARK VINA RESULT:     -10.0      4.084      6.116
REMARK  Name = 54369
REMARK  4 active torsions:
REMARK  status: ('A' for Active; 'I' for Inactive)
REMARK    1  A    between atoms: C_6  and  C_18
REMARK    2  A    between atoms: C_18  and  C_19
REMARK    3  A    between atoms: C_20  and  O_25
REMARK    4  A    between atoms: C_22  and  O_27
REMARK                            x       y       z     vdW  Elec       q    Type
REMARK                         _______ _______ _______ _____ _____    ______ ____
ROOT
ATOM      1  N   UNL     1      33.633 -15.052 -20.667  0.00  0.00    -0.182 NA
ATOM      2  N   UNL     1      35.004 -16.918 -20.656  0.00  0.00    -0.273 NA
ATOM      3  N   UNL     1      35.704 -17.977 -22.703  0.00  0.00    -0.312 NA
ATOM      4  N   UNL     1      35.026 -17.162 -24.770  0.00  0.00    -0.332 N 
ATOM      5  N   UNL     1      36.393 -18.809 -20.626  0.00  0.00    -0.283 N 
ATOM      6  C   UNL     1      32.850 -14.093 -22.741  0.00  0.00    -0.001 C 
ATOM      7  C   UNL     1      33.540 -15.069 -23.437  0.00  0.00    -0.010 C 
ATOM      8  C   UNL     1      34.276 -16.033 -22.733  0.00  0.00    +0.115 C 
ATOM      9  C   UNL     1      32.928 -14.128 -21.365  0.00  0.00    +0.106 C 
ATOM     10  C   UNL     1      34.304 -16.000 -21.333  0.00  0.00    +0.104 C 
ATOM     11  C   UNL     1      33.443 -15.015 -24.932  0.00  0.00    +0.032 C 
ATOM     12  C   UNL     1      34.995 -17.046 -23.362  0.00  0.00    +0.201 C 
ATOM     13  C   UNL     1      35.665 -17.855 -21.368  0.00  0.00    +0.206 C 
ATOM     14  H   UNL     1      35.541 -17.886 -25.193  0.00  0.00    +0.145 HD
ATOM     15  H   UNL     1      34.531 -16.518 -25.327  0.00  0.00    +0.145 HD
ATOM     16  H   UNL     1      36.400 -18.767 -19.642  0.00  0.00    +0.156 HD
ATOM     17  H   UNL     1      36.895 -19.517 -21.091  0.00  0.00    +0.156 HD
ENDROOT
BRANCH   6  18
ATOM     18  C   UNL     1      32.045 -13.035 -23.413  0.00  0.00    +0.057 C 
BRANCH  18  19
ATOM     19  C   UNL     1      32.665 -11.653 -23.346  0.00  0.00    +0.019 C 
ATOM     20  C   UNL     1      32.110 -10.687 -22.525  0.00  0.00    +0.135 C 
ATOM     21  C   UNL     1      33.783 -11.392 -24.118  0.00  0.00    +0.036 C 
ATOM     22  C   UNL     1      34.366 -10.126 -24.068  0.00  0.00    +0.139 C 
ATOM     23  C   UNL     1      32.692  -9.420 -22.475  0.00  0.00    +0.040 C 
ATOM     24  C   UNL     1      33.819  -9.140 -23.247  0.00  0.00    +0.040 C 
BRANCH  20  25
ATOM     25  O   UNL     1      31.008 -10.944 -21.767  0.00  0.00    -0.472 OA
ATOM     26  C   UNL     1      31.194 -11.003 -20.353  0.00  0.00    +0.252 C 
ENDBRANCH  20  25
BRANCH  22  27
ATOM     27  O   UNL     1      35.466  -9.852 -24.820  0.00  0.00    -0.471 OA
ATOM     28  C   UNL     1      35.513 -10.411 -26.132  0.00  0.00    +0.252 C 
ENDBRANCH  22  27
ENDBRANCH  18  19
ENDBRANCH   6  18
TORSDOF 4
ENDMDL
MODEL 5
REMARK VINA RESULT:     -10.0      3.853      7.814
REMARK  Name = 54369
REMARK  4 active torsions:
REMARK  status: ('A' for Active; 'I' for Inactive)
REMARK    1  A    between atoms: C_6  and  C_18
REMARK    2  A    between atoms: C_18  and  C_19
REMARK    3  A    between atoms: C_20  and  O_25
REMARK    4  A    between atoms: C_22  and  O_27
REMARK                            x       y       z     vdW  Elec       q    Type
REMARK                         _______ _______ _______ _____ _____    ______ ____
ROOT
ATOM      1  N   UNL     1      32.571 -20.008 -20.395  0.00  0.00    -0.182 NA
ATOM      2  N   UNL     1      33.416 -18.091 -21.383  0.00  0.00    -0.273 NA
ATOM      3  N   UNL     1      35.786 -17.742 -21.626  0.00  0.00    -0.312 NA
ATOM      4  N   UNL     1      37.316 -19.320 -20.874  0.00  0.00    -0.332 N 
ATOM      5  N   UNL     1      34.254 -16.143 -22.386  0.00  0.00    -0.283 N 
ATOM      6  C   UNL     1      34.041 -21.736 -19.567  0.00  0.00    -0.001 C 
ATOM      7  C   UNL     1      35.129 -20.986 -19.975  0.00  0.00    -0.010 C 
ATOM      8  C   UNL     1      34.923 -19.744 -20.594  0.00  0.00    +0.115 C 
ATOM      9  C   UNL     1      32.790 -21.205 -19.799  0.00  0.00    +0.106 C 
ATOM     10  C   UNL     1      33.619 -19.275 -20.793  0.00  0.00    +0.104 C 
ATOM     11  C   UNL     1      36.482 -21.578 -19.715  0.00  0.00    +0.032 C 
ATOM     12  C   UNL     1      35.967 -18.932 -21.031  0.00  0.00    +0.201 C 
ATOM     13  C   UNL     1      34.501 -17.387 -21.767  0.00  0.00    +0.206 C 
ATOM     14  H   UNL     1      38.038 -18.730 -21.190  0.00  0.00    +0.145 HD
ATOM     15  H   UNL     1      37.534 -20.180 -20.446  0.00  0.00    +0.145 HD
ATOM     16  H   UNL     1      33.329 -15.832 -22.516  0.00  0.00    +0.156 HD
ATOM     17  H   UNL     1      35.007 -15.584 -22.687  0.00  0.00    +0.156 HD
ENDROOT
BRANCH   6  18
ATOM     18  C   UNL     1      34.176 -23.062 -18.902  0.00  0.00    +0.057 C 
BRANCH  18  19
ATOM     19  C   UNL     1      33.664 -23.091 -17.475  0.00  0.00    +0.019 C 
ATOM     20  C   UNL     1      34.560 -23.092 -16.421  0.00  0.00    +0.135 C 
ATOM     21  C   UNL     1      32.296 -23.116 -17.265  0.00  0.00    +0.036 C 
ATOM     22  C   UNL     1      31.808 -23.143 -15.959  0.00  0.00    +0.139 C 
ATOM     23  C   UNL     1      34.072 -23.119 -15.114  0.00  0.00    +0.040 C 
ATOM     24  C   UNL     1      32.697 -23.145 -14.883  0.00  0.00    +0.040 C 
BRANCH  20  25
ATOM     25  O   UNL     1      35.906 -23.069 -16.629  0.00  0.00    -0.472 OA
ATOM     26  C   UNL     1      36.740 -23.368 -15.511  0.00  0.00    +0.252 C 
ENDBRANCH  20  25
BRANCH  22  27
ATOM     27  O   UNL     1      30.467 -23.167 -15.733  0.00  0.00    -0.471 OA
ATOM     28  C   UNL     1      29.839 -24.447 -15.683  0.00  0.00    +0.252 C 
ENDBRANCH  22  27
ENDBRANCH  18  19
ENDBRANCH   6  18
TORSDOF 4
ENDMDL
MODEL 6
REMARK VINA RESULT:      -9.7      1.805      3.627
REMARK  Name = 54369
REMARK  4 active torsions:
REMARK  status: ('A' for Active; 'I' for Inactive)
REMARK    1  A    between atoms: C_6  and  C_18
REMARK    2  A    between atoms: C_18  and  C_19
REMARK    3  A    between atoms: C_20  and  O_25
REMARK    4  A    between atoms: C_22  and  O_27
REMARK                            x       y       z     vdW  Elec       q    Type
REMARK                         _______ _______ _______ _____ _____    ______ ____
ROOT
ATOM      1  N   UNL     1      36.944 -20.288 -19.665  0.00  0.00    -0.182 NA
ATOM      2  N   UNL     1      37.197 -21.662 -17.818  0.00  0.00    -0.273 NA
ATOM      3  N   UNL     1      35.354 -22.940 -16.940  0.00  0.00    -0.312 NA
ATOM      4  N   UNL     1      33.249 -22.840 -17.917  0.00  0.00    -0.332 N 
ATOM      5  N   UNL     1      37.471 -23.048 -15.945  0.00  0.00    -0.283 N 
ATOM      6  C   UNL     1      34.814 -20.085 -20.786  0.00  0.00    -0.001 C 
ATOM      7  C   UNL     1      34.267 -20.973 -19.878  0.00  0.00    -0.010 C 
ATOM      8  C   UNL     1      35.073 -21.514 -18.865  0.00  0.00    +0.115 C 
ATOM      9  C   UNL     1      36.150 -19.777 -20.637  0.00  0.00    +0.106 C 
ATOM     10  C   UNL     1      36.423 -21.149 -18.782  0.00  0.00    +0.104 C 
ATOM     11  C   UNL     1      32.814 -21.297 -20.055  0.00  0.00    +0.032 C 
ATOM     12  C   UNL     1      34.596 -22.413 -17.916  0.00  0.00    +0.201 C 
ATOM     13  C   UNL     1      36.629 -22.525 -16.950  0.00  0.00    +0.206 C 
ATOM     14  H   UNL     1      32.933 -23.476 -17.236  0.00  0.00    +0.145 HD
ATOM     15  H   UNL     1      32.627 -22.500 -18.600  0.00  0.00    +0.145 HD
ATOM     16  H   UNL     1      38.417 -22.777 -15.905  0.00  0.00    +0.156 HD
ATOM     17  H   UNL     1      37.112 -23.682 -15.283  0.00  0.00    +0.156 HD
ENDROOT
BRANCH   6  18
ATOM     18  C   UNL     1      34.026 -19.466 -21.889  0.00  0.00    +0.057 C 
BRANCH  18  19
ATOM     19  C   UNL     1      34.232 -17.971 -22.030  0.00  0.00    +0.019 C 
ATOM     20  C   UNL     1      34.895 -17.467 -23.135  0.00  0.00    +0.135 C 
ATOM     21  C   UNL     1      33.745 -17.141 -21.035  0.00  0.00    +0.036 C 
ATOM     22  C   UNL     1      33.926 -15.763 -21.149  0.00  0.00    +0.139 C 
ATOM     23  C   UNL     1      35.076 -16.089 -23.249  0.00  0.00    +0.040 C 
ATOM     24  C   UNL     1      34.593 -15.237 -22.256  0.00  0.00    +0.040 C 
BRANCH  20  25
ATOM     25  O   UNL     1      35.375 -18.285 -24.112  0.00  0.00    -0.472 OA
ATOM     26  C   UNL     1      34.565 -18.449 -25.275  0.00  0.00    +0.252 C 
ENDBRANCH  20  25
BRANCH  22  27
ATOM     27  O   UNL     1      33.453 -14.932 -20.182  0.00  0.00    -0.471 OA
ATOM     28  C   UNL     1      32.637 -13.840 -20.605  0.00  0.00    +0.252 C 
ENDBRANCH  22  27
ENDBRANCH  18  19
ENDBRANCH   6  18
TORSDOF 4
ENDMDL
MODEL 7
REMARK VINA RESULT:      -9.7      3.522      7.320
REMARK  Name = 54369
REMARK  4 active torsions:
REMARK  status: ('A' for Active; 'I' for Inactive)
REMARK    1  A    between atoms: C_6  and  C_18
REMARK    2  A    between atoms: C_18  and  C_19
REMARK    3  A    between atoms: C_20  and  O_25
REMARK    4  A    between atoms: C_22  and  O_27
REMARK                            x       y       z     vdW  Elec       q    Type
REMARK                         _______ _______ _______ _____ _____    ______ ____
ROOT
ATOM      1  N   UNL     1      34.759 -15.993 -20.626  0.00  0.00    -0.182 NA
ATOM      2  N   UNL     1      33.672 -14.231 -21.664  0.00  0.00    -0.273 NA
ATOM      3  N   UNL     1      33.185 -14.269 -24.022  0.00  0.00    -0.312 NA
ATOM      4  N   UNL     1      33.790 -16.079 -25.345  0.00  0.00    -0.332 N 
ATOM      5  N   UNL     1      32.571 -12.437 -22.700  0.00  0.00    -0.283 N 
ATOM      6  C   UNL     1      35.447 -17.943 -21.874  0.00  0.00    -0.001 C 
ATOM      7  C   UNL     1      34.924 -17.376 -23.021  0.00  0.00    -0.010 C 
ATOM      8  C   UNL     1      34.318 -16.113 -22.957  0.00  0.00    +0.115 C 
ATOM      9  C   UNL     1      35.340 -17.215 -20.708  0.00  0.00    +0.106 C 
ATOM     10  C   UNL     1      34.249 -15.437 -21.732  0.00  0.00    +0.104 C 
ATOM     11  C   UNL     1      35.049 -18.181 -24.280  0.00  0.00    +0.032 C 
ATOM     12  C   UNL     1      33.768 -15.477 -24.068  0.00  0.00    +0.201 C 
ATOM     13  C   UNL     1      33.172 -13.709 -22.804  0.00  0.00    +0.206 C 
ATOM     14  H   UNL     1      33.396 -15.612 -26.117  0.00  0.00    +0.145 HD
ATOM     15  H   UNL     1      34.201 -16.967 -25.464  0.00  0.00    +0.145 HD
ATOM     16  H   UNL     1      32.534 -11.979 -21.829  0.00  0.00    +0.156 HD
ATOM     17  H   UNL     1      32.190 -12.005 -23.499  0.00  0.00    +0.156 HD
ENDROOT
BRANCH   6  18
ATOM     18  C   UNL     1      36.107 -19.278 -21.859  0.00  0.00    +0.057 C 
BRANCH  18  19
ATOM     19  C   UNL     1      35.627 -20.191 -20.747  0.00  0.00    +0.019 C 
ATOM     20  C   UNL     1      34.277 -20.453 -20.604  0.00  0.00    +0.135 C 
ATOM     21  C   UNL     1      36.568 -20.741 -19.894  0.00  0.00    +0.036 C 
ATOM     22  C   UNL     1      36.144 -21.583 -18.865  0.00  0.00    +0.139 C 
ATOM     23  C   UNL     1      33.853 -21.295 -19.576  0.00  0.00    +0.040 C 
ATOM     24  C   UNL     1      34.785 -21.859 -18.706  0.00  0.00    +0.040 C 
BRANCH  20  25
ATOM     25  O   UNL     1      33.352 -19.909 -21.444  0.00  0.00    -0.472 OA
ATOM     26  C   UNL     1      32.228 -19.269 -20.842  0.00  0.00    +0.252 C 
ENDBRANCH  20  25
BRANCH  22  27
ATOM     27  O   UNL     1      37.053 -22.135 -18.018  0.00  0.00    -0.471 OA
ATOM     28  C   UNL     1      36.925 -21.821 -16.632  0.00  0.00    +0.252 C 
ENDBRANCH  22  27
ENDBRANCH  18  19
ENDBRANCH   6  18
TORSDOF 4
ENDMDL
MODEL 8
REMARK VINA RESULT:      -9.7      1.429      2.167
REMARK  Name = 54369
REMARK  4 active torsions:
REMARK  status: ('A' for Active; 'I' for Inactive)
REMARK    1  A    between atoms: C_6  and  C_18
REMARK    2  A    between atoms: C_18  and  C_19
REMARK    3  A    between atoms: C_20  and  O_25
REMARK    4  A    between atoms: C_22  and  O_27
REMARK                            x       y       z     vdW  Elec       q    Type
REMARK                         _______ _______ _______ _____ _____    ______ ____
ROOT
ATOM      1  N   UNL     1      32.792 -19.579 -20.544  0.00  0.00    -0.182 NA
ATOM      2  N   UNL     1      32.924 -21.633 -19.482  0.00  0.00    -0.273 NA
ATOM      3  N   UNL     1      35.046 -22.655 -18.980  0.00  0.00    -0.312 NA
ATOM      4  N   UNL     1      37.044 -21.615 -19.546  0.00  0.00    -0.332 N 
ATOM      5  N   UNL     1      33.039 -23.715 -18.405  0.00  0.00    -0.283 N 
ATOM      6  C   UNL     1      34.786 -18.380 -21.192  0.00  0.00    -0.001 C 
ATOM      7  C   UNL     1      35.555 -19.405 -20.671  0.00  0.00    -0.010 C 
ATOM      8  C   UNL     1      34.927 -20.515 -20.087  0.00  0.00    +0.115 C 
ATOM      9  C   UNL     1      33.417 -18.515 -21.104  0.00  0.00    +0.106 C 
ATOM     10  C   UNL     1      33.529 -20.576 -20.037  0.00  0.00    +0.104 C 
ATOM     11  C   UNL     1      37.041 -19.243 -20.776  0.00  0.00    +0.032 C 
ATOM     12  C   UNL     1      35.632 -21.586 -19.542  0.00  0.00    +0.201 C 
ATOM     13  C   UNL     1      33.706 -22.614 -18.984  0.00  0.00    +0.206 C 
ATOM     14  H   UNL     1      37.522 -22.382 -19.156  0.00  0.00    +0.145 HD
ATOM     15  H   UNL     1      37.551 -20.868 -19.941  0.00  0.00    +0.145 HD
ATOM     16  H   UNL     1      32.054 -23.736 -18.381  0.00  0.00    +0.156 HD
ATOM     17  H   UNL     1      33.557 -24.461 -18.026  0.00  0.00    +0.156 HD
ENDROOT
BRANCH   6  18
ATOM     18  C   UNL     1      35.376 -17.170 -21.829  0.00  0.00    +0.057 C 
BRANCH  18  19
ATOM     19  C   UNL     1      34.789 -16.840 -23.187  0.00  0.00    +0.019 C 
ATOM     20  C   UNL     1      34.873 -17.760 -24.217  0.00  0.00    +0.135 C 
ATOM     21  C   UNL     1      34.178 -15.611 -23.361  0.00  0.00    +0.036 C 
ATOM     22  C   UNL     1      33.633 -15.291 -24.605  0.00  0.00    +0.139 C 
ATOM     23  C   UNL     1      34.328 -17.441 -25.461  0.00  0.00    +0.040 C 
ATOM     24  C   UNL     1      33.708 -16.206 -25.655  0.00  0.00    +0.040 C 
BRANCH  20  25
ATOM     25  O   UNL     1      35.476 -18.969 -24.045  0.00  0.00    -0.472 OA
ATOM     26  C   UNL     1      34.883 -20.089 -24.702  0.00  0.00    +0.252 C 
ENDBRANCH  20  25
BRANCH  22  27
ATOM     27  O   UNL     1      33.027 -14.088 -24.794  0.00  0.00    -0.471 OA
ATOM     28  C   UNL     1      32.932 -13.612 -26.136  0.00  0.00    +0.252 C 
ENDBRANCH  22  27
ENDBRANCH  18  19
ENDBRANCH   6  18
TORSDOF 4
ENDMDL
MODEL 9
REMARK VINA RESULT:      -9.5      4.313      6.714
REMARK  Name = 54369
REMARK  4 active torsions:
REMARK  status: ('A' for Active; 'I' for Inactive)
REMARK    1  A    between atoms: C_6  and  C_18
REMARK    2  A    between atoms: C_18  and  C_19
REMARK    3  A    between atoms: C_20  and  O_25
REMARK    4  A    between atoms: C_22  and  O_27
REMARK                            x       y       z     vdW  Elec       q    Type
REMARK                         _______ _______ _______ _____ _____    ______ ____
ROOT
ATOM      1  N   UNL     1      33.658 -14.794 -20.803  0.00  0.00    -0.182 NA
ATOM      2  N   UNL     1      34.945 -16.717 -20.702  0.00  0.00    -0.273 NA
ATOM      3  N   UNL     1      35.605 -17.894 -22.696  0.00  0.00    -0.312 NA
ATOM      4  N   UNL     1      34.971 -17.142 -24.801  0.00  0.00    -0.332 N 
ATOM      5  N   UNL     1      36.249 -18.664 -20.581  0.00  0.00    -0.283 N 
ATOM      6  C   UNL     1      32.926 -13.894 -22.921  0.00  0.00    -0.001 C 
ATOM      7  C   UNL     1      33.574 -14.929 -23.569  0.00  0.00    -0.010 C 
ATOM      8  C   UNL     1      34.264 -15.893 -22.820  0.00  0.00    +0.115 C 
ATOM      9  C   UNL     1      32.998 -13.872 -21.544  0.00  0.00    +0.106 C 
ATOM     10  C   UNL     1      34.289 -15.800 -21.423  0.00  0.00    +0.104 C 
ATOM     11  C   UNL     1      33.486 -14.937 -25.066  0.00  0.00    +0.032 C 
ATOM     12  C   UNL     1      34.940 -16.963 -23.400  0.00  0.00    +0.201 C 
ATOM     13  C   UNL     1      35.567 -17.712 -21.368  0.00  0.00    +0.206 C 
ATOM     14  H   UNL     1      35.455 -17.906 -25.189  0.00  0.00    +0.145 HD
ATOM     15  H   UNL     1      34.507 -16.503 -25.389  0.00  0.00    +0.145 HD
ATOM     16  H   UNL     1      36.254 -18.579 -19.600  0.00  0.00    +0.156 HD
ATOM     17  H   UNL     1      36.720 -19.413 -21.012  0.00  0.00    +0.156 HD
ENDROOT
BRANCH   6  18
ATOM     18  C   UNL     1      32.172 -12.832 -23.644  0.00  0.00    +0.057 C 
BRANCH  18  19
ATOM     19  C   UNL     1      32.639 -11.423 -23.334  0.00  0.00    +0.019 C 
ATOM     20  C   UNL     1      33.699 -10.878 -24.036  0.00  0.00    +0.135 C 
ATOM     21  C   UNL     1      31.985 -10.714 -22.342  0.00  0.00    +0.036 C 
ATOM     22  C   UNL     1      32.402  -9.417 -22.044  0.00  0.00    +0.139 C 
ATOM     23  C   UNL     1      34.117  -9.581 -23.738  0.00  0.00    +0.040 C 
ATOM     24  C   UNL     1      33.469  -8.851 -22.742  0.00  0.00    +0.040 C 
BRANCH  20  25
ATOM     25  O   UNL     1      34.344 -11.579 -25.010  0.00  0.00    -0.472 OA
ATOM     26  C   UNL     1      35.070 -10.823 -25.979  0.00  0.00    +0.252 C 
ENDBRANCH  20  25
BRANCH  22  27
ATOM     27  O   UNL     1      31.769  -8.704 -21.074  0.00  0.00    -0.471 OA
ATOM     28  C   UNL     1      32.525  -7.688 -20.416  0.00  0.00    +0.252 C 
ENDBRANCH  22  27
ENDBRANCH  18  19
ENDBRANCH   6  18
TORSDOF 4
ENDMDL
