MODEL 1
REMARK VINA RESULT:      -9.5      0.000      0.000
REMARK  Name = 1720
REMARK  1 active torsions:
REMARK  status: ('A' for Active; 'I' for Inactive)
REMARK    1  A    between atoms: C_8  and  N_17
REMARK                            x       y       z     vdW  Elec       q    Type
REMARK                         _______ _______ _______ _____ _____    ______ ____
ROOT
ATOM      1  O   UNL     1      33.199 -12.815 -23.028  0.00  0.00    -0.270 OA
ATOM      2  O   UNL     1      33.273 -15.430 -26.823  0.00  0.00    -0.270 OA
ATOM      3  N   UNL     1      33.238 -14.127 -24.922  0.00  0.00    -0.248 N 
ATOM      4  C   UNL     1      34.292 -16.231 -23.453  0.00  0.00    +0.010 C 
ATOM      5  C   UNL     1      34.830 -17.304 -22.703  0.00  0.00    +0.013 C 
ATOM      6  C   UNL     1      34.014 -15.018 -22.799  0.00  0.00    +0.054 C 
ATOM      7  C   UNL     1      34.054 -16.414 -24.825  0.00  0.00    +0.054 C 
ATOM      8  C   UNL     1      35.073 -17.135 -21.331  0.00  0.00    +0.041 C 
ATOM      9  C   UNL     1      34.261 -14.863 -21.431  0.00  0.00    +0.006 C 
ATOM     10  C   UNL     1      35.112 -18.521 -23.342  0.00  0.00    +0.001 C 
ATOM     11  C   UNL     1      33.452 -13.886 -23.569  0.00  0.00    +0.252 C 
ATOM     12  C   UNL     1      33.492 -15.302 -25.623  0.00  0.00    +0.252 C 
ATOM     13  C   UNL     1      34.340 -17.632 -25.450  0.00  0.00    +0.005 C 
ATOM     14  C   UNL     1      34.789 -15.924 -20.700  0.00  0.00    +0.014 C 
ATOM     15  C   UNL     1      34.869 -18.682 -24.706  0.00  0.00    +0.000 C 
ATOM     16  H   UNL     1      32.864 -13.381 -25.443  0.00  0.00    +0.158 HD
ENDROOT
BRANCH   8  17
ATOM     17  N   UNL     1      35.611 -18.179 -20.537  0.00  0.00    -0.357 N 
ATOM     18  H   UNL     1      35.277 -19.099 -20.641  0.00  0.00    +0.142 HD
ATOM     19  H   UNL     1      36.319 -17.983 -19.881  0.00  0.00    +0.142 HD
ENDBRANCH   8  17
TORSDOF 1
ENDMDL
MODEL 2
REMARK VINA RESULT:      -9.3      0.614      3.344
REMARK  Name = 1720
REMARK  1 active torsions:
REMARK  status: ('A' for Active; 'I' for Inactive)
REMARK    1  A    between atoms: C_8  and  N_17
REMARK                            x       y       z     vdW  Elec       q    Type
REMARK                         _______ _______ _______ _____ _____    ______ ____
ROOT
ATOM      1  O   UNL     1      33.432 -15.489 -26.750  0.00  0.00    -0.270 OA
ATOM      2  O   UNL     1      33.113 -12.510 -23.247  0.00  0.00    -0.270 OA
ATOM      3  N   UNL     1      33.275 -14.004 -24.994  0.00  0.00    -0.248 N 
ATOM      4  C   UNL     1      34.215 -15.949 -23.255  0.00  0.00    +0.010 C 
ATOM      5  C   UNL     1      34.695 -16.941 -22.366  0.00  0.00    +0.013 C 
ATOM      6  C   UNL     1      34.070 -16.268 -24.616  0.00  0.00    +0.054 C 
ATOM      7  C   UNL     1      33.900 -14.678 -22.746  0.00  0.00    +0.054 C 
ATOM      8  C   UNL     1      35.014 -18.215 -22.862  0.00  0.00    +0.041 C 
ATOM      9  C   UNL     1      34.392 -17.542 -25.095  0.00  0.00    +0.006 C 
ATOM     10  C   UNL     1      34.845 -16.636 -21.005  0.00  0.00    +0.001 C 
ATOM     11  C   UNL     1      33.570 -15.242 -25.557  0.00  0.00    +0.252 C 
ATOM     12  C   UNL     1      33.397 -13.629 -23.660  0.00  0.00    +0.252 C 
ATOM     13  C   UNL     1      34.054 -14.387 -21.386  0.00  0.00    +0.005 C 
ATOM     14  C   UNL     1      34.864 -18.512 -24.216  0.00  0.00    +0.014 C 
ATOM     15  C   UNL     1      34.526 -15.368 -20.520  0.00  0.00    +0.000 C 
ATOM     16  H   UNL     1      32.941 -13.314 -25.612  0.00  0.00    +0.158 HD
ENDROOT
BRANCH   8  17
ATOM     17  N   UNL     1      35.497 -19.243 -22.013  0.00  0.00    -0.357 N 
ATOM     18  H   UNL     1      36.222 -19.055 -21.375  0.00  0.00    +0.142 HD
ATOM     19  H   UNL     1      35.106 -20.145 -22.062  0.00  0.00    +0.142 HD
ENDBRANCH   8  17
TORSDOF 1
ENDMDL
MODEL 3
REMARK VINA RESULT:      -9.2      2.276      4.025
REMARK  Name = 1720
REMARK  1 active torsions:
REMARK  status: ('A' for Active; 'I' for Inactive)
REMARK    1  A    between atoms: C_8  and  N_17
REMARK                            x       y       z     vdW  Elec       q    Type
REMARK                         _______ _______ _______ _____ _____    ______ ____
ROOT
ATOM      1  O   UNL     1      34.938 -15.159 -20.055  0.00  0.00    -0.270 OA
ATOM      2  O   UNL     1      35.655 -19.591 -21.101  0.00  0.00    -0.270 OA
ATOM      3  N   UNL     1      35.295 -17.374 -20.584  0.00  0.00    -0.248 N 
ATOM      4  C   UNL     1      34.526 -16.881 -23.203  0.00  0.00    +0.010 C 
ATOM      5  C   UNL     1      34.134 -16.629 -24.540  0.00  0.00    +0.013 C 
ATOM      6  C   UNL     1      34.523 -15.818 -22.282  0.00  0.00    +0.054 C 
ATOM      7  C   UNL     1      34.906 -18.184 -22.841  0.00  0.00    +0.054 C 
ATOM      8  C   UNL     1      33.752 -15.331 -24.915  0.00  0.00    +0.041 C 
ATOM      9  C   UNL     1      34.140 -14.530 -22.670  0.00  0.00    +0.006 C 
ATOM     10  C   UNL     1      34.133 -17.680 -25.469  0.00  0.00    +0.001 C 
ATOM     11  C   UNL     1      34.930 -16.065 -20.881  0.00  0.00    +0.252 C 
ATOM     12  C   UNL     1      35.319 -18.464 -21.448  0.00  0.00    +0.252 C 
ATOM     13  C   UNL     1      34.900 -19.223 -23.777  0.00  0.00    +0.005 C 
ATOM     14  C   UNL     1      33.757 -14.290 -23.987  0.00  0.00    +0.014 C 
ATOM     15  C   UNL     1      34.513 -18.967 -25.090  0.00  0.00    +0.000 C 
ATOM     16  H   UNL     1      35.567 -17.549 -19.655  0.00  0.00    +0.158 HD
ENDROOT
BRANCH   8  17
ATOM     17  N   UNL     1      33.351 -15.029 -26.240  0.00  0.00    -0.357 N 
ATOM     18  H   UNL     1      33.908 -14.443 -26.802  0.00  0.00    +0.142 HD
ATOM     19  H   UNL     1      32.514 -15.405 -26.598  0.00  0.00    +0.142 HD
ENDBRANCH   8  17
TORSDOF 1
ENDMDL
MODEL 4
REMARK VINA RESULT:      -8.9      2.356      5.079
REMARK  Name = 1720
REMARK  1 active torsions:
REMARK  status: ('A' for Active; 'I' for Inactive)
REMARK    1  A    between atoms: C_8  and  N_17
REMARK                            x       y       z     vdW  Elec       q    Type
REMARK                         _______ _______ _______ _____ _____    ______ ____
ROOT
ATOM      1  O   UNL     1      34.919 -19.742 -24.858  0.00  0.00    -0.270 OA
ATOM      2  O   UNL     1      35.615 -18.856 -20.388  0.00  0.00    -0.270 OA
ATOM      3  N   UNL     1      35.265 -19.293 -22.624  0.00  0.00    -0.248 N 
ATOM      4  C   UNL     1      34.487 -16.661 -23.024  0.00  0.00    +0.010 C 
ATOM      5  C   UNL     1      34.090 -15.317 -23.229  0.00  0.00    +0.013 C 
ATOM      6  C   UNL     1      34.492 -17.542 -24.120  0.00  0.00    +0.054 C 
ATOM      7  C   UNL     1      34.863 -17.069 -21.734  0.00  0.00    +0.054 C 
ATOM      8  C   UNL     1      33.712 -14.897 -24.513  0.00  0.00    +0.041 C 
ATOM      9  C   UNL     1      34.112 -17.109 -25.394  0.00  0.00    +0.006 C 
ATOM     10  C   UNL     1      34.081 -14.427 -22.144  0.00  0.00    +0.001 C 
ATOM     11  C   UNL     1      34.904 -18.949 -23.923  0.00  0.00    +0.252 C 
ATOM     12  C   UNL     1      35.281 -18.469 -21.503  0.00  0.00    +0.252 C 
ATOM     13  C   UNL     1      34.849 -16.171 -20.661  0.00  0.00    +0.005 C 
ATOM     14  C   UNL     1      33.722 -15.787 -25.587  0.00  0.00    +0.014 C 
ATOM     15  C   UNL     1      34.458 -14.852 -20.871  0.00  0.00    +0.000 C 
ATOM     16  H   UNL     1      35.541 -20.227 -22.482  0.00  0.00    +0.158 HD
ENDROOT
BRANCH   8  17
ATOM     17  N   UNL     1      33.307 -13.562 -24.769  0.00  0.00    -0.357 N 
ATOM     18  H   UNL     1      32.387 -13.279 -24.565  0.00  0.00    +0.142 HD
ATOM     19  H   UNL     1      33.948 -12.920 -25.152  0.00  0.00    +0.142 HD
ENDBRANCH   8  17
TORSDOF 1
ENDMDL
MODEL 5
REMARK VINA RESULT:      -8.7      2.318      3.742
REMARK  Name = 1720
REMARK  1 active torsions:
REMARK  status: ('A' for Active; 'I' for Inactive)
REMARK    1  A    between atoms: C_8  and  N_17
REMARK                            x       y       z     vdW  Elec       q    Type
REMARK                         _______ _______ _______ _____ _____    ______ ____
ROOT
ATOM      1  O   UNL     1      35.884 -18.198 -21.544  0.00  0.00    -0.270 OA
ATOM      2  O   UNL     1      34.991 -17.443 -26.003  0.00  0.00    -0.270 OA
ATOM      3  N   UNL     1      35.434 -17.815 -23.771  0.00  0.00    -0.248 N 
ATOM      4  C   UNL     1      33.944 -15.576 -23.094  0.00  0.00    +0.010 C 
ATOM      5  C   UNL     1      33.183 -14.433 -22.749  0.00  0.00    +0.013 C 
ATOM      6  C   UNL     1      34.547 -16.326 -22.069  0.00  0.00    +0.054 C 
ATOM      7  C   UNL     1      34.070 -15.923 -24.450  0.00  0.00    +0.054 C 
ATOM      8  C   UNL     1      33.048 -14.076 -21.398  0.00  0.00    +0.041 C 
ATOM      9  C   UNL     1      34.404 -15.958 -20.728  0.00  0.00    +0.006 C 
ATOM     10  C   UNL     1      32.575 -13.676 -23.762  0.00  0.00    +0.001 C 
ATOM     11  C   UNL     1      35.345 -17.523 -22.414  0.00  0.00    +0.252 C 
ATOM     12  C   UNL     1      34.862 -17.115 -24.828  0.00  0.00    +0.252 C 
ATOM     13  C   UNL     1      33.459 -15.159 -25.449  0.00  0.00    +0.005 C 
ATOM     14  C   UNL     1      33.656 -14.832 -20.396  0.00  0.00    +0.014 C 
ATOM     15  C   UNL     1      32.713 -14.037 -25.101  0.00  0.00    +0.000 C 
ATOM     16  H   UNL     1      35.963 -18.610 -24.012  0.00  0.00    +0.158 HD
ENDROOT
BRANCH   8  17
ATOM     17  N   UNL     1      32.297 -12.942 -21.001  0.00  0.00    -0.357 N 
ATOM     18  H   UNL     1      32.212 -12.171 -21.606  0.00  0.00    +0.142 HD
ATOM     19  H   UNL     1      31.859 -12.926 -20.119  0.00  0.00    +0.142 HD
ENDBRANCH   8  17
TORSDOF 1
ENDMDL
MODEL 6
REMARK VINA RESULT:      -8.6      2.040      5.135
REMARK  Name = 1720
REMARK  1 active torsions:
REMARK  status: ('A' for Active; 'I' for Inactive)
REMARK    1  A    between atoms: C_8  and  N_17
REMARK                            x       y       z     vdW  Elec       q    Type
REMARK                         _______ _______ _______ _____ _____    ______ ____
ROOT
ATOM      1  O   UNL     1      35.942 -18.539 -23.349  0.00  0.00    -0.270 OA
ATOM      2  O   UNL     1      34.854 -15.906 -19.725  0.00  0.00    -0.270 OA
ATOM      3  N   UNL     1      35.395 -17.219 -21.541  0.00  0.00    -0.248 N 
ATOM      4  C   UNL     1      33.944 -15.534 -23.200  0.00  0.00    +0.010 C 
ATOM      5  C   UNL     1      33.204 -14.674 -24.046  0.00  0.00    +0.013 C 
ATOM      6  C   UNL     1      34.590 -16.649 -23.761  0.00  0.00    +0.054 C 
ATOM      7  C   UNL     1      34.009 -15.244 -21.826  0.00  0.00    +0.054 C 
ATOM      8  C   UNL     1      33.131 -14.952 -25.420  0.00  0.00    +0.041 C 
ATOM      9  C   UNL     1      34.508 -16.914 -25.132  0.00  0.00    +0.006 C 
ATOM     10  C   UNL     1      32.555 -13.557 -23.499  0.00  0.00    +0.001 C 
ATOM     11  C   UNL     1      35.367 -17.558 -22.890  0.00  0.00    +0.252 C 
ATOM     12  C   UNL     1      34.779 -16.132 -20.928  0.00  0.00    +0.252 C 
ATOM     13  C   UNL     1      33.357 -14.127 -21.294  0.00  0.00    +0.005 C 
ATOM     14  C   UNL     1      33.778 -16.065 -25.958  0.00  0.00    +0.014 C 
ATOM     15  C   UNL     1      32.631 -13.286 -22.133  0.00  0.00    +0.000 C 
ATOM     16  H   UNL     1      35.909 -17.816 -20.953  0.00  0.00    +0.158 HD
ENDROOT
BRANCH   8  17
ATOM     17  N   UNL     1      32.403 -14.122 -26.309  0.00  0.00    -0.357 N 
ATOM     18  H   UNL     1      31.652 -14.492 -26.825  0.00  0.00    +0.142 HD
ATOM     19  H   UNL     1      32.651 -13.174 -26.410  0.00  0.00    +0.142 HD
ENDBRANCH   8  17
TORSDOF 1
ENDMDL
MODEL 7
REMARK VINA RESULT:      -8.6      2.041      3.931
REMARK  Name = 1720
REMARK  1 active torsions:
REMARK  status: ('A' for Active; 'I' for Inactive)
REMARK    1  A    between atoms: C_8  and  N_17
REMARK                            x       y       z     vdW  Elec       q    Type
REMARK                         _______ _______ _______ _____ _____    ______ ____
ROOT
ATOM      1  O   UNL     1      33.608 -15.589 -26.578  0.00  0.00    -0.270 OA
ATOM      2  O   UNL     1      35.754 -18.499 -23.719  0.00  0.00    -0.270 OA
ATOM      3  N   UNL     1      34.679 -17.041 -25.144  0.00  0.00    -0.248 N 
ATOM      4  C   UNL     1      33.883 -15.501 -22.979  0.00  0.00    +0.010 C 
ATOM      5  C   UNL     1      33.476 -14.715 -21.873  0.00  0.00    +0.013 C 
ATOM      6  C   UNL     1      33.505 -15.101 -24.272  0.00  0.00    +0.054 C 
ATOM      7  C   UNL     1      34.650 -16.655 -22.746  0.00  0.00    +0.054 C 
ATOM      8  C   UNL     1      32.709 -13.560 -22.092  0.00  0.00    +0.041 C 
ATOM      9  C   UNL     1      32.740 -13.948 -24.475  0.00  0.00    +0.006 C 
ATOM     10  C   UNL     1      33.847 -15.103 -20.576  0.00  0.00    +0.001 C 
ATOM     11  C   UNL     1      33.921 -15.911 -25.438  0.00  0.00    +0.252 C 
ATOM     12  C   UNL     1      35.083 -17.487 -23.890  0.00  0.00    +0.252 C 
ATOM     13  C   UNL     1      35.013 -17.029 -21.448  0.00  0.00    +0.005 C 
ATOM     14  C   UNL     1      32.343 -13.180 -23.383  0.00  0.00    +0.014 C 
ATOM     15  C   UNL     1      34.609 -16.251 -20.367  0.00  0.00    +0.000 C 
ATOM     16  H   UNL     1      34.961 -17.587 -25.912  0.00  0.00    +0.158 HD
ENDROOT
BRANCH   8  17
ATOM     17  N   UNL     1      32.279 -12.740 -21.019  0.00  0.00    -0.357 N 
ATOM     18  H   UNL     1      31.747 -13.126 -20.286  0.00  0.00    +0.142 HD
ATOM     19  H   UNL     1      32.512 -11.783 -21.007  0.00  0.00    +0.142 HD
ENDBRANCH   8  17
TORSDOF 1
ENDMDL
MODEL 8
REMARK VINA RESULT:      -8.5      9.282     11.198
REMARK  Name = 1720
REMARK  1 active torsions:
REMARK  status: ('A' for Active; 'I' for Inactive)
REMARK    1  A    between atoms: C_8  and  N_17
REMARK                            x       y       z     vdW  Elec       q    Type
REMARK                         _______ _______ _______ _____ _____    ______ ____
ROOT
ATOM      1  O   UNL     1      33.140 -24.313 -13.128  0.00  0.00    -0.270 OA
ATOM      2  O   UNL     1      37.555 -23.067 -13.584  0.00  0.00    -0.270 OA
ATOM      3  N   UNL     1      35.346 -23.688 -13.362  0.00  0.00    -0.248 N 
ATOM      4  C   UNL     1      34.867 -22.950 -15.992  0.00  0.00    +0.010 C 
ATOM      5  C   UNL     1      34.622 -22.574 -17.335  0.00  0.00    +0.013 C 
ATOM      6  C   UNL     1      33.805 -23.464 -15.227  0.00  0.00    +0.054 C 
ATOM      7  C   UNL     1      36.162 -22.798 -15.470  0.00  0.00    +0.054 C 
ATOM      8  C   UNL     1      33.333 -22.720 -17.869  0.00  0.00    +0.041 C 
ATOM      9  C   UNL     1      32.526 -23.604 -15.773  0.00  0.00    +0.006 C 
ATOM     10  C   UNL     1      35.673 -22.059 -18.111  0.00  0.00    +0.001 C 
ATOM     11  C   UNL     1      34.045 -23.862 -13.822  0.00  0.00    +0.252 C 
ATOM     12  C   UNL     1      36.435 -23.187 -14.069  0.00  0.00    +0.252 C 
ATOM     13  C   UNL     1      37.200 -22.284 -16.254  0.00  0.00    +0.005 C 
ATOM     14  C   UNL     1      32.293 -23.231 -17.093  0.00  0.00    +0.014 C 
ATOM     15  C   UNL     1      36.951 -21.917 -17.573  0.00  0.00    +0.000 C 
ATOM     16  H   UNL     1      35.516 -23.950 -12.429  0.00  0.00    +0.158 HD
ENDROOT
BRANCH   8  17
ATOM     17  N   UNL     1      33.037 -22.359 -19.208  0.00  0.00    -0.357 N 
ATOM     18  H   UNL     1      32.415 -22.905 -19.740  0.00  0.00    +0.142 HD
ATOM     19  H   UNL     1      33.455 -21.560 -19.605  0.00  0.00    +0.142 HD
ENDBRANCH   8  17
TORSDOF 1
ENDMDL
MODEL 9
REMARK VINA RESULT:      -8.3      1.997      3.212
REMARK  Name = 1720
REMARK  1 active torsions:
REMARK  status: ('A' for Active; 'I' for Inactive)
REMARK    1  A    between atoms: C_8  and  N_17
REMARK                            x       y       z     vdW  Elec       q    Type
REMARK                         _______ _______ _______ _____ _____    ______ ____
ROOT
ATOM      1  O   UNL     1      34.959 -15.742 -19.707  0.00  0.00    -0.270 OA
ATOM      2  O   UNL     1      33.430 -12.910 -23.008  0.00  0.00    -0.270 OA
ATOM      3  N   UNL     1      34.195 -14.331 -21.361  0.00  0.00    -0.248 N 
ATOM      4  C   UNL     1      34.361 -16.393 -23.208  0.00  0.00    +0.010 C 
ATOM      5  C   UNL     1      34.446 -17.446 -24.151  0.00  0.00    +0.013 C 
ATOM      6  C   UNL     1      34.729 -16.645 -21.874  0.00  0.00    +0.054 C 
ATOM      7  C   UNL     1      33.913 -15.133 -23.637  0.00  0.00    +0.054 C 
ATOM      8  C   UNL     1      34.893 -18.710 -23.735  0.00  0.00    +0.041 C 
ATOM      9  C   UNL     1      35.172 -17.909 -21.475  0.00  0.00    +0.006 C 
ATOM     10  C   UNL     1      34.083 -17.210 -25.485  0.00  0.00    +0.001 C 
ATOM     11  C   UNL     1      34.646 -15.554 -20.877  0.00  0.00    +0.252 C 
ATOM     12  C   UNL     1      33.818 -14.022 -22.664  0.00  0.00    +0.252 C 
ATOM     13  C   UNL     1      33.553 -14.911 -24.970  0.00  0.00    +0.005 C 
ATOM     14  C   UNL     1      35.252 -18.940 -22.408  0.00  0.00    +0.014 C 
ATOM     15  C   UNL     1      33.640 -15.951 -25.891  0.00  0.00    +0.000 C 
ATOM     16  H   UNL     1      34.136 -13.599 -20.706  0.00  0.00    +0.158 HD
ENDROOT
BRANCH   8  17
ATOM     17  N   UNL     1      34.997 -19.796 -24.641  0.00  0.00    -0.357 N 
ATOM     18  H   UNL     1      35.474 -19.682 -25.494  0.00  0.00    +0.142 HD
ATOM     19  H   UNL     1      34.590 -20.665 -24.416  0.00  0.00    +0.142 HD
ENDBRANCH   8  17
TORSDOF 1
ENDMDL
