MODEL 1
REMARK VINA RESULT:      -9.2      0.000      0.000
REMARK  Name = 9886917
REMARK  9 active torsions:
REMARK  status: ('A' for Active; 'I' for Inactive)
REMARK    1  A    between atoms: N_1  and  C_25
REMARK    2  A    between atoms: C_2  and  C_17
REMARK    3  A    between atoms: C_5  and  C_11
REMARK    4  A    between atoms: C_6  and  O_19
REMARK    5  A    between atoms: C_11  and  C_14
REMARK    6  A    between atoms: O_19  and  C_20
REMARK    7  A    between atoms: C_20  and  C_22
REMARK    8  A    between atoms: C_22  and  O_23
REMARK    9  A    between atoms: C_25  and  C_26
REMARK                            x       y       z     vdW  Elec       q    Type
REMARK                         _______ _______ _______ _____ _____    ______ ____
ROOT
ATOM      1  N   UNL     1      33.643  -8.681 -23.155  0.00  0.00    -0.326 N 
ATOM      2  C   UNL     1      32.667  -9.211 -22.354  0.00  0.00    +0.041 A 
ATOM      3  C   UNL     1      34.079  -9.623 -24.060  0.00  0.00    +0.063 A 
ATOM      4  C   UNL     1      33.352 -10.791 -23.819  0.00  0.00    +0.054 A 
ATOM      5  C   UNL     1      32.465 -10.516 -22.741  0.00  0.00    +0.060 A 
ATOM      6  C   UNL     1      33.605 -11.924 -24.617  0.00  0.00    +0.141 C 
ATOM      7  C   UNL     1      35.051  -9.532 -25.062  0.00  0.00    +0.017 C 
ATOM      8  C   UNL     1      34.575 -11.847 -25.623  0.00  0.00    +0.037 C 
ATOM      9  C   UNL     1      35.286 -10.669 -25.840  0.00  0.00    +0.005 C 
ENDROOT
BRANCH   5  11
ATOM     10  O   UNL     1      30.288 -11.364 -22.319  0.00  0.00    -0.282 OA
ATOM     11  C   UNL     1      31.514 -11.403 -22.129  0.00  0.00    +0.249 C 
BRANCH  11  14
ATOM     12  O   UNL     1      31.935 -12.237 -19.966  0.00  0.00    -0.267 OA
ATOM     13  N   UNL     1      32.237 -13.668 -21.780  0.00  0.00    -0.323 N 
ATOM     14  C   UNL     1      31.922 -12.488 -21.160  0.00  0.00    +0.282 C 
ATOM     15  H   UNL     1      32.517 -14.445 -21.245  0.00  0.00    +0.145 HD
ATOM     16  H   UNL     1      32.184 -13.739 -22.761  0.00  0.00    +0.145 HD
ENDBRANCH  11  14
ENDBRANCH   5  11
BRANCH   2  17
ATOM     17  C   UNL     1      32.017  -8.419 -21.287  0.00  0.00    +0.044 C 
ATOM     18  C   UNL     1      32.379  -8.912 -19.883  0.00  0.00    +0.007 C 
ENDBRANCH   2  17
BRANCH   6  19
ATOM     19  O   UNL     1      32.928 -13.100 -24.433  0.00  0.00    -0.464 OA
BRANCH  19  20
ATOM     20  C   UNL     1      32.840 -13.972 -25.555  0.00  0.00    +0.314 C 
BRANCH  20  22
ATOM     21  O   UNL     1      33.970 -16.060 -26.041  0.00  0.00    -0.246 OA
ATOM     22  C   UNL     1      33.528 -15.268 -25.220  0.00  0.00    +0.362 C 
BRANCH  22  23
ATOM     23  O   UNL     1      33.577 -15.408 -23.862  0.00  0.00    -0.442 OA
ATOM     24  C   UNL     1      34.844 -15.803 -23.328  0.00  0.00    +0.256 C 
ENDBRANCH  22  23
ENDBRANCH  20  22
ENDBRANCH  19  20
ENDBRANCH   6  19
BRANCH   1  25
ATOM     25  C   UNL     1      34.147  -7.326 -23.067  0.00  0.00    +0.132 C 
BRANCH  25  26
ATOM     26  C   UNL     1      33.572  -6.455 -24.151  0.00  0.00    +0.000 C 
ATOM     27  C   UNL     1      32.291  -5.937 -24.006  0.00  0.00    -0.002 C 
ATOM     28  C   UNL     1      34.329  -6.179 -25.281  0.00  0.00    -0.002 C 
ATOM     29  C   UNL     1      31.759  -5.129 -25.010  0.00  0.00    -0.000 C 
ATOM     30  C   UNL     1      33.797  -5.371 -26.286  0.00  0.00    -0.000 C 
ATOM     31  C   UNL     1      32.513  -4.846 -26.150  0.00  0.00    -0.000 C 
ENDBRANCH  25  26
ENDBRANCH   1  25
TORSDOF 9
ENDMDL
MODEL 2
REMARK VINA RESULT:      -8.9      3.385      9.010
REMARK  Name = 9886917
REMARK  9 active torsions:
REMARK  status: ('A' for Active; 'I' for Inactive)
REMARK    1  A    between atoms: N_1  and  C_25
REMARK    2  A    between atoms: C_2  and  C_17
REMARK    3  A    between atoms: C_5  and  C_11
REMARK    4  A    between atoms: C_6  and  O_19
REMARK    5  A    between atoms: C_11  and  C_14
REMARK    6  A    between atoms: O_19  and  C_20
REMARK    7  A    between atoms: C_20  and  C_22
REMARK    8  A    between atoms: C_22  and  O_23
REMARK    9  A    between atoms: C_25  and  C_26
REMARK                            x       y       z     vdW  Elec       q    Type
REMARK                         _______ _______ _______ _____ _____    ______ ____
ROOT
ATOM      1  N   UNL     1      34.791 -16.547 -22.692  0.00  0.00    -0.326 N 
ATOM      2  C   UNL     1      34.526 -16.217 -23.993  0.00  0.00    +0.041 A 
ATOM      3  C   UNL     1      34.129 -15.692 -21.840  0.00  0.00    +0.063 A 
ATOM      4  C   UNL     1      33.420 -14.788 -22.634  0.00  0.00    +0.054 A 
ATOM      5  C   UNL     1      33.680 -15.131 -23.990  0.00  0.00    +0.060 A 
ATOM      6  C   UNL     1      32.647 -13.793 -22.004  0.00  0.00    +0.141 C 
ATOM      7  C   UNL     1      34.103 -15.650 -20.441  0.00  0.00    +0.017 C 
ATOM      8  C   UNL     1      32.612 -13.739 -20.606  0.00  0.00    +0.037 C 
ATOM      9  C   UNL     1      33.330 -14.654 -19.839  0.00  0.00    +0.005 C 
ENDROOT
BRANCH   5  11
ATOM     10  O   UNL     1      32.363 -15.003 -25.962  0.00  0.00    -0.282 OA
ATOM     11  C   UNL     1      33.177 -14.493 -25.176  0.00  0.00    +0.249 C 
BRANCH  11  14
ATOM     12  O   UNL     1      33.422 -12.760 -26.754  0.00  0.00    -0.267 OA
ATOM     13  N   UNL     1      34.197 -12.398 -24.586  0.00  0.00    -0.323 N 
ATOM     14  C   UNL     1      33.614 -13.111 -25.602  0.00  0.00    +0.282 C 
ATOM     15  H   UNL     1      34.520 -11.484 -24.750  0.00  0.00    +0.145 HD
ATOM     16  H   UNL     1      34.292 -12.802 -23.693  0.00  0.00    +0.145 HD
ENDBRANCH  11  14
ENDBRANCH   5  11
BRANCH   2  17
ATOM     17  C   UNL     1      35.109 -16.970 -25.125  0.00  0.00    +0.044 C 
ATOM     18  C   UNL     1      34.423 -18.321 -25.350  0.00  0.00    +0.007 C 
ENDBRANCH   2  17
BRANCH   6  19
ATOM     19  O   UNL     1      31.929 -12.875 -22.724  0.00  0.00    -0.464 OA
BRANCH  19  20
ATOM     20  C   UNL     1      31.338 -11.807 -21.994  0.00  0.00    +0.314 C 
BRANCH  20  22
ATOM     21  O   UNL     1      32.619 -10.320 -23.417  0.00  0.00    -0.246 OA
ATOM     22  C   UNL     1      32.031 -10.522 -22.363  0.00  0.00    +0.362 C 
BRANCH  22  23
ATOM     23  O   UNL     1      31.895  -9.633 -21.336  0.00  0.00    -0.442 OA
ATOM     24  C   UNL     1      31.516 -10.198 -20.076  0.00  0.00    +0.256 C 
ENDBRANCH  22  23
ENDBRANCH  20  22
ENDBRANCH  19  20
ENDBRANCH   6  19
BRANCH   1  25
ATOM     25  C   UNL     1      35.645 -17.638 -22.268  0.00  0.00    +0.132 C 
BRANCH  25  26
ATOM     26  C   UNL     1      34.863 -18.694 -21.535  0.00  0.00    +0.000 C 
ATOM     27  C   UNL     1      35.539 -19.656 -20.795  0.00  0.00    -0.002 C 
ATOM     28  C   UNL     1      33.477 -18.694 -21.607  0.00  0.00    -0.002 C 
ATOM     29  C   UNL     1      34.814 -20.635 -20.115  0.00  0.00    -0.000 C 
ATOM     30  C   UNL     1      32.751 -19.673 -20.927  0.00  0.00    -0.000 C 
ATOM     31  C   UNL     1      33.420 -20.643 -20.182  0.00  0.00    -0.000 C 
ENDBRANCH  25  26
ENDBRANCH   1  25
TORSDOF 9
ENDMDL
MODEL 3
REMARK VINA RESULT:      -8.8      2.994      6.868
REMARK  Name = 9886917
REMARK  9 active torsions:
REMARK  status: ('A' for Active; 'I' for Inactive)
REMARK    1  A    between atoms: N_1  and  C_25
REMARK    2  A    between atoms: C_2  and  C_17
REMARK    3  A    between atoms: C_5  and  C_11
REMARK    4  A    between atoms: C_6  and  O_19
REMARK    5  A    between atoms: C_11  and  C_14
REMARK    6  A    between atoms: O_19  and  C_20
REMARK    7  A    between atoms: C_20  and  C_22
REMARK    8  A    between atoms: C_22  and  O_23
REMARK    9  A    between atoms: C_25  and  C_26
REMARK                            x       y       z     vdW  Elec       q    Type
REMARK                         _______ _______ _______ _____ _____    ______ ____
ROOT
ATOM      1  N   UNL     1      32.339 -11.716 -22.886  0.00  0.00    -0.326 N 
ATOM      2  C   UNL     1      31.877 -10.809 -21.971  0.00  0.00    +0.041 A 
ATOM      3  C   UNL     1      33.275 -11.128 -23.708  0.00  0.00    +0.063 A 
ATOM      4  C   UNL     1      33.407  -9.801 -23.295  0.00  0.00    +0.054 A 
ATOM      5  C   UNL     1      32.520  -9.614 -22.198  0.00  0.00    +0.060 A 
ATOM      6  C   UNL     1      34.314  -8.966 -23.977  0.00  0.00    +0.141 C 
ATOM      7  C   UNL     1      34.006 -11.664 -24.773  0.00  0.00    +0.017 C 
ATOM      8  C   UNL     1      35.053  -9.488 -25.044  0.00  0.00    +0.037 C 
ATOM      9  C   UNL     1      34.899 -10.817 -25.435  0.00  0.00    +0.005 C 
ENDROOT
BRANCH   5  11
ATOM     10  O   UNL     1      32.723  -8.222 -20.286  0.00  0.00    -0.282 OA
ATOM     11  C   UNL     1      32.296  -8.417 -21.435  0.00  0.00    +0.249 C 
BRANCH  11  14
ATOM     12  O   UNL     1      31.490  -6.205 -21.344  0.00  0.00    -0.267 OA
ATOM     13  N   UNL     1      30.825  -7.551 -23.126  0.00  0.00    -0.323 N 
ATOM     14  C   UNL     1      31.487  -7.256 -21.963  0.00  0.00    +0.282 C 
ATOM     15  H   UNL     1      30.265  -6.869 -23.560  0.00  0.00    +0.145 HD
ATOM     16  H   UNL     1      30.909  -8.447 -23.526  0.00  0.00    +0.145 HD
ENDBRANCH  11  14
ENDBRANCH   5  11
BRANCH   2  17
ATOM     17  C   UNL     1      30.859 -11.169 -20.961  0.00  0.00    +0.044 C 
ATOM     18  C   UNL     1      31.448 -11.314 -19.555  0.00  0.00    +0.007 C 
ENDBRANCH   2  17
BRANCH   6  19
ATOM     19  O   UNL     1      34.491  -7.654 -23.623  0.00  0.00    -0.464 OA
BRANCH  19  20
ATOM     20  C   UNL     1      34.943  -6.770 -24.643  0.00  0.00    +0.314 C 
BRANCH  20  22
ATOM     21  O   UNL     1      32.659  -5.959 -24.687  0.00  0.00    -0.246 OA
ATOM     22  C   UNL     1      33.756  -6.049 -25.222  0.00  0.00    +0.362 C 
BRANCH  22  23
ATOM     23  O   UNL     1      34.105  -5.518 -26.431  0.00  0.00    -0.442 OA
ATOM     24  C   UNL     1      33.159  -4.609 -27.002  0.00  0.00    +0.256 C 
ENDBRANCH  22  23
ENDBRANCH  20  22
ENDBRANCH  19  20
ENDBRANCH   6  19
BRANCH   1  25
ATOM     25  C   UNL     1      31.907 -13.096 -22.981  0.00  0.00    +0.132 C 
BRANCH  25  26
ATOM     26  C   UNL     1      32.911 -14.029 -22.361  0.00  0.00    +0.000 C 
ATOM     27  C   UNL     1      32.931 -14.194 -20.982  0.00  0.00    -0.002 C 
ATOM     28  C   UNL     1      33.804 -14.713 -23.174  0.00  0.00    -0.002 C 
ATOM     29  C   UNL     1      33.861 -15.059 -20.406  0.00  0.00    -0.000 C 
ATOM     30  C   UNL     1      34.734 -15.579 -22.598  0.00  0.00    -0.000 C 
ATOM     31  C   UNL     1      34.763 -15.752 -21.215  0.00  0.00    -0.000 C 
ENDBRANCH  25  26
ENDBRANCH   1  25
TORSDOF 9
ENDMDL
MODEL 4
REMARK VINA RESULT:      -8.7      3.812      9.514
REMARK  Name = 9886917
REMARK  9 active torsions:
REMARK  status: ('A' for Active; 'I' for Inactive)
REMARK    1  A    between atoms: N_1  and  C_25
REMARK    2  A    between atoms: C_2  and  C_17
REMARK    3  A    between atoms: C_5  and  C_11
REMARK    4  A    between atoms: C_6  and  O_19
REMARK    5  A    between atoms: C_11  and  C_14
REMARK    6  A    between atoms: O_19  and  C_20
REMARK    7  A    between atoms: C_20  and  C_22
REMARK    8  A    between atoms: C_22  and  O_23
REMARK    9  A    between atoms: C_25  and  C_26
REMARK                            x       y       z     vdW  Elec       q    Type
REMARK                         _______ _______ _______ _____ _____    ______ ____
ROOT
ATOM      1  N   UNL     1      35.320 -17.526 -22.132  0.00  0.00    -0.326 N 
ATOM      2  C   UNL     1      35.263 -17.630 -23.496  0.00  0.00    +0.041 A 
ATOM      3  C   UNL     1      34.748 -16.344 -21.720  0.00  0.00    +0.063 A 
ATOM      4  C   UNL     1      34.314 -15.676 -22.868  0.00  0.00    +0.054 A 
ATOM      5  C   UNL     1      34.645 -16.499 -23.980  0.00  0.00    +0.060 A 
ATOM      6  C   UNL     1      33.684 -14.424 -22.727  0.00  0.00    +0.141 C 
ATOM      7  C   UNL     1      34.583 -15.819 -20.434  0.00  0.00    +0.017 C 
ATOM      8  C   UNL     1      33.512 -13.887 -21.446  0.00  0.00    +0.037 C 
ATOM      9  C   UNL     1      33.956 -14.575 -20.318  0.00  0.00    +0.005 C 
ENDROOT
BRANCH   5  11
ATOM     10  O   UNL     1      35.276 -15.929 -26.197  0.00  0.00    -0.282 OA
ATOM     11  C   UNL     1      34.402 -16.244 -25.373  0.00  0.00    +0.249 C 
BRANCH  11  14
ATOM     12  O   UNL     1      32.531 -17.414 -26.195  0.00  0.00    -0.267 OA
ATOM     13  N   UNL     1      32.480 -15.085 -26.232  0.00  0.00    -0.323 N 
ATOM     14  C   UNL     1      33.023 -16.319 -25.984  0.00  0.00    +0.282 C 
ATOM     15  H   UNL     1      31.583 -15.013 -26.629  0.00  0.00    +0.145 HD
ATOM     16  H   UNL     1      32.988 -14.271 -26.011  0.00  0.00    +0.145 HD
ENDBRANCH  11  14
ENDBRANCH   5  11
BRANCH   2  17
ATOM     17  C   UNL     1      35.807 -18.803 -24.213  0.00  0.00    +0.044 C 
ATOM     18  C   UNL     1      34.724 -19.819 -24.590  0.00  0.00    +0.007 C 
ENDBRANCH   2  17
BRANCH   6  19
ATOM     19  O   UNL     1      33.235 -13.717 -23.811  0.00  0.00    -0.464 OA
BRANCH  19  20
ATOM     20  C   UNL     1      33.421 -12.307 -23.778  0.00  0.00    +0.314 C 
BRANCH  20  22
ATOM     21  O   UNL     1      33.661 -12.441 -26.187  0.00  0.00    -0.246 OA
ATOM     22  C   UNL     1      33.867 -11.843 -25.139  0.00  0.00    +0.362 C 
BRANCH  22  23
ATOM     23  O   UNL     1      34.532 -10.658 -25.009  0.00  0.00    -0.442 OA
ATOM     24  C   UNL     1      35.513 -10.387 -26.015  0.00  0.00    +0.256 C 
ENDBRANCH  22  23
ENDBRANCH  20  22
ENDBRANCH  19  20
ENDBRANCH   6  19
BRANCH   1  25
ATOM     25  C   UNL     1      35.900 -18.516 -21.246  0.00  0.00    +0.132 C 
BRANCH  25  26
ATOM     26  C   UNL     1      34.865 -19.497 -20.768  0.00  0.00    +0.000 C 
ATOM     27  C   UNL     1      33.522 -19.259 -21.033  0.00  0.00    -0.002 C 
ATOM     28  C   UNL     1      35.264 -20.628 -20.069  0.00  0.00    -0.002 C 
ATOM     29  C   UNL     1      32.562 -20.169 -20.590  0.00  0.00    -0.000 C 
ATOM     30  C   UNL     1      34.305 -21.539 -19.626  0.00  0.00    -0.000 C 
ATOM     31  C   UNL     1      32.954 -21.309 -19.887  0.00  0.00    -0.000 C 
ENDBRANCH  25  26
ENDBRANCH   1  25
TORSDOF 9
ENDMDL
MODEL 5
REMARK VINA RESULT:      -8.7      3.369      6.347
REMARK  Name = 9886917
REMARK  9 active torsions:
REMARK  status: ('A' for Active; 'I' for Inactive)
REMARK    1  A    between atoms: N_1  and  C_25
REMARK    2  A    between atoms: C_2  and  C_17
REMARK    3  A    between atoms: C_5  and  C_11
REMARK    4  A    between atoms: C_6  and  O_19
REMARK    5  A    between atoms: C_11  and  C_14
REMARK    6  A    between atoms: O_19  and  C_20
REMARK    7  A    between atoms: C_20  and  C_22
REMARK    8  A    between atoms: C_22  and  O_23
REMARK    9  A    between atoms: C_25  and  C_26
REMARK                            x       y       z     vdW  Elec       q    Type
REMARK                         _______ _______ _______ _____ _____    ______ ____
ROOT
ATOM      1  N   UNL     1      32.901 -14.040 -23.697  0.00  0.00    -0.326 N 
ATOM      2  C   UNL     1      33.192 -14.810 -24.791  0.00  0.00    +0.041 A 
ATOM      3  C   UNL     1      33.494 -14.568 -22.572  0.00  0.00    +0.063 A 
ATOM      4  C   UNL     1      34.184 -15.715 -22.971  0.00  0.00    +0.054 A 
ATOM      5  C   UNL     1      33.986 -15.855 -24.373  0.00  0.00    +0.060 A 
ATOM      6  C   UNL     1      34.888 -16.455 -22.001  0.00  0.00    +0.141 C 
ATOM      7  C   UNL     1      33.472 -14.124 -21.245  0.00  0.00    +0.017 C 
ATOM      8  C   UNL     1      34.876 -16.022 -20.670  0.00  0.00    +0.037 C 
ATOM      9  C   UNL     1      34.177 -14.874 -20.301  0.00  0.00    +0.005 C 
ENDROOT
BRANCH   5  11
ATOM     10  O   UNL     1      35.396 -16.714 -26.079  0.00  0.00    -0.282 OA
ATOM     11  C   UNL     1      34.496 -16.881 -25.241  0.00  0.00    +0.249 C 
BRANCH  11  14
ATOM     12  O   UNL     1      32.912 -18.532 -25.802  0.00  0.00    -0.267 OA
ATOM     13  N   UNL     1      34.769 -19.164 -24.544  0.00  0.00    -0.323 N 
ATOM     14  C   UNL     1      33.962 -18.294 -25.229  0.00  0.00    +0.282 C 
ATOM     15  H   UNL     1      34.519 -20.113 -24.471  0.00  0.00    +0.145 HD
ATOM     16  H   UNL     1      35.598 -18.839 -24.124  0.00  0.00    +0.145 HD
ENDBRANCH  11  14
ENDBRANCH   5  11
BRANCH   2  17
ATOM     17  C   UNL     1      32.683 -14.477 -26.138  0.00  0.00    +0.044 C 
ATOM     18  C   UNL     1      33.717 -13.741 -26.995  0.00  0.00    +0.007 C 
ENDBRANCH   2  17
BRANCH   6  19
ATOM     19  O   UNL     1      35.586 -17.588 -22.326  0.00  0.00    -0.464 OA
BRANCH  19  20
ATOM     20  C   UNL     1      36.021 -18.405 -21.245  0.00  0.00    +0.314 C 
BRANCH  20  22
ATOM     21  O   UNL     1      34.072 -19.747 -21.771  0.00  0.00    -0.246 OA
ATOM     22  C   UNL     1      35.015 -19.504 -21.029  0.00  0.00    +0.362 C 
BRANCH  22  23
ATOM     23  O   UNL     1      35.328 -20.174 -19.882  0.00  0.00    -0.442 OA
ATOM     24  C   UNL     1      36.325 -21.193 -20.015  0.00  0.00    +0.256 C 
ENDBRANCH  22  23
ENDBRANCH  20  22
ENDBRANCH  19  20
ENDBRANCH   6  19
BRANCH   1  25
ATOM     25  C   UNL     1      32.086 -12.843 -23.716  0.00  0.00    +0.132 C 
BRANCH  25  26
ATOM     26  C   UNL     1      32.934 -11.603 -23.802  0.00  0.00    +0.000 C 
ATOM     27  C   UNL     1      32.578 -10.478 -23.069  0.00  0.00    -0.002 C 
ATOM     28  C   UNL     1      34.062 -11.599 -24.611  0.00  0.00    -0.002 C 
ATOM     29  C   UNL     1      33.364  -9.329 -23.147  0.00  0.00    -0.000 C 
ATOM     30  C   UNL     1      34.849 -10.450 -24.689  0.00  0.00    -0.000 C 
ATOM     31  C   UNL     1      34.500  -9.316 -23.958  0.00  0.00    -0.000 C 
ENDBRANCH  25  26
ENDBRANCH   1  25
TORSDOF 9
ENDMDL
MODEL 6
REMARK VINA RESULT:      -8.0     12.361     16.358
REMARK  Name = 9886917
REMARK  9 active torsions:
REMARK  status: ('A' for Active; 'I' for Inactive)
REMARK    1  A    between atoms: N_1  and  C_25
REMARK    2  A    between atoms: C_2  and  C_17
REMARK    3  A    between atoms: C_5  and  C_11
REMARK    4  A    between atoms: C_6  and  O_19
REMARK    5  A    between atoms: C_11  and  C_14
REMARK    6  A    between atoms: O_19  and  C_20
REMARK    7  A    between atoms: C_20  and  C_22
REMARK    8  A    between atoms: C_22  and  O_23
REMARK    9  A    between atoms: C_25  and  C_26
REMARK                            x       y       z     vdW  Elec       q    Type
REMARK                         _______ _______ _______ _____ _____    ______ ____
ROOT
ATOM      1  N   UNL     1      35.488 -22.860 -15.503  0.00  0.00    -0.326 N 
ATOM      2  C   UNL     1      35.484 -22.673 -16.859  0.00  0.00    +0.041 A 
ATOM      3  C   UNL     1      34.214 -23.135 -15.057  0.00  0.00    +0.063 A 
ATOM      4  C   UNL     1      33.376 -23.120 -16.175  0.00  0.00    +0.054 A 
ATOM      5  C   UNL     1      34.191 -22.827 -17.304  0.00  0.00    +0.060 A 
ATOM      6  C   UNL     1      32.002 -23.374 -15.995  0.00  0.00    +0.141 C 
ATOM      7  C   UNL     1      33.745 -23.393 -13.765  0.00  0.00    +0.017 C 
ATOM      8  C   UNL     1      31.519 -23.635 -14.708  0.00  0.00    +0.037 C 
ATOM      9  C   UNL     1      32.378 -23.642 -13.611  0.00  0.00    +0.005 C 
ENDROOT
BRANCH   5  11
ATOM     10  O   UNL     1      33.656 -23.655 -19.464  0.00  0.00    -0.282 OA
ATOM     11  C   UNL     1      33.787 -22.703 -18.678  0.00  0.00    +0.249 C 
BRANCH  11  14
ATOM     12  O   UNL     1      32.382 -20.881 -19.181  0.00  0.00    -0.267 OA
ATOM     13  N   UNL     1      34.561 -20.856 -20.006  0.00  0.00    -0.323 N 
ATOM     14  C   UNL     1      33.491 -21.368 -19.320  0.00  0.00    +0.282 C 
ATOM     15  H   UNL     1      34.482 -19.990 -20.465  0.00  0.00    +0.145 HD
ATOM     16  H   UNL     1      35.409 -21.356 -20.040  0.00  0.00    +0.145 HD
ENDBRANCH  11  14
ENDBRANCH   5  11
BRANCH   2  17
ATOM     17  C   UNL     1      36.721 -22.361 -17.607  0.00  0.00    +0.044 C 
ATOM     18  C   UNL     1      37.156 -20.901 -17.445  0.00  0.00    +0.007 C 
ENDBRANCH   2  17
BRANCH   6  19
ATOM     19  O   UNL     1      31.126 -23.375 -17.048  0.00  0.00    -0.464 OA
BRANCH  19  20
ATOM     20  C   UNL     1      29.906 -22.667 -16.867  0.00  0.00    +0.314 C 
BRANCH  20  22
ATOM     21  O   UNL     1      28.687 -24.680 -16.288  0.00  0.00    -0.246 OA
ATOM     22  C   UNL     1      28.762 -23.643 -16.934  0.00  0.00    +0.362 C 
BRANCH  22  23
ATOM     23  O   UNL     1      27.835 -23.183 -17.825  0.00  0.00    -0.442 OA
ATOM     24  C   UNL     1      26.994 -22.127 -17.350  0.00  0.00    +0.256 C 
ENDBRANCH  22  23
ENDBRANCH  20  22
ENDBRANCH  19  20
ENDBRANCH   6  19
BRANCH   1  25
ATOM     25  C   UNL     1      36.660 -22.780 -14.655  0.00  0.00    +0.132 C 
BRANCH  25  26
ATOM     26  C   UNL     1      36.949 -24.099 -13.993  0.00  0.00    +0.000 C 
ATOM     27  C   UNL     1      36.946 -25.262 -14.753  0.00  0.00    -0.002 C 
ATOM     28  C   UNL     1      37.217 -24.139 -12.631  0.00  0.00    -0.002 C 
ATOM     29  C   UNL     1      37.214 -26.485 -14.140  0.00  0.00    -0.000 C 
ATOM     30  C   UNL     1      37.486 -25.362 -12.018  0.00  0.00    -0.000 C 
ATOM     31  C   UNL     1      37.485 -26.535 -12.772  0.00  0.00    -0.000 C 
ENDBRANCH  25  26
ENDBRANCH   1  25
TORSDOF 9
ENDMDL
MODEL 7
REMARK VINA RESULT:      -7.9      3.112      7.692
REMARK  Name = 9886917
REMARK  9 active torsions:
REMARK  status: ('A' for Active; 'I' for Inactive)
REMARK    1  A    between atoms: N_1  and  C_25
REMARK    2  A    between atoms: C_2  and  C_17
REMARK    3  A    between atoms: C_5  and  C_11
REMARK    4  A    between atoms: C_6  and  O_19
REMARK    5  A    between atoms: C_11  and  C_14
REMARK    6  A    between atoms: O_19  and  C_20
REMARK    7  A    between atoms: C_20  and  C_22
REMARK    8  A    between atoms: C_22  and  O_23
REMARK    9  A    between atoms: C_25  and  C_26
REMARK                            x       y       z     vdW  Elec       q    Type
REMARK                         _______ _______ _______ _____ _____    ______ ____
ROOT
ATOM      1  N   UNL     1      32.299 -11.422 -22.783  0.00  0.00    -0.326 N 
ATOM      2  C   UNL     1      33.011 -10.583 -23.598  0.00  0.00    +0.041 A 
ATOM      3  C   UNL     1      31.980 -10.783 -21.606  0.00  0.00    +0.063 A 
ATOM      4  C   UNL     1      32.510  -9.493 -21.681  0.00  0.00    +0.054 A 
ATOM      5  C   UNL     1      33.158  -9.381 -22.944  0.00  0.00    +0.060 A 
ATOM      6  C   UNL     1      32.324  -8.618 -20.593  0.00  0.00    +0.141 C 
ATOM      7  C   UNL     1      31.269 -11.243 -20.492  0.00  0.00    +0.017 C 
ATOM      8  C   UNL     1      31.614  -9.065 -19.473  0.00  0.00    +0.037 C 
ATOM      9  C   UNL     1      31.097 -10.357 -19.425  0.00  0.00    +0.005 C 
ENDROOT
BRANCH   5  11
ATOM     10  O   UNL     1      35.048  -7.982 -23.273  0.00  0.00    -0.282 OA
ATOM     11  C   UNL     1      33.853  -8.245 -23.484  0.00  0.00    +0.249 C 
BRANCH  11  14
ATOM     12  O   UNL     1      33.845  -6.321 -24.843  0.00  0.00    -0.267 OA
ATOM     13  N   UNL     1      31.838  -7.463 -24.533  0.00  0.00    -0.323 N 
ATOM     14  C   UNL     1      33.177  -7.225 -24.369  0.00  0.00    +0.282 C 
ATOM     15  H   UNL     1      31.296  -6.861 -25.091  0.00  0.00    +0.145 HD
ATOM     16  H   UNL     1      31.418  -8.237 -24.091  0.00  0.00    +0.145 HD
ENDBRANCH  11  14
ENDBRANCH   5  11
BRANCH   2  17
ATOM     17  C   UNL     1      33.489 -11.009 -24.932  0.00  0.00    +0.044 C 
ATOM     18  C   UNL     1      34.991 -10.777 -25.122  0.00  0.00    +0.007 C 
ENDBRANCH   2  17
BRANCH   6  19
ATOM     19  O   UNL     1      32.818  -7.341 -20.603  0.00  0.00    -0.464 OA
BRANCH  19  20
ATOM     20  C   UNL     1      31.882  -6.289 -20.400  0.00  0.00    +0.314 C 
BRANCH  20  22
ATOM     21  O   UNL     1      30.405  -6.443 -22.315  0.00  0.00    -0.246 OA
ATOM     22  C   UNL     1      31.319  -5.875 -21.733  0.00  0.00    +0.362 C 
BRANCH  22  23
ATOM     23  O   UNL     1      31.991  -4.772 -22.176  0.00  0.00    -0.442 OA
ATOM     24  C   UNL     1      31.362  -4.053 -23.242  0.00  0.00    +0.256 C 
ENDBRANCH  22  23
ENDBRANCH  20  22
ENDBRANCH  19  20
ENDBRANCH   6  19
BRANCH   1  25
ATOM     25  C   UNL     1      31.934 -12.785 -23.109  0.00  0.00    +0.132 C 
BRANCH  25  26
ATOM     26  C   UNL     1      32.871 -13.772 -22.468  0.00  0.00    +0.000 C 
ATOM     27  C   UNL     1      32.665 -14.155 -21.148  0.00  0.00    -0.002 C 
ATOM     28  C   UNL     1      33.929 -14.289 -23.203  0.00  0.00    -0.002 C 
ATOM     29  C   UNL     1      33.533 -15.070 -20.554  0.00  0.00    -0.000 C 
ATOM     30  C   UNL     1      34.798 -15.206 -22.609  0.00  0.00    -0.000 C 
ATOM     31  C   UNL     1      34.600 -15.595 -21.285  0.00  0.00    -0.000 C 
ENDBRANCH  25  26
ENDBRANCH   1  25
TORSDOF 9
ENDMDL
MODEL 8
REMARK VINA RESULT:      -7.9     11.355     15.304
REMARK  Name = 9886917
REMARK  9 active torsions:
REMARK  status: ('A' for Active; 'I' for Inactive)
REMARK    1  A    between atoms: N_1  and  C_25
REMARK    2  A    between atoms: C_2  and  C_17
REMARK    3  A    between atoms: C_5  and  C_11
REMARK    4  A    between atoms: C_6  and  O_19
REMARK    5  A    between atoms: C_11  and  C_14
REMARK    6  A    between atoms: O_19  and  C_20
REMARK    7  A    between atoms: C_20  and  C_22
REMARK    8  A    between atoms: C_22  and  O_23
REMARK    9  A    between atoms: C_25  and  C_26
REMARK                            x       y       z     vdW  Elec       q    Type
REMARK                         _______ _______ _______ _____ _____    ______ ____
ROOT
ATOM      1  N   UNL     1      34.088 -23.054 -17.720  0.00  0.00    -0.326 N 
ATOM      2  C   UNL     1      33.041 -23.271 -16.866  0.00  0.00    +0.041 A 
ATOM      3  C   UNL     1      35.250 -22.854 -17.009  0.00  0.00    +0.063 A 
ATOM      4  C   UNL     1      34.922 -22.948 -15.654  0.00  0.00    +0.054 A 
ATOM      5  C   UNL     1      33.526 -23.211 -15.579  0.00  0.00    +0.060 A 
ATOM      6  C   UNL     1      35.942 -22.780 -14.697  0.00  0.00    +0.141 C 
ATOM      7  C   UNL     1      36.551 -22.600 -17.455  0.00  0.00    +0.017 C 
ATOM      8  C   UNL     1      37.249 -22.526 -15.129  0.00  0.00    +0.037 C 
ATOM      9  C   UNL     1      37.546 -22.437 -16.487  0.00  0.00    +0.005 C 
ENDROOT
BRANCH   5  11
ATOM     10  O   UNL     1      32.103 -22.482 -13.824  0.00  0.00    -0.282 OA
ATOM     11  C   UNL     1      32.721 -23.390 -14.402  0.00  0.00    +0.249 C 
BRANCH  11  14
ATOM     12  O   UNL     1      31.612 -25.436 -14.035  0.00  0.00    -0.267 OA
ATOM     13  N   UNL     1      33.543 -24.991 -12.809  0.00  0.00    -0.323 N 
ATOM     14  C   UNL     1      32.558 -24.731 -13.725  0.00  0.00    +0.282 C 
ATOM     15  H   UNL     1      33.537 -25.837 -12.307  0.00  0.00    +0.145 HD
ATOM     16  H   UNL     1      34.257 -24.330 -12.653  0.00  0.00    +0.145 HD
ENDBRANCH  11  14
ENDBRANCH   5  11
BRANCH   2  17
ATOM     17  C   UNL     1      31.668 -23.515 -17.359  0.00  0.00    +0.044 C 
ATOM     18  C   UNL     1      30.639 -22.571 -16.730  0.00  0.00    +0.007 C 
ENDBRANCH   2  17
BRANCH   6  19
ATOM     19  O   UNL     1      35.689 -22.860 -13.353  0.00  0.00    -0.464 OA
BRANCH  19  20
ATOM     20  C   UNL     1      36.808 -23.069 -12.500  0.00  0.00    +0.314 C 
BRANCH  20  22
ATOM     21  O   UNL     1      36.388 -23.957 -10.284  0.00  0.00    -0.246 OA
ATOM     22  C   UNL     1      36.462 -24.132 -11.493  0.00  0.00    +0.362 C 
BRANCH  22  23
ATOM     23  O   UNL     1      36.246 -25.311 -12.148  0.00  0.00    -0.442 OA
ATOM     24  C   UNL     1      37.409 -25.925 -12.712  0.00  0.00    +0.256 C 
ENDBRANCH  22  23
ENDBRANCH  20  22
ENDBRANCH  19  20
ENDBRANCH   6  19
BRANCH   1  25
ATOM     25  C   UNL     1      33.992 -23.036 -19.166  0.00  0.00    +0.132 C 
BRANCH  25  26
ATOM     26  C   UNL     1      34.006 -21.630 -19.699  0.00  0.00    +0.000 C 
ATOM     27  C   UNL     1      35.216 -21.042 -20.048  0.00  0.00    -0.002 C 
ATOM     28  C   UNL     1      32.811 -20.937 -19.837  0.00  0.00    -0.002 C 
ATOM     29  C   UNL     1      35.230 -19.738 -20.543  0.00  0.00    -0.000 C 
ATOM     30  C   UNL     1      32.824 -19.633 -20.333  0.00  0.00    -0.000 C 
ATOM     31  C   UNL     1      34.033 -19.034 -20.686  0.00  0.00    -0.000 C 
ENDBRANCH  25  26
ENDBRANCH   1  25
TORSDOF 9
ENDMDL
MODEL 9
REMARK VINA RESULT:      -7.4      2.942      5.821
REMARK  Name = 9886917
REMARK  9 active torsions:
REMARK  status: ('A' for Active; 'I' for Inactive)
REMARK    1  A    between atoms: N_1  and  C_25
REMARK    2  A    between atoms: C_2  and  C_17
REMARK    3  A    between atoms: C_5  and  C_11
REMARK    4  A    between atoms: C_6  and  O_19
REMARK    5  A    between atoms: C_11  and  C_14
REMARK    6  A    between atoms: O_19  and  C_20
REMARK    7  A    between atoms: C_20  and  C_22
REMARK    8  A    between atoms: C_22  and  O_23
REMARK    9  A    between atoms: C_25  and  C_26
REMARK                            x       y       z     vdW  Elec       q    Type
REMARK                         _______ _______ _______ _____ _____    ______ ____
ROOT
ATOM      1  N   UNL     1      32.890 -13.236 -23.783  0.00  0.00    -0.326 N 
ATOM      2  C   UNL     1      33.613 -14.103 -24.557  0.00  0.00    +0.041 A 
ATOM      3  C   UNL     1      32.866 -13.671 -22.477  0.00  0.00    +0.063 A 
ATOM      4  C   UNL     1      33.602 -14.857 -22.425  0.00  0.00    +0.054 A 
ATOM      5  C   UNL     1      34.067 -15.117 -23.745  0.00  0.00    +0.060 A 
ATOM      6  C   UNL     1      33.737 -15.519 -21.189  0.00  0.00    +0.141 C 
ATOM      7  C   UNL     1      32.256 -13.112 -21.348  0.00  0.00    +0.017 C 
ATOM      8  C   UNL     1      33.133 -14.971 -20.052  0.00  0.00    +0.037 C 
ATOM      9  C   UNL     1      32.404 -13.786 -20.133  0.00  0.00    +0.005 C 
ENDROOT
BRANCH   5  11
ATOM     10  O   UNL     1      36.084 -16.347 -23.990  0.00  0.00    -0.282 OA
ATOM     11  C   UNL     1      34.867 -16.222 -24.200  0.00  0.00    +0.249 C 
BRANCH  11  14
ATOM     12  O   UNL     1      33.551 -17.102 -25.945  0.00  0.00    -0.267 OA
ATOM     13  N   UNL     1      34.703 -18.590 -24.571  0.00  0.00    -0.323 N 
ATOM     14  C   UNL     1      34.293 -17.359 -25.011  0.00  0.00    +0.282 C 
ATOM     15  H   UNL     1      34.390 -19.404 -25.026  0.00  0.00    +0.145 HD
ATOM     16  H   UNL     1      35.310 -18.659 -23.798  0.00  0.00    +0.145 HD
ENDBRANCH  11  14
ENDBRANCH   5  11
BRANCH   2  17
ATOM     17  C   UNL     1      33.804 -13.882 -26.007  0.00  0.00    +0.044 C 
ATOM     18  C   UNL     1      32.558 -14.234 -26.825  0.00  0.00    +0.007 C 
ENDBRANCH   2  17
BRANCH   6  19
ATOM     19  O   UNL     1      34.445 -16.685 -21.070  0.00  0.00    -0.464 OA
BRANCH  19  20
ATOM     20  C   UNL     1      33.700 -17.896 -21.129  0.00  0.00    +0.314 C 
BRANCH  20  22
ATOM     21  O   UNL     1      35.715 -19.031 -21.855  0.00  0.00    -0.246 OA
ATOM     22  C   UNL     1      34.658 -19.052 -21.239  0.00  0.00    +0.362 C 
BRANCH  22  23
ATOM     23  O   UNL     1      34.155 -20.115 -20.545  0.00  0.00    -0.442 OA
ATOM     24  C   UNL     1      32.734 -20.122 -20.373  0.00  0.00    +0.256 C 
ENDBRANCH  22  23
ENDBRANCH  20  22
ENDBRANCH  19  20
ENDBRANCH   6  19
BRANCH   1  25
ATOM     25  C   UNL     1      32.240 -12.034 -24.264  0.00  0.00    +0.132 C 
BRANCH  25  26
ATOM     26  C   UNL     1      33.127 -10.829 -24.105  0.00  0.00    +0.000 C 
ATOM     27  C   UNL     1      32.709  -9.772 -23.306  0.00  0.00    -0.002 C 
ATOM     28  C   UNL     1      34.353 -10.790 -24.756  0.00  0.00    -0.002 C 
ATOM     29  C   UNL     1      33.531  -8.656 -23.157  0.00  0.00    -0.000 C 
ATOM     30  C   UNL     1      35.176  -9.673 -24.607  0.00  0.00    -0.000 C 
ATOM     31  C   UNL     1      34.765  -8.607 -23.808  0.00  0.00    -0.000 C 
ENDBRANCH  25  26
ENDBRANCH   1  25
TORSDOF 9
ENDMDL
