MODEL 1
REMARK VINA RESULT:      -9.6      0.000      0.000
REMARK  Name = 9905233
REMARK  8 active torsions:
REMARK  status: ('A' for Active; 'I' for Inactive)
REMARK    1  A    between atoms: C_2  and  C_18
REMARK    2  A    between atoms: C_5  and  C_6
REMARK    3  A    between atoms: C_7  and  C_8
REMARK    4  A    between atoms: C_8  and  C_9
REMARK    5  A    between atoms: C_9  and  N_11
REMARK    6  A    between atoms: N_11  and  O_16
REMARK    7  A    between atoms: C_18  and  O_19
REMARK    8  A    between atoms: O_19  and  C_21
REMARK                            x       y       z     vdW  Elec       q    Type
REMARK                         _______ _______ _______ _____ _____    ______ ____
ROOT
ATOM      1  O   UNL     1      34.655 -23.186 -16.600  0.00  0.00    -0.342 OA
ATOM      2  C   UNL     1      33.540 -23.535 -17.438  0.00  0.00    +0.160 C 
ATOM      3  C   UNL     1      32.295 -23.206 -16.633  0.00  0.00    +0.037 C 
ATOM      4  C   UNL     1      32.748 -23.546 -15.233  0.00  0.00    +0.046 C 
ATOM      5  C   UNL     1      34.191 -23.069 -15.242  0.00  0.00    +0.178 C 
ENDROOT
BRANCH   5   6
ATOM      6  C   UNL     1      35.044 -23.851 -14.347  0.00  0.00    -0.062 C 
ATOM      7  C   UNL     1      35.744 -24.492 -13.610  0.00  0.00    -0.087 C 
BRANCH   7   8
ATOM      8  C   UNL     1      36.603 -25.276 -12.711  0.00  0.00    +0.100 C 
BRANCH   8   9
ATOM      9  C   UNL     1      37.218 -26.480 -13.414  0.00  0.00    +0.139 C 
BRANCH   9  11
ATOM     10  O   UNL     1      39.637 -24.963 -13.434  0.00  0.00    -0.251 OA
ATOM     11  N   UNL     1      37.991 -26.101 -14.567  0.00  0.00    -0.155 N 
ATOM     12  N   UNL     1      39.747 -25.095 -15.711  0.00  0.00    -0.312 N 
ATOM     13  C   UNL     1      39.152 -25.365 -14.494  0.00  0.00    +0.323 C 
ATOM     14  H   UNL     1      40.581 -24.574 -15.745  0.00  0.00    +0.147 HD
ATOM     15  H   UNL     1      39.336 -25.423 -16.543  0.00  0.00    +0.147 HD
BRANCH  11  16
ATOM     16  O   UNL     1      37.438 -26.560 -15.774  0.00  0.00    -0.291 OA
ATOM     17  H   UNL     1      36.684 -27.139 -15.585  0.00  0.00    +0.242 HD
ENDBRANCH  11  16
ENDBRANCH   9  11
ENDBRANCH   8   9
ENDBRANCH   7   8
ENDBRANCH   5   6
BRANCH   2  18
ATOM     18  C   UNL     1      33.628 -22.781 -18.750  0.00  0.00    +0.235 C 
BRANCH  18  19
ATOM     19  O   UNL     1      34.984 -22.443 -18.996  0.00  0.00    -0.473 OA
BRANCH  19  21
ATOM     20  F   UNL     1      35.927 -17.823 -21.809  0.00  0.00    -0.204 F 
ATOM     21  C   UNL     1      35.219 -21.289 -19.698  0.00  0.00    +0.139 C 
ATOM     22  C   UNL     1      34.150 -20.584 -20.241  0.00  0.00    +0.039 C 
ATOM     23  C   UNL     1      36.522 -20.837 -19.860  0.00  0.00    +0.039 C 
ATOM     24  C   UNL     1      34.390 -19.411 -20.955  0.00  0.00    +0.033 C 
ATOM     25  C   UNL     1      36.762 -19.663 -20.575  0.00  0.00    +0.033 C 
ATOM     26  C   UNL     1      35.696 -18.949 -21.123  0.00  0.00    +0.140 C 
ENDBRANCH  19  21
ENDBRANCH  18  19
ENDBRANCH   2  18
TORSDOF 8
ENDMDL
MODEL 2
REMARK VINA RESULT:      -9.5      1.763      2.126
REMARK  Name = 9905233
REMARK  8 active torsions:
REMARK  status: ('A' for Active; 'I' for Inactive)
REMARK    1  A    between atoms: C_2  and  C_18
REMARK    2  A    between atoms: C_5  and  C_6
REMARK    3  A    between atoms: C_7  and  C_8
REMARK    4  A    between atoms: C_8  and  C_9
REMARK    5  A    between atoms: C_9  and  N_11
REMARK    6  A    between atoms: N_11  and  O_16
REMARK    7  A    between atoms: C_18  and  O_19
REMARK    8  A    between atoms: O_19  and  C_21
REMARK                            x       y       z     vdW  Elec       q    Type
REMARK                         _______ _______ _______ _____ _____    ______ ____
ROOT
ATOM      1  O   UNL     1      35.040 -23.096 -17.128  0.00  0.00    -0.342 OA
ATOM      2  C   UNL     1      33.713 -23.276 -17.650  0.00  0.00    +0.160 C 
ATOM      3  C   UNL     1      32.773 -23.095 -16.472  0.00  0.00    +0.037 C 
ATOM      4  C   UNL     1      33.586 -23.692 -15.348  0.00  0.00    +0.046 C 
ATOM      5  C   UNL     1      34.992 -23.230 -15.695  0.00  0.00    +0.178 C 
ENDROOT
BRANCH   5   6
ATOM      6  C   UNL     1      36.017 -24.170 -15.240  0.00  0.00    -0.062 C 
ATOM      7  C   UNL     1      36.858 -24.944 -14.867  0.00  0.00    -0.087 C 
BRANCH   7   8
ATOM      8  C   UNL     1      37.885 -25.890 -14.409  0.00  0.00    +0.100 C 
BRANCH   8   9
ATOM      9  C   UNL     1      38.618 -25.382 -13.173  0.00  0.00    +0.139 C 
BRANCH   9  11
ATOM     10  O   UNL     1      38.353 -22.795 -11.993  0.00  0.00    -0.251 OA
ATOM     11  N   UNL     1      37.714 -25.001 -12.122  0.00  0.00    -0.155 N 
ATOM     12  N   UNL     1      36.720 -23.558 -10.593  0.00  0.00    -0.312 N 
ATOM     13  C   UNL     1      37.646 -23.726 -11.603  0.00  0.00    +0.323 C 
ATOM     14  H   UNL     1      36.609 -22.676 -10.169  0.00  0.00    +0.147 HD
ATOM     15  H   UNL     1      36.171 -24.319 -10.296  0.00  0.00    +0.147 HD
BRANCH  11  16
ATOM     16  O   UNL     1      36.908 -26.062 -11.677  0.00  0.00    -0.291 OA
ATOM     17  H   UNL     1      37.052 -26.836 -12.244  0.00  0.00    +0.242 HD
ENDBRANCH  11  16
ENDBRANCH   9  11
ENDBRANCH   8   9
ENDBRANCH   7   8
ENDBRANCH   5   6
BRANCH   2  18
ATOM     18  C   UNL     1      33.466 -22.292 -18.777  0.00  0.00    +0.235 C 
BRANCH  18  19
ATOM     19  O   UNL     1      34.677 -22.098 -19.491  0.00  0.00    -0.473 OA
BRANCH  19  21
ATOM     20  F   UNL     1      35.388 -17.220 -21.908  0.00  0.00    -0.204 F 
ATOM     21  C   UNL     1      34.854 -20.880 -20.094  0.00  0.00    +0.139 C 
ATOM     22  C   UNL     1      33.745 -20.143 -20.495  0.00  0.00    +0.039 C 
ATOM     23  C   UNL     1      36.140 -20.395 -20.298  0.00  0.00    +0.039 C 
ATOM     24  C   UNL     1      33.926 -18.904 -21.110  0.00  0.00    +0.033 C 
ATOM     25  C   UNL     1      36.321 -19.155 -20.912  0.00  0.00    +0.033 C 
ATOM     26  C   UNL     1      35.214 -18.409 -21.318  0.00  0.00    +0.140 C 
ENDBRANCH  19  21
ENDBRANCH  18  19
ENDBRANCH   2  18
TORSDOF 8
ENDMDL
MODEL 3
REMARK VINA RESULT:      -9.5      8.517     12.606
REMARK  Name = 9905233
REMARK  8 active torsions:
REMARK  status: ('A' for Active; 'I' for Inactive)
REMARK    1  A    between atoms: C_2  and  C_18
REMARK    2  A    between atoms: C_5  and  C_6
REMARK    3  A    between atoms: C_7  and  C_8
REMARK    4  A    between atoms: C_8  and  C_9
REMARK    5  A    between atoms: C_9  and  N_11
REMARK    6  A    between atoms: N_11  and  O_16
REMARK    7  A    between atoms: C_18  and  O_19
REMARK    8  A    between atoms: O_19  and  C_21
REMARK                            x       y       z     vdW  Elec       q    Type
REMARK                         _______ _______ _______ _____ _____    ______ ____
ROOT
ATOM      1  O   UNL     1      34.216 -16.391 -23.154  0.00  0.00    -0.342 OA
ATOM      2  C   UNL     1      35.175 -17.058 -22.317  0.00  0.00    +0.160 C 
ATOM      3  C   UNL     1      34.893 -16.586 -20.902  0.00  0.00    +0.037 C 
ATOM      4  C   UNL     1      34.473 -15.157 -21.143  0.00  0.00    +0.046 C 
ATOM      5  C   UNL     1      33.669 -15.275 -22.428  0.00  0.00    +0.178 C 
ENDROOT
BRANCH   5   6
ATOM      6  C   UNL     1      33.734 -14.060 -23.242  0.00  0.00    -0.062 C 
ATOM      7  C   UNL     1      33.788 -13.062 -23.909  0.00  0.00    -0.087 C 
BRANCH   7   8
ATOM      8  C   UNL     1      33.852 -11.840 -24.724  0.00  0.00    +0.100 C 
BRANCH   8   9
ATOM      9  C   UNL     1      33.271 -10.636 -23.993  0.00  0.00    +0.139 C 
BRANCH   9  11
ATOM     10  O   UNL     1      32.744  -7.952 -23.171  0.00  0.00    -0.251 OA
ATOM     11  N   UNL     1      34.229  -9.573 -23.847  0.00  0.00    -0.155 N 
ATOM     12  N   UNL     1      34.954  -7.416 -23.370  0.00  0.00    -0.312 N 
ATOM     13  C   UNL     1      33.896  -8.299 -23.444  0.00  0.00    +0.323 C 
ATOM     14  H   UNL     1      34.800  -6.485 -23.089  0.00  0.00    +0.147 HD
ATOM     15  H   UNL     1      35.863  -7.717 -23.599  0.00  0.00    +0.147 HD
BRANCH  11  16
ATOM     16  O   UNL     1      35.541  -9.969 -24.158  0.00  0.00    -0.291 OA
ATOM     17  H   UNL     1      36.086  -9.183 -24.318  0.00  0.00    +0.242 HD
ENDBRANCH  11  16
ENDBRANCH   9  11
ENDBRANCH   8   9
ENDBRANCH   7   8
ENDBRANCH   5   6
BRANCH   2  18
ATOM     18  C   UNL     1      35.053 -18.559 -22.491  0.00  0.00    +0.235 C 
BRANCH  18  19
ATOM     19  O   UNL     1      35.790 -19.202 -21.463  0.00  0.00    -0.473 OA
BRANCH  19  21
ATOM     20  F   UNL     1      33.075 -22.804 -18.331  0.00  0.00    -0.204 F 
ATOM     21  C   UNL     1      35.111 -20.101 -20.681  0.00  0.00    +0.139 C 
ATOM     22  C   UNL     1      33.723 -20.057 -20.628  0.00  0.00    +0.039 C 
ATOM     23  C   UNL     1      35.819 -21.048 -19.951  0.00  0.00    +0.039 C 
ATOM     24  C   UNL     1      33.033 -20.971 -19.832  0.00  0.00    +0.033 C 
ATOM     25  C   UNL     1      35.130 -21.963 -19.155  0.00  0.00    +0.033 C 
ATOM     26  C   UNL     1      33.737 -21.925 -19.096  0.00  0.00    +0.140 C 
ENDBRANCH  19  21
ENDBRANCH  18  19
ENDBRANCH   2  18
TORSDOF 8
ENDMDL
MODEL 4
REMARK VINA RESULT:      -9.5      5.134      6.752
REMARK  Name = 9905233
REMARK  8 active torsions:
REMARK  status: ('A' for Active; 'I' for Inactive)
REMARK    1  A    between atoms: C_2  and  C_18
REMARK    2  A    between atoms: C_5  and  C_6
REMARK    3  A    between atoms: C_7  and  C_8
REMARK    4  A    between atoms: C_8  and  C_9
REMARK    5  A    between atoms: C_9  and  N_11
REMARK    6  A    between atoms: N_11  and  O_16
REMARK    7  A    between atoms: C_18  and  O_19
REMARK    8  A    between atoms: O_19  and  C_21
REMARK                            x       y       z     vdW  Elec       q    Type
REMARK                         _______ _______ _______ _____ _____    ______ ____
ROOT
ATOM      1  O   UNL     1      32.818 -21.540 -19.542  0.00  0.00    -0.342 OA
ATOM      2  C   UNL     1      33.826 -20.565 -19.861  0.00  0.00    +0.160 C 
ATOM      3  C   UNL     1      35.158 -21.271 -19.691  0.00  0.00    +0.037 C 
ATOM      4  C   UNL     1      34.864 -22.184 -18.526  0.00  0.00    +0.046 C 
ATOM      5  C   UNL     1      33.436 -22.618 -18.815  0.00  0.00    +0.178 C 
ENDROOT
BRANCH   5   6
ATOM      6  C   UNL     1      32.681 -22.903 -17.595  0.00  0.00    -0.062 C 
ATOM      7  C   UNL     1      32.060 -23.138 -16.593  0.00  0.00    -0.087 C 
BRANCH   7   8
ATOM      8  C   UNL     1      31.298 -23.423 -15.368  0.00  0.00    +0.100 C 
BRANCH   8   9
ATOM      9  C   UNL     1      29.933 -24.028 -15.673  0.00  0.00    +0.139 C 
BRANCH   9  11
ATOM     10  O   UNL     1      27.810 -24.130 -17.580  0.00  0.00    -0.251 OA
ATOM     11  N   UNL     1      28.932 -23.022 -15.906  0.00  0.00    -0.155 N 
ATOM     12  N   UNL     1      27.073 -22.070 -16.929  0.00  0.00    -0.312 N 
ATOM     13  C   UNL     1      27.936 -23.145 -16.849  0.00  0.00    +0.323 C 
ATOM     14  H   UNL     1      26.334 -22.080 -17.578  0.00  0.00    +0.147 HD
ATOM     15  H   UNL     1      27.198 -21.293 -16.337  0.00  0.00    +0.147 HD
BRANCH  11  16
ATOM     16  O   UNL     1      29.075 -21.900 -15.072  0.00  0.00    -0.291 OA
ATOM     17  H   UNL     1      29.908 -21.448 -15.279  0.00  0.00    +0.242 HD
ENDBRANCH  11  16
ENDBRANCH   9  11
ENDBRANCH   8   9
ENDBRANCH   7   8
ENDBRANCH   5   6
BRANCH   2  18
ATOM     18  C   UNL     1      33.598 -20.031 -21.262  0.00  0.00    +0.235 C 
BRANCH  18  19
ATOM     19  O   UNL     1      34.826 -19.530 -21.768  0.00  0.00    -0.473 OA
BRANCH  19  21
ATOM     20  F   UNL     1      34.527 -15.877 -25.857  0.00  0.00    -0.204 F 
ATOM     21  C   UNL     1      34.751 -18.619 -22.790  0.00  0.00    +0.139 C 
ATOM     22  C   UNL     1      34.589 -19.062 -24.097  0.00  0.00    +0.039 C 
ATOM     23  C   UNL     1      34.838 -17.261 -22.506  0.00  0.00    +0.039 C 
ATOM     24  C   UNL     1      34.513 -18.134 -25.135  0.00  0.00    +0.033 C 
ATOM     25  C   UNL     1      34.762 -16.333 -23.545  0.00  0.00    +0.033 C 
ATOM     26  C   UNL     1      34.600 -16.769 -24.860  0.00  0.00    +0.140 C 
ENDBRANCH  19  21
ENDBRANCH  18  19
ENDBRANCH   2  18
TORSDOF 8
ENDMDL
MODEL 5
REMARK VINA RESULT:      -9.4      8.748     12.793
REMARK  Name = 9905233
REMARK  8 active torsions:
REMARK  status: ('A' for Active; 'I' for Inactive)
REMARK    1  A    between atoms: C_2  and  C_18
REMARK    2  A    between atoms: C_5  and  C_6
REMARK    3  A    between atoms: C_7  and  C_8
REMARK    4  A    between atoms: C_8  and  C_9
REMARK    5  A    between atoms: C_9  and  N_11
REMARK    6  A    between atoms: N_11  and  O_16
REMARK    7  A    between atoms: C_18  and  O_19
REMARK    8  A    between atoms: O_19  and  C_21
REMARK                            x       y       z     vdW  Elec       q    Type
REMARK                         _______ _______ _______ _____ _____    ______ ____
ROOT
ATOM      1  O   UNL     1      34.377 -14.956 -22.887  0.00  0.00    -0.342 OA
ATOM      2  C   UNL     1      34.518 -15.651 -21.636  0.00  0.00    +0.160 C 
ATOM      3  C   UNL     1      33.120 -15.749 -21.054  0.00  0.00    +0.037 C 
ATOM      4  C   UNL     1      32.517 -14.441 -21.505  0.00  0.00    +0.046 C 
ATOM      5  C   UNL     1      33.103 -14.285 -22.900  0.00  0.00    +0.178 C 
ENDROOT
BRANCH   5   6
ATOM      6  C   UNL     1      33.272 -12.883 -23.282  0.00  0.00    -0.062 C 
ATOM      7  C   UNL     1      33.413 -11.732 -23.595  0.00  0.00    -0.087 C 
BRANCH   7   8
ATOM      8  C   UNL     1      33.585 -10.322 -23.976  0.00  0.00    +0.100 C 
BRANCH   8   9
ATOM      9  C   UNL     1      32.455  -9.447 -23.449  0.00  0.00    +0.139 C 
BRANCH   9  11
ATOM     10  O   UNL     1      31.514  -9.866 -20.786  0.00  0.00    -0.251 OA
ATOM     11  N   UNL     1      32.837  -8.713 -22.272  0.00  0.00    -0.155 N 
ATOM     12  N   UNL     1      32.819  -8.159 -20.014  0.00  0.00    -0.312 N 
ATOM     13  C   UNL     1      32.336  -8.977 -21.017  0.00  0.00    +0.323 C 
ATOM     14  H   UNL     1      32.510  -8.283 -19.088  0.00  0.00    +0.147 HD
ATOM     15  H   UNL     1      33.470  -7.453 -20.226  0.00  0.00    +0.147 HD
BRANCH  11  16
ATOM     16  O   UNL     1      33.773  -7.700 -22.536  0.00  0.00    -0.291 OA
ATOM     17  H   UNL     1      33.359  -6.833 -22.399  0.00  0.00    +0.242 HD
ENDBRANCH  11  16
ENDBRANCH   9  11
ENDBRANCH   8   9
ENDBRANCH   7   8
ENDBRANCH   5   6
BRANCH   2  18
ATOM     18  C   UNL     1      35.173 -16.998 -21.868  0.00  0.00    +0.235 C 
BRANCH  18  19
ATOM     19  O   UNL     1      34.164 -17.993 -21.942  0.00  0.00    -0.473 OA
BRANCH  19  21
ATOM     20  F   UNL     1      34.893 -22.498 -18.888  0.00  0.00    -0.204 F 
ATOM     21  C   UNL     1      34.345 -19.118 -21.179  0.00  0.00    +0.139 C 
ATOM     22  C   UNL     1      33.240 -19.790 -20.669  0.00  0.00    +0.039 C 
ATOM     23  C   UNL     1      35.632 -19.575 -20.924  0.00  0.00    +0.039 C 
ATOM     24  C   UNL     1      33.425 -20.933 -19.893  0.00  0.00    +0.033 C 
ATOM     25  C   UNL     1      35.818 -20.720 -20.148  0.00  0.00    +0.033 C 
ATOM     26  C   UNL     1      34.714 -21.399 -19.633  0.00  0.00    +0.140 C 
ENDBRANCH  19  21
ENDBRANCH  18  19
ENDBRANCH   2  18
TORSDOF 8
ENDMDL
MODEL 6
REMARK VINA RESULT:      -9.3      7.469     10.468
REMARK  Name = 9905233
REMARK  8 active torsions:
REMARK  status: ('A' for Active; 'I' for Inactive)
REMARK    1  A    between atoms: C_2  and  C_18
REMARK    2  A    between atoms: C_5  and  C_6
REMARK    3  A    between atoms: C_7  and  C_8
REMARK    4  A    between atoms: C_8  and  C_9
REMARK    5  A    between atoms: C_9  and  N_11
REMARK    6  A    between atoms: N_11  and  O_16
REMARK    7  A    between atoms: C_18  and  O_19
REMARK    8  A    between atoms: O_19  and  C_21
REMARK                            x       y       z     vdW  Elec       q    Type
REMARK                         _______ _______ _______ _____ _____    ______ ____
ROOT
ATOM      1  O   UNL     1      34.277 -14.493 -22.668  0.00  0.00    -0.342 OA
ATOM      2  C   UNL     1      32.981 -13.939 -22.951  0.00  0.00    +0.160 C 
ATOM      3  C   UNL     1      32.338 -13.671 -21.602  0.00  0.00    +0.037 C 
ATOM      4  C   UNL     1      32.870 -14.824 -20.785  0.00  0.00    +0.046 C 
ATOM      5  C   UNL     1      34.294 -14.950 -21.303  0.00  0.00    +0.178 C 
ENDROOT
BRANCH   5   6
ATOM      6  C   UNL     1      34.794 -16.323 -21.234  0.00  0.00    -0.062 C 
ATOM      7  C   UNL     1      35.204 -17.451 -21.177  0.00  0.00    -0.087 C 
BRANCH   7   8
ATOM      8  C   UNL     1      35.706 -18.831 -21.105  0.00  0.00    +0.100 C 
BRANCH   8   9
ATOM      9  C   UNL     1      34.574 -19.844 -20.980  0.00  0.00    +0.139 C 
BRANCH   9  11
ATOM     10  O   UNL     1      32.738 -21.802 -20.004  0.00  0.00    -0.251 OA
ATOM     11  N   UNL     1      34.796 -20.779 -19.910  0.00  0.00    -0.155 N 
ATOM     12  N   UNL     1      34.253 -22.503 -18.447  0.00  0.00    -0.312 N 
ATOM     13  C   UNL     1      33.856 -21.697 -19.495  0.00  0.00    +0.323 C 
ATOM     14  H   UNL     1      33.639 -23.186 -18.092  0.00  0.00    +0.147 HD
ATOM     15  H   UNL     1      35.149 -22.395 -18.054  0.00  0.00    +0.147 HD
BRANCH  11  16
ATOM     16  O   UNL     1      36.070 -20.659 -19.330  0.00  0.00    -0.291 OA
ATOM     17  H   UNL     1      36.113 -21.204 -18.528  0.00  0.00    +0.242 HD
ENDBRANCH  11  16
ENDBRANCH   9  11
ENDBRANCH   8   9
ENDBRANCH   7   8
ENDBRANCH   5   6
BRANCH   2  18
ATOM     18  C   UNL     1      33.129 -12.697 -23.808  0.00  0.00    +0.235 C 
BRANCH  18  19
ATOM     19  O   UNL     1      32.668 -11.574 -23.073  0.00  0.00    -0.473 OA
BRANCH  19  21
ATOM     20  F   UNL     1      35.087  -6.758 -24.125  0.00  0.00    -0.204 F 
ATOM     21  C   UNL     1      33.272 -10.371 -23.335  0.00  0.00    +0.139 C 
ATOM     22  C   UNL     1      32.766  -9.209 -22.764  0.00  0.00    +0.039 C 
ATOM     23  C   UNL     1      34.383 -10.328 -24.168  0.00  0.00    +0.039 C 
ATOM     24  C   UNL     1      33.380  -7.985 -23.032  0.00  0.00    +0.033 C 
ATOM     25  C   UNL     1      34.997  -9.104 -24.436  0.00  0.00    +0.033 C 
ATOM     26  C   UNL     1      34.496  -7.932 -23.867  0.00  0.00    +0.140 C 
ENDBRANCH  19  21
ENDBRANCH  18  19
ENDBRANCH   2  18
TORSDOF 8
ENDMDL
MODEL 7
REMARK VINA RESULT:      -9.2      4.136      6.121
REMARK  Name = 9905233
REMARK  8 active torsions:
REMARK  status: ('A' for Active; 'I' for Inactive)
REMARK    1  A    between atoms: C_2  and  C_18
REMARK    2  A    between atoms: C_5  and  C_6
REMARK    3  A    between atoms: C_7  and  C_8
REMARK    4  A    between atoms: C_8  and  C_9
REMARK    5  A    between atoms: C_9  and  N_11
REMARK    6  A    between atoms: N_11  and  O_16
REMARK    7  A    between atoms: C_18  and  O_19
REMARK    8  A    between atoms: O_19  and  C_21
REMARK                            x       y       z     vdW  Elec       q    Type
REMARK                         _______ _______ _______ _____ _____    ______ ____
ROOT
ATOM      1  O   UNL     1      34.579 -22.854 -16.784  0.00  0.00    -0.342 OA
ATOM      2  C   UNL     1      35.789 -22.119 -16.539  0.00  0.00    +0.160 C 
ATOM      3  C   UNL     1      36.535 -22.890 -15.465  0.00  0.00    +0.037 C 
ATOM      4  C   UNL     1      35.394 -23.410 -14.625  0.00  0.00    +0.046 C 
ATOM      5  C   UNL     1      34.353 -23.750 -15.680  0.00  0.00    +0.178 C 
ENDROOT
BRANCH   5   6
ATOM      6  C   UNL     1      32.985 -23.605 -15.181  0.00  0.00    -0.062 C 
ATOM      7  C   UNL     1      31.861 -23.487 -14.772  0.00  0.00    -0.087 C 
BRANCH   7   8
ATOM      8  C   UNL     1      30.486 -23.345 -14.272  0.00  0.00    +0.100 C 
BRANCH   8   9
ATOM      9  C   UNL     1      29.465 -23.938 -15.236  0.00  0.00    +0.139 C 
BRANCH   9  11
ATOM     10  O   UNL     1      27.813 -24.187 -17.552  0.00  0.00    -0.251 OA
ATOM     11  N   UNL     1      28.587 -22.938 -15.783  0.00  0.00    -0.155 N 
ATOM     12  N   UNL     1      27.047 -22.053 -17.284  0.00  0.00    -0.312 N 
ATOM     13  C   UNL     1      27.820 -23.135 -16.909  0.00  0.00    +0.323 C 
ATOM     14  H   UNL     1      26.470 -22.113 -18.078  0.00  0.00    +0.147 HD
ATOM     15  H   UNL     1      27.075 -21.222 -16.756  0.00  0.00    +0.147 HD
BRANCH  11  16
ATOM     16  O   UNL     1      28.595 -21.739 -15.051  0.00  0.00    -0.291 OA
ATOM     17  H   UNL     1      27.717 -21.329 -15.093  0.00  0.00    +0.242 HD
ENDBRANCH  11  16
ENDBRANCH   9  11
ENDBRANCH   8   9
ENDBRANCH   7   8
ENDBRANCH   5   6
BRANCH   2  18
ATOM     18  C   UNL     1      36.570 -21.971 -17.830  0.00  0.00    +0.235 C 
BRANCH  18  19
ATOM     19  O   UNL     1      35.712 -22.259 -18.922  0.00  0.00    -0.473 OA
BRANCH  19  21
ATOM     20  F   UNL     1      34.080 -18.007 -21.989  0.00  0.00    -0.204 F 
ATOM     21  C   UNL     1      35.303 -21.197 -19.688  0.00  0.00    +0.139 C 
ATOM     22  C   UNL     1      33.946 -20.980 -19.896  0.00  0.00    +0.039 C 
ATOM     23  C   UNL     1      36.251 -20.350 -20.248  0.00  0.00    +0.039 C 
ATOM     24  C   UNL     1      33.532 -19.900 -20.675  0.00  0.00    +0.033 C 
ATOM     25  C   UNL     1      35.837 -19.269 -21.027  0.00  0.00    +0.033 C 
ATOM     26  C   UNL     1      34.477 -19.044 -21.241  0.00  0.00    +0.140 C 
ENDBRANCH  19  21
ENDBRANCH  18  19
ENDBRANCH   2  18
TORSDOF 8
ENDMDL
MODEL 8
REMARK VINA RESULT:      -9.2      8.553     12.501
REMARK  Name = 9905233
REMARK  8 active torsions:
REMARK  status: ('A' for Active; 'I' for Inactive)
REMARK    1  A    between atoms: C_2  and  C_18
REMARK    2  A    between atoms: C_5  and  C_6
REMARK    3  A    between atoms: C_7  and  C_8
REMARK    4  A    between atoms: C_8  and  C_9
REMARK    5  A    between atoms: C_9  and  N_11
REMARK    6  A    between atoms: N_11  and  O_16
REMARK    7  A    between atoms: C_18  and  O_19
REMARK    8  A    between atoms: O_19  and  C_21
REMARK                            x       y       z     vdW  Elec       q    Type
REMARK                         _______ _______ _______ _____ _____    ______ ____
ROOT
ATOM      1  O   UNL     1      34.288 -15.260 -21.434  0.00  0.00    -0.342 OA
ATOM      2  C   UNL     1      34.289 -16.578 -22.008  0.00  0.00    +0.160 C 
ATOM      3  C   UNL     1      34.615 -16.391 -23.479  0.00  0.00    +0.037 C 
ATOM      4  C   UNL     1      33.924 -15.081 -23.773  0.00  0.00    +0.046 C 
ATOM      5  C   UNL     1      34.180 -14.295 -22.496  0.00  0.00    +0.178 C 
ENDROOT
BRANCH   5   6
ATOM      6  C   UNL     1      33.112 -13.339 -22.205  0.00  0.00    -0.062 C 
ATOM      7  C   UNL     1      32.233 -12.554 -21.966  0.00  0.00    -0.087 C 
BRANCH   7   8
ATOM      8  C   UNL     1      31.157 -11.596 -21.673  0.00  0.00    +0.100 C 
BRANCH   8   9
ATOM      9  C   UNL     1      31.547 -10.171 -22.044  0.00  0.00    +0.139 C 
BRANCH   9  11
ATOM     10  O   UNL     1      33.162  -7.816 -21.998  0.00  0.00    -0.251 OA
ATOM     11  N   UNL     1      31.895  -9.383 -20.891  0.00  0.00    -0.155 N 
ATOM     12  N   UNL     1      32.911  -7.640 -19.736  0.00  0.00    -0.312 N 
ATOM     13  C   UNL     1      32.683  -8.256 -20.951  0.00  0.00    +0.323 C 
ATOM     14  H   UNL     1      33.465  -6.828 -19.693  0.00  0.00    +0.147 HD
ATOM     15  H   UNL     1      32.521  -8.015 -18.913  0.00  0.00    +0.147 HD
BRANCH  11  16
ATOM     16  O   UNL     1      31.348  -9.884 -19.698  0.00  0.00    -0.291 OA
ATOM     17  H   UNL     1      31.950  -9.693 -18.961  0.00  0.00    +0.242 HD
ENDBRANCH  11  16
ENDBRANCH   9  11
ENDBRANCH   8   9
ENDBRANCH   7   8
ENDBRANCH   5   6
BRANCH   2  18
ATOM     18  C   UNL     1      35.283 -17.457 -21.275  0.00  0.00    +0.235 C 
BRANCH  18  19
ATOM     19  O   UNL     1      35.223 -18.768 -21.815  0.00  0.00    -0.473 OA
BRANCH  19  21
ATOM     20  F   UNL     1      34.205 -22.861 -18.299  0.00  0.00    -0.204 F 
ATOM     21  C   UNL     1      34.970 -19.790 -20.937  0.00  0.00    +0.139 C 
ATOM     22  C   UNL     1      36.029 -20.496 -20.378  0.00  0.00    +0.039 C 
ATOM     23  C   UNL     1      33.656 -20.109 -20.615  0.00  0.00    +0.039 C 
ATOM     24  C   UNL     1      35.770 -21.536 -19.485  0.00  0.00    +0.033 C 
ATOM     25  C   UNL     1      33.397 -21.149 -19.722  0.00  0.00    +0.033 C 
ATOM     26  C   UNL     1      34.454 -21.862 -19.157  0.00  0.00    +0.140 C 
ENDBRANCH  19  21
ENDBRANCH  18  19
ENDBRANCH   2  18
TORSDOF 8
ENDMDL
MODEL 9
REMARK VINA RESULT:      -9.1      4.557      8.370
REMARK  Name = 9905233
REMARK  8 active torsions:
REMARK  status: ('A' for Active; 'I' for Inactive)
REMARK    1  A    between atoms: C_2  and  C_18
REMARK    2  A    between atoms: C_5  and  C_6
REMARK    3  A    between atoms: C_7  and  C_8
REMARK    4  A    between atoms: C_8  and  C_9
REMARK    5  A    between atoms: C_9  and  N_11
REMARK    6  A    between atoms: N_11  and  O_16
REMARK    7  A    between atoms: C_18  and  O_19
REMARK    8  A    between atoms: O_19  and  C_21
REMARK                            x       y       z     vdW  Elec       q    Type
REMARK                         _______ _______ _______ _____ _____    ______ ____
ROOT
ATOM      1  O   UNL     1      34.356 -23.328 -17.043  0.00  0.00    -0.342 OA
ATOM      2  C   UNL     1      34.004 -23.332 -15.650  0.00  0.00    +0.160 C 
ATOM      3  C   UNL     1      32.513 -23.609 -15.597  0.00  0.00    +0.037 C 
ATOM      4  C   UNL     1      32.032 -22.890 -16.834  0.00  0.00    +0.046 C 
ATOM      5  C   UNL     1      33.154 -23.173 -17.821  0.00  0.00    +0.178 C 
ENDROOT
BRANCH   5   6
ATOM      6  C   UNL     1      33.320 -22.099 -18.801  0.00  0.00    -0.062 C 
ATOM      7  C   UNL     1      33.457 -21.216 -19.604  0.00  0.00    -0.087 C 
BRANCH   7   8
ATOM      8  C   UNL     1      33.622 -20.135 -20.587  0.00  0.00    +0.100 C 
BRANCH   8   9
ATOM      9  C   UNL     1      35.087 -19.899 -20.934  0.00  0.00    +0.139 C 
BRANCH   9  11
ATOM     10  O   UNL     1      35.077 -19.342 -23.735  0.00  0.00    -0.251 OA
ATOM     11  N   UNL     1      35.299 -18.622 -21.562  0.00  0.00    -0.155 N 
ATOM     12  N   UNL     1      35.512 -17.136 -23.338  0.00  0.00    -0.312 N 
ATOM     13  C   UNL     1      35.279 -18.433 -22.926  0.00  0.00    +0.323 C 
ATOM     14  H   UNL     1      35.514 -16.918 -24.298  0.00  0.00    +0.147 HD
ATOM     15  H   UNL     1      35.676 -16.430 -22.672  0.00  0.00    +0.147 HD
BRANCH  11  16
ATOM     16  O   UNL     1      35.529 -17.588 -20.640  0.00  0.00    -0.291 OA
ATOM     17  H   UNL     1      35.516 -16.734 -21.102  0.00  0.00    +0.242 HD
ENDBRANCH  11  16
ENDBRANCH   9  11
ENDBRANCH   8   9
ENDBRANCH   7   8
ENDBRANCH   5   6
BRANCH   2  18
ATOM     18  C   UNL     1      34.838 -24.361 -14.912  0.00  0.00    +0.235 C 
BRANCH  18  19
ATOM     19  O   UNL     1      35.825 -23.689 -14.146  0.00  0.00    -0.473 OA
BRANCH  19  21
ATOM     20  F   UNL     1      40.737 -26.111 -13.749  0.00  0.00    -0.204 F 
ATOM     21  C   UNL     1      37.051 -24.295 -14.046  0.00  0.00    +0.139 C 
ATOM     22  C   UNL     1      37.400 -24.955 -12.873  0.00  0.00    +0.039 C 
ATOM     23  C   UNL     1      37.933 -24.241 -15.119  0.00  0.00    +0.039 C 
ATOM     24  C   UNL     1      38.648 -25.570 -12.772  0.00  0.00    +0.033 C 
ATOM     25  C   UNL     1      39.181 -24.857 -15.018  0.00  0.00    +0.033 C 
ATOM     26  C   UNL     1      39.539 -25.521 -13.845  0.00  0.00    +0.140 C 
ENDBRANCH  19  21
ENDBRANCH  18  19
ENDBRANCH   2  18
TORSDOF 8
ENDMDL
