MODEL 1
REMARK VINA RESULT:      -3.6      0.000      0.000
REMARK  Name = 1048
REMARK  0 active torsions:
REMARK  status: ('A' for Active; 'I' for Inactive)
REMARK                            x       y       z     vdW  Elec       q    Type
REMARK                         _______ _______ _______ _____ _____    ______ ____
ROOT
ATOM      1  N   UNL     1      32.673 -20.897 -20.144  0.00  0.00    -0.235 N 
ATOM      2  N   UNL     1      32.959 -21.976 -19.396  0.00  0.00    -0.180 NA
ATOM      3  C   UNL     1      33.773 -20.190 -20.534  0.00  0.00    +0.081 C 
ATOM      4  C   UNL     1      34.852 -20.852 -20.005  0.00  0.00    +0.040 C 
ATOM      5  C   UNL     1      34.292 -21.944 -19.314  0.00  0.00    +0.119 C 
ATOM      6  H   UNL     1      31.754 -20.641 -20.387  0.00  0.00    +0.174 HD
ENDROOT
TORSDOF 0
ENDMDL
MODEL 2
REMARK VINA RESULT:      -3.5      6.937      7.120
REMARK  Name = 1048
REMARK  0 active torsions:
REMARK  status: ('A' for Active; 'I' for Inactive)
REMARK                            x       y       z     vdW  Elec       q    Type
REMARK                         _______ _______ _______ _____ _____    ______ ____
ROOT
ATOM      1  N   UNL     1      28.319 -24.346 -16.845  0.00  0.00    -0.235 N 
ATOM      2  N   UNL     1      27.631 -23.531 -17.662  0.00  0.00    -0.180 NA
ATOM      3  C   UNL     1      28.696 -23.761 -15.671  0.00  0.00    +0.081 C 
ATOM      4  C   UNL     1      28.220 -22.474 -15.724  0.00  0.00    +0.040 C 
ATOM      5  C   UNL     1      27.573 -22.389 -16.972  0.00  0.00    +0.119 C 
ATOM      6  H   UNL     1      28.533 -25.280 -17.073  0.00  0.00    +0.174 HD
ENDROOT
TORSDOF 0
ENDMDL
MODEL 3
REMARK VINA RESULT:      -3.5      9.007      9.226
REMARK  Name = 1048
REMARK  0 active torsions:
REMARK  status: ('A' for Active; 'I' for Inactive)
REMARK                            x       y       z     vdW  Elec       q    Type
REMARK                         _______ _______ _______ _____ _____    ______ ____
ROOT
ATOM      1  N   UNL     1      37.142 -27.026 -13.705  0.00  0.00    -0.235 N 
ATOM      2  N   UNL     1      38.086 -26.943 -14.657  0.00  0.00    -0.180 NA
ATOM      3  C   UNL     1      37.287 -26.112 -12.703  0.00  0.00    +0.081 C 
ATOM      4  C   UNL     1      38.404 -25.380 -13.022  0.00  0.00    +0.040 C 
ATOM      5  C   UNL     1      38.855 -25.936 -14.234  0.00  0.00    +0.119 C 
ATOM      6  H   UNL     1      36.411 -27.686 -13.729  0.00  0.00    +0.174 HD
ENDROOT
TORSDOF 0
ENDMDL
MODEL 4
REMARK VINA RESULT:      -3.4      2.840      3.067
REMARK  Name = 1048
REMARK  0 active torsions:
REMARK  status: ('A' for Active; 'I' for Inactive)
REMARK                            x       y       z     vdW  Elec       q    Type
REMARK                         _______ _______ _______ _____ _____    ______ ____
ROOT
ATOM      1  N   UNL     1      35.714 -18.269 -20.802  0.00  0.00    -0.235 N 
ATOM      2  N   UNL     1      36.285 -19.404 -20.365  0.00  0.00    -0.180 NA
ATOM      3  C   UNL     1      34.417 -18.421 -21.197  0.00  0.00    +0.081 C 
ATOM      4  C   UNL     1      34.120 -19.747 -21.005  0.00  0.00    +0.040 C 
ATOM      5  C   UNL     1      35.306 -20.304 -20.492  0.00  0.00    +0.119 C 
ATOM      6  H   UNL     1      36.188 -17.406 -20.833  0.00  0.00    +0.174 HD
ENDROOT
TORSDOF 0
ENDMDL
MODEL 5
REMARK VINA RESULT:      -3.4      6.667      7.324
REMARK  Name = 1048
REMARK  0 active torsions:
REMARK  status: ('A' for Active; 'I' for Inactive)
REMARK                            x       y       z     vdW  Elec       q    Type
REMARK                         _______ _______ _______ _____ _____    ______ ____
ROOT
ATOM      1  N   UNL     1      35.296 -16.798 -24.530  0.00  0.00    -0.235 N 
ATOM      2  N   UNL     1      34.654 -16.747 -25.709  0.00  0.00    -0.180 NA
ATOM      3  C   UNL     1      34.811 -15.926 -23.600  0.00  0.00    +0.081 C 
ATOM      4  C   UNL     1      33.781 -15.259 -24.213  0.00  0.00    +0.040 C 
ATOM      5  C   UNL     1      33.729 -15.804 -25.510  0.00  0.00    +0.119 C 
ATOM      6  H   UNL     1      36.048 -17.409 -24.354  0.00  0.00    +0.174 HD
ENDROOT
TORSDOF 0
ENDMDL
MODEL 6
REMARK VINA RESULT:      -3.4      1.861      2.619
REMARK  Name = 1048
REMARK  0 active torsions:
REMARK  status: ('A' for Active; 'I' for Inactive)
REMARK                            x       y       z     vdW  Elec       q    Type
REMARK                         _______ _______ _______ _____ _____    ______ ____
ROOT
ATOM      1  N   UNL     1      35.075 -20.581 -19.897  0.00  0.00    -0.235 N 
ATOM      2  N   UNL     1      35.165 -19.478 -20.658  0.00  0.00    -0.180 NA
ATOM      3  C   UNL     1      33.806 -21.069 -19.781  0.00  0.00    +0.081 C 
ATOM      4  C   UNL     1      33.012 -20.226 -20.517  0.00  0.00    +0.040 C 
ATOM      5  C   UNL     1      33.901 -19.265 -21.034  0.00  0.00    +0.119 C 
ATOM      6  H   UNL     1      35.854 -20.999 -19.463  0.00  0.00    +0.174 HD
ENDROOT
TORSDOF 0
ENDMDL
MODEL 7
REMARK VINA RESULT:      -3.4      5.650      6.050
REMARK  Name = 1048
REMARK  0 active torsions:
REMARK  status: ('A' for Active; 'I' for Inactive)
REMARK                            x       y       z     vdW  Elec       q    Type
REMARK                         _______ _______ _______ _____ _____    ______ ____
ROOT
ATOM      1  N   UNL     1      35.304 -16.808 -24.347  0.00  0.00    -0.235 N 
ATOM      2  N   UNL     1      34.652 -17.256 -25.433  0.00  0.00    -0.180 NA
ATOM      3  C   UNL     1      35.381 -17.719 -23.335  0.00  0.00    +0.081 C 
ATOM      4  C   UNL     1      34.733 -18.841 -23.791  0.00  0.00    +0.040 C 
ATOM      5  C   UNL     1      34.305 -18.499 -25.088  0.00  0.00    +0.119 C 
ATOM      6  H   UNL     1      35.692 -15.905 -24.288  0.00  0.00    +0.174 HD
ENDROOT
TORSDOF 0
ENDMDL
MODEL 8
REMARK VINA RESULT:      -3.3      5.305      5.917
REMARK  Name = 1048
REMARK  0 active torsions:
REMARK  status: ('A' for Active; 'I' for Inactive)
REMARK                            x       y       z     vdW  Elec       q    Type
REMARK                         _______ _______ _______ _____ _____    ______ ____
ROOT
ATOM      1  N   UNL     1      30.490 -22.652 -16.971  0.00  0.00    -0.235 N 
ATOM      2  N   UNL     1      29.165 -22.434 -16.974  0.00  0.00    -0.180 NA
ATOM      3  C   UNL     1      30.996 -22.962 -15.743  0.00  0.00    +0.081 C 
ATOM      4  C   UNL     1      29.926 -22.945 -14.882  0.00  0.00    +0.040 C 
ATOM      5  C   UNL     1      28.825 -22.614 -15.695  0.00  0.00    +0.119 C 
ATOM      6  H   UNL     1      31.046 -22.594 -17.783  0.00  0.00    +0.174 HD
ENDROOT
TORSDOF 0
ENDMDL
MODEL 9
REMARK VINA RESULT:      -3.3      6.481      6.705
REMARK  Name = 1048
REMARK  0 active torsions:
REMARK  status: ('A' for Active; 'I' for Inactive)
REMARK                            x       y       z     vdW  Elec       q    Type
REMARK                         _______ _______ _______ _____ _____    ______ ____
ROOT
ATOM      1  N   UNL     1      27.890 -22.850 -17.416  0.00  0.00    -0.235 N 
ATOM      2  N   UNL     1      27.887 -24.193 -17.432  0.00  0.00    -0.180 NA
ATOM      3  C   UNL     1      28.568 -22.312 -16.361  0.00  0.00    +0.081 C 
ATOM      4  C   UNL     1      29.042 -23.379 -15.638  0.00  0.00    +0.040 C 
ATOM      5  C   UNL     1      28.592 -24.511 -16.343  0.00  0.00    +0.119 C 
ATOM      6  H   UNL     1      27.443 -22.304 -18.102  0.00  0.00    +0.174 HD
ENDROOT
TORSDOF 0
ENDMDL
