MODEL 1
REMARK VINA RESULT:     -10.8      0.000      0.000
REMARK  Name = 4474
REMARK  11 active torsions:
REMARK  status: ('A' for Active; 'I' for Inactive)
REMARK    1  A    between atoms: C_2  and  C_10
REMARK    2  A    between atoms: C_3  and  C_20
REMARK    3  A    between atoms: C_4  and  C_35
REMARK    4  A    between atoms: C_13  and  N_18
REMARK    5  A    between atoms: C_20  and  O_21
REMARK    6  A    between atoms: O_21  and  C_22
REMARK    7  A    between atoms: C_22  and  C_23
REMARK    8  A    between atoms: C_23  and  N_24
REMARK    9  A    between atoms: N_24  and  C_27
REMARK   10  A    between atoms: C_27  and  C_28
REMARK   11  A    between atoms: C_35  and  O_36
REMARK                            x       y       z     vdW  Elec       q    Type
REMARK                         _______ _______ _______ _____ _____    ______ ____
ROOT
ATOM      1  N   UNL     1      32.876 -23.629 -15.378  0.00  0.00    -0.334 N 
ATOM      2  C   UNL     1      35.626 -23.500 -14.709  0.00  0.00    +0.011 C 
ATOM      3  C   UNL     1      35.068 -23.068 -16.070  0.00  0.00    +0.071 C 
ATOM      4  C   UNL     1      34.530 -23.853 -13.699  0.00  0.00    +0.085 C 
ATOM      5  C   UNL     1      33.748 -23.161 -16.348  0.00  0.00    +0.098 C 
ATOM      6  C   UNL     1      33.232 -23.928 -14.072  0.00  0.00    +0.028 C 
ATOM      7  C   UNL     1      33.105 -22.801 -17.660  0.00  0.00    +0.026 C 
ATOM      8  C   UNL     1      32.087 -24.315 -13.176  0.00  0.00    +0.047 C 
ATOM      9  H   UNL     1      31.935 -23.759 -15.636  0.00  0.00    +0.147 HD
ENDROOT
BRANCH   2  10
ATOM     10  C   UNL     1      36.554 -24.668 -14.885  0.00  0.00    +0.002 C 
ATOM     11  C   UNL     1      37.921 -24.515 -14.651  0.00  0.00    +0.024 C 
ATOM     12  C   UNL     1      36.050 -25.906 -15.284  0.00  0.00    +0.000 C 
ATOM     13  C   UNL     1      38.782 -25.600 -14.814  0.00  0.00    +0.143 C 
ATOM     14  C   UNL     1      36.911 -26.991 -15.448  0.00  0.00    +0.002 C 
ATOM     15  C   UNL     1      38.278 -26.838 -15.213  0.00  0.00    +0.024 C 
BRANCH  13  18
ATOM     16  O   UNL     1      40.985 -26.133 -15.241  0.00  0.00    -0.126 OA
ATOM     17  O   UNL     1      40.553 -24.626 -13.704  0.00  0.00    -0.126 OA
ATOM     18  N   UNL     1      40.174 -25.446 -14.575  0.00  0.00    +0.058 N 
ENDBRANCH  13  18
ENDBRANCH   2  10
BRANCH   3  20
ATOM     19  O   UNL     1      37.117 -22.053 -16.694  0.00  0.00    -0.245 OA
ATOM     20  C   UNL     1      36.030 -22.491 -17.023  0.00  0.00    +0.339 C 
BRANCH  20  21
ATOM     21  O   UNL     1      35.490 -22.545 -18.264  0.00  0.00    -0.448 OA
BRANCH  21  22
ATOM     22  C   UNL     1      36.069 -21.651 -19.219  0.00  0.00    +0.186 C 
BRANCH  22  23
ATOM     23  C   UNL     1      34.952 -20.946 -19.970  0.00  0.00    -0.029 C 
BRANCH  23  24
ATOM     24  N   UNL     1      35.497 -20.014 -20.947  0.00  0.00    +0.391 N 
ATOM     25  C   UNL     1      36.865 -19.632 -20.590  0.00  0.00    -0.100 C 
ATOM     26  H   UNL     1      35.517 -20.485 -21.853  0.00  0.00    -0.079 HD
BRANCH  24  27
ATOM     27  C   UNL     1      34.651 -18.824 -21.058  0.00  0.00    -0.050 C 
BRANCH  27  28
ATOM     28  C   UNL     1      34.679 -18.243 -22.446  0.00  0.00    -0.043 C 
ATOM     29  C   UNL     1      34.590 -19.083 -23.555  0.00  0.00    -0.006 C 
ATOM     30  C   UNL     1      34.794 -16.863 -22.622  0.00  0.00    -0.006 C 
ATOM     31  C   UNL     1      34.616 -18.544 -24.842  0.00  0.00    -0.000 C 
ATOM     32  C   UNL     1      34.820 -16.325 -23.909  0.00  0.00    -0.000 C 
ATOM     33  C   UNL     1      34.730 -17.165 -25.019  0.00  0.00    -0.000 C 
ENDBRANCH  27  28
ENDBRANCH  24  27
ENDBRANCH  23  24
ENDBRANCH  22  23
ENDBRANCH  21  22
ENDBRANCH  20  21
ENDBRANCH   3  20
BRANCH   4  35
ATOM     34  O   UNL     1      34.609 -25.002 -11.628  0.00  0.00    -0.245 OA
ATOM     35  C   UNL     1      34.957 -24.052 -12.305  0.00  0.00    +0.342 C 
BRANCH  35  36
ATOM     36  O   UNL     1      35.767 -23.024 -11.955  0.00  0.00    -0.441 OA
ATOM     37  C   UNL     1      36.950 -23.399 -11.243  0.00  0.00    +0.256 C 
ENDBRANCH  35  36
ENDBRANCH   4  35
TORSDOF 11
ENDMDL
MODEL 2
REMARK VINA RESULT:     -10.2      9.789     15.124
REMARK  Name = 4474
REMARK  11 active torsions:
REMARK  status: ('A' for Active; 'I' for Inactive)
REMARK    1  A    between atoms: C_2  and  C_10
REMARK    2  A    between atoms: C_3  and  C_20
REMARK    3  A    between atoms: C_4  and  C_35
REMARK    4  A    between atoms: C_13  and  N_18
REMARK    5  A    between atoms: C_20  and  O_21
REMARK    6  A    between atoms: O_21  and  C_22
REMARK    7  A    between atoms: C_22  and  C_23
REMARK    8  A    between atoms: C_23  and  N_24
REMARK    9  A    between atoms: N_24  and  C_27
REMARK   10  A    between atoms: C_27  and  C_28
REMARK   11  A    between atoms: C_35  and  O_36
REMARK                            x       y       z     vdW  Elec       q    Type
REMARK                         _______ _______ _______ _____ _____    ______ ____
ROOT
ATOM      1  N   UNL     1      32.119  -7.873 -20.434  0.00  0.00    -0.334 N 
ATOM      2  C   UNL     1      31.730  -9.252 -22.879  0.00  0.00    +0.011 C 
ATOM      3  C   UNL     1      31.726  -9.944 -21.510  0.00  0.00    +0.071 C 
ATOM      4  C   UNL     1      31.803  -7.725 -22.776  0.00  0.00    +0.085 C 
ATOM      5  C   UNL     1      31.930  -9.244 -20.371  0.00  0.00    +0.098 C 
ATOM      6  C   UNL     1      32.017  -7.113 -21.589  0.00  0.00    +0.028 C 
ATOM      7  C   UNL     1      31.983  -9.830 -18.986  0.00  0.00    +0.026 C 
ATOM      8  C   UNL     1      32.156  -5.629 -21.385  0.00  0.00    +0.047 C 
ATOM      9  H   UNL     1      32.343  -7.405 -19.598  0.00  0.00    +0.147 HD
ENDROOT
BRANCH   2  10
ATOM     10  C   UNL     1      32.874  -9.764 -23.707  0.00  0.00    +0.002 C 
ATOM     11  C   UNL     1      32.723 -10.926 -24.463  0.00  0.00    +0.024 C 
ATOM     12  C   UNL     1      34.088  -9.078 -23.718  0.00  0.00    +0.000 C 
ATOM     13  C   UNL     1      33.786 -11.400 -25.232  0.00  0.00    +0.143 C 
ATOM     14  C   UNL     1      35.151  -9.552 -24.486  0.00  0.00    +0.002 C 
ATOM     15  C   UNL     1      35.000 -10.714 -25.244  0.00  0.00    +0.024 C 
BRANCH  13  18
ATOM     16  O   UNL     1      33.951 -12.563 -27.218  0.00  0.00    -0.126 OA
ATOM     17  O   UNL     1      33.184 -13.616 -25.451  0.00  0.00    -0.126 OA
ATOM     18  N   UNL     1      33.633 -12.583 -26.004  0.00  0.00    +0.058 N 
ENDBRANCH  13  18
ENDBRANCH   2  10
BRANCH   3  20
ATOM     19  O   UNL     1      30.295 -11.832 -21.558  0.00  0.00    -0.245 OA
ATOM     20  C   UNL     1      31.426 -11.385 -21.502  0.00  0.00    +0.339 C 
BRANCH  20  21
ATOM     21  O   UNL     1      32.594 -12.066 -21.424  0.00  0.00    -0.448 OA
BRANCH  21  22
ATOM     22  C   UNL     1      32.487 -13.401 -20.920  0.00  0.00    +0.186 C 
BRANCH  22  23
ATOM     23  C   UNL     1      32.693 -14.375 -22.068  0.00  0.00    -0.029 C 
BRANCH  23  24
ATOM     24  N   UNL     1      33.746 -15.329 -21.750  0.00  0.00    +0.391 N 
ATOM     25  C   UNL     1      34.475 -14.914 -20.550  0.00  0.00    -0.100 C 
ATOM     26  H   UNL     1      33.306 -16.232 -21.568  0.00  0.00    -0.079 HD
BRANCH  24  27
ATOM     27  C   UNL     1      34.669 -15.478 -22.878  0.00  0.00    -0.050 C 
BRANCH  27  28
ATOM     28  C   UNL     1      34.685 -16.887 -23.407  0.00  0.00    -0.043 C 
ATOM     29  C   UNL     1      34.534 -17.120 -24.774  0.00  0.00    -0.006 C 
ATOM     30  C   UNL     1      34.850 -17.960 -22.530  0.00  0.00    -0.006 C 
ATOM     31  C   UNL     1      34.549 -18.426 -25.265  0.00  0.00    -0.000 C 
ATOM     32  C   UNL     1      34.865 -19.266 -23.021  0.00  0.00    -0.000 C 
ATOM     33  C   UNL     1      34.716 -19.499 -24.389  0.00  0.00    -0.000 C 
ENDBRANCH  27  28
ENDBRANCH  24  27
ENDBRANCH  23  24
ENDBRANCH  22  23
ENDBRANCH  21  22
ENDBRANCH  20  21
ENDBRANCH   3  20
BRANCH   4  35
ATOM     34  O   UNL     1      30.541  -7.022 -24.655  0.00  0.00    -0.245 OA
ATOM     35  C   UNL     1      31.577  -6.969 -24.018  0.00  0.00    +0.342 C 
BRANCH  35  36
ATOM     36  O   UNL     1      32.692  -6.248 -24.287  0.00  0.00    -0.441 OA
ATOM     37  C   UNL     1      32.492  -5.119 -25.143  0.00  0.00    +0.256 C 
ENDBRANCH  35  36
ENDBRANCH   4  35
TORSDOF 11
ENDMDL
MODEL 3
REMARK VINA RESULT:     -10.1      2.592      5.313
REMARK  Name = 4474
REMARK  11 active torsions:
REMARK  status: ('A' for Active; 'I' for Inactive)
REMARK    1  A    between atoms: C_2  and  C_10
REMARK    2  A    between atoms: C_3  and  C_20
REMARK    3  A    between atoms: C_4  and  C_35
REMARK    4  A    between atoms: C_13  and  N_18
REMARK    5  A    between atoms: C_20  and  O_21
REMARK    6  A    between atoms: O_21  and  C_22
REMARK    7  A    between atoms: C_22  and  C_23
REMARK    8  A    between atoms: C_23  and  N_24
REMARK    9  A    between atoms: N_24  and  C_27
REMARK   10  A    between atoms: C_27  and  C_28
REMARK   11  A    between atoms: C_35  and  O_36
REMARK                            x       y       z     vdW  Elec       q    Type
REMARK                         _______ _______ _______ _____ _____    ______ ____
ROOT
ATOM      1  N   UNL     1      36.904 -22.250 -16.654  0.00  0.00    -0.334 N 
ATOM      2  C   UNL     1      34.519 -23.776 -16.751  0.00  0.00    +0.011 C 
ATOM      3  C   UNL     1      34.895 -22.731 -17.808  0.00  0.00    +0.071 C 
ATOM      4  C   UNL     1      35.637 -24.024 -15.733  0.00  0.00    +0.085 C 
ATOM      5  C   UNL     1      36.038 -22.016 -17.711  0.00  0.00    +0.098 C 
ATOM      6  C   UNL     1      36.746 -23.250 -15.708  0.00  0.00    +0.028 C 
ATOM      7  C   UNL     1      36.481 -20.944 -18.669  0.00  0.00    +0.026 C 
ATOM      8  C   UNL     1      37.875 -23.375 -14.722  0.00  0.00    +0.047 C 
ATOM      9  H   UNL     1      37.688 -21.660 -16.568  0.00  0.00    +0.147 HD
ENDROOT
BRANCH   2  10
ATOM     10  C   UNL     1      33.264 -23.357 -16.041  0.00  0.00    +0.002 C 
ATOM     11  C   UNL     1      32.024 -23.527 -16.657  0.00  0.00    +0.024 C 
ATOM     12  C   UNL     1      33.338 -22.797 -14.766  0.00  0.00    +0.000 C 
ATOM     13  C   UNL     1      30.858 -23.138 -15.996  0.00  0.00    +0.143 C 
ATOM     14  C   UNL     1      32.173 -22.407 -14.106  0.00  0.00    +0.002 C 
ATOM     15  C   UNL     1      30.932 -22.578 -14.721  0.00  0.00    +0.024 C 
BRANCH  13  18
ATOM     16  O   UNL     1      29.061 -22.333 -17.197  0.00  0.00    -0.126 OA
ATOM     17  O   UNL     1      29.047 -24.440 -16.582  0.00  0.00    -0.126 OA
ATOM     18  N   UNL     1      29.595 -23.312 -16.622  0.00  0.00    +0.058 N 
ENDBRANCH  13  18
ENDBRANCH   2  10
BRANCH   3  20
ATOM     19  O   UNL     1      33.802 -23.480 -19.773  0.00  0.00    -0.245 OA
ATOM     20  C   UNL     1      33.982 -22.597 -18.955  0.00  0.00    +0.339 C 
BRANCH  20  21
ATOM     21  O   UNL     1      33.420 -21.365 -18.914  0.00  0.00    -0.448 OA
BRANCH  21  22
ATOM     22  C   UNL     1      33.202 -20.753 -20.189  0.00  0.00    +0.186 C 
BRANCH  22  23
ATOM     23  C   UNL     1      34.494 -20.093 -20.642  0.00  0.00    -0.029 C 
BRANCH  23  24
ATOM     24  N   UNL     1      34.215 -18.978 -21.536  0.00  0.00    +0.391 N 
ATOM     25  C   UNL     1      34.576 -19.318 -22.915  0.00  0.00    -0.100 C 
ATOM     26  H   UNL     1      33.213 -18.789 -21.500  0.00  0.00    -0.079 HD
BRANCH  24  27
ATOM     27  C   UNL     1      34.934 -17.776 -21.106  0.00  0.00    -0.050 C 
BRANCH  27  28
ATOM     28  C   UNL     1      34.276 -16.519 -21.610  0.00  0.00    -0.043 C 
ATOM     29  C   UNL     1      34.815 -15.839 -22.701  0.00  0.00    -0.006 C 
ATOM     30  C   UNL     1      33.127 -16.034 -20.984  0.00  0.00    -0.006 C 
ATOM     31  C   UNL     1      34.206 -14.674 -23.168  0.00  0.00    -0.000 C 
ATOM     32  C   UNL     1      32.518 -14.869 -21.450  0.00  0.00    -0.000 C 
ATOM     33  C   UNL     1      33.057 -14.190 -22.543  0.00  0.00    -0.000 C 
ENDBRANCH  27  28
ENDBRANCH  24  27
ENDBRANCH  23  24
ENDBRANCH  22  23
ENDBRANCH  21  22
ENDBRANCH  20  21
ENDBRANCH   3  20
BRANCH   4  35
ATOM     34  O   UNL     1      35.119 -25.057 -13.664  0.00  0.00    -0.245 OA
ATOM     35  C   UNL     1      35.460 -25.171 -14.827  0.00  0.00    +0.342 C 
BRANCH  35  36
ATOM     36  O   UNL     1      35.739 -26.305 -15.514  0.00  0.00    -0.441 OA
ATOM     37  C   UNL     1      36.967 -26.946 -15.154  0.00  0.00    +0.256 C 
ENDBRANCH  35  36
ENDBRANCH   4  35
TORSDOF 11
ENDMDL
MODEL 4
REMARK VINA RESULT:      -9.5      1.988      2.839
REMARK  Name = 4474
REMARK  11 active torsions:
REMARK  status: ('A' for Active; 'I' for Inactive)
REMARK    1  A    between atoms: C_2  and  C_10
REMARK    2  A    between atoms: C_3  and  C_20
REMARK    3  A    between atoms: C_4  and  C_35
REMARK    4  A    between atoms: C_13  and  N_18
REMARK    5  A    between atoms: C_20  and  O_21
REMARK    6  A    between atoms: O_21  and  C_22
REMARK    7  A    between atoms: C_22  and  C_23
REMARK    8  A    between atoms: C_23  and  N_24
REMARK    9  A    between atoms: N_24  and  C_27
REMARK   10  A    between atoms: C_27  and  C_28
REMARK   11  A    between atoms: C_35  and  O_36
REMARK                            x       y       z     vdW  Elec       q    Type
REMARK                         _______ _______ _______ _____ _____    ______ ____
ROOT
ATOM      1  N   UNL     1      32.563 -23.650 -17.702  0.00  0.00    -0.334 N 
ATOM      2  C   UNL     1      34.344 -22.787 -15.674  0.00  0.00    +0.011 C 
ATOM      3  C   UNL     1      34.686 -22.750 -17.168  0.00  0.00    +0.071 C 
ATOM      4  C   UNL     1      32.888 -23.182 -15.405  0.00  0.00    +0.085 C 
ATOM      5  C   UNL     1      33.808 -23.186 -18.099  0.00  0.00    +0.098 C 
ATOM      6  C   UNL     1      32.084 -23.614 -16.403  0.00  0.00    +0.028 C 
ATOM      7  C   UNL     1      34.058 -23.229 -19.582  0.00  0.00    +0.026 C 
ATOM      8  C   UNL     1      30.660 -24.074 -16.240  0.00  0.00    +0.047 C 
ATOM      9  H   UNL     1      31.978 -24.033 -18.395  0.00  0.00    +0.147 HD
ENDROOT
BRANCH   2  10
ATOM     10  C   UNL     1      35.270 -23.728 -14.960  0.00  0.00    +0.002 C 
ATOM     11  C   UNL     1      36.007 -23.284 -13.863  0.00  0.00    +0.024 C 
ATOM     12  C   UNL     1      35.395 -25.048 -15.395  0.00  0.00    +0.000 C 
ATOM     13  C   UNL     1      36.867 -24.160 -13.200  0.00  0.00    +0.143 C 
ATOM     14  C   UNL     1      36.255 -25.924 -14.733  0.00  0.00    +0.002 C 
ATOM     15  C   UNL     1      36.992 -25.480 -13.635  0.00  0.00    +0.024 C 
BRANCH  13  18
ATOM     16  O   UNL     1      37.994 -22.513 -12.043  0.00  0.00    -0.126 OA
ATOM     17  O   UNL     1      37.884 -24.520 -11.162  0.00  0.00    -0.126 OA
ATOM     18  N   UNL     1      37.618 -23.709 -12.081  0.00  0.00    +0.058 N 
ENDBRANCH  13  18
ENDBRANCH   2  10
BRANCH   3  20
ATOM     19  O   UNL     1      37.049 -22.580 -17.118  0.00  0.00    -0.245 OA
ATOM     20  C   UNL     1      35.984 -22.159 -17.531  0.00  0.00    +0.339 C 
BRANCH  20  21
ATOM     21  O   UNL     1      35.762 -21.118 -18.368  0.00  0.00    -0.448 OA
BRANCH  21  22
ATOM     22  C   UNL     1      36.385 -21.226 -19.652  0.00  0.00    +0.186 C 
BRANCH  22  23
ATOM     23  C   UNL     1      36.789 -19.838 -20.118  0.00  0.00    -0.029 C 
BRANCH  23  24
ATOM     24  N   UNL     1      35.643 -19.124 -20.665  0.00  0.00    +0.391 N 
ATOM     25  C   UNL     1      34.572 -20.059 -21.017  0.00  0.00    -0.100 C 
ATOM     26  H   UNL     1      35.297 -18.489 -19.945  0.00  0.00    -0.079 HD
BRANCH  24  27
ATOM     27  C   UNL     1      36.033 -18.335 -21.835  0.00  0.00    -0.050 C 
BRANCH  27  28
ATOM     28  C   UNL     1      35.318 -17.012 -21.884  0.00  0.00    -0.043 C 
ATOM     29  C   UNL     1      35.105 -16.379 -23.108  0.00  0.00    -0.006 C 
ATOM     30  C   UNL     1      34.869 -16.418 -20.703  0.00  0.00    -0.006 C 
ATOM     31  C   UNL     1      34.442 -15.152 -23.153  0.00  0.00    -0.000 C 
ATOM     32  C   UNL     1      34.207 -15.191 -20.748  0.00  0.00    -0.000 C 
ATOM     33  C   UNL     1      33.992 -14.558 -21.974  0.00  0.00    -0.000 C 
ENDBRANCH  27  28
ENDBRANCH  24  27
ENDBRANCH  23  24
ENDBRANCH  22  23
ENDBRANCH  21  22
ENDBRANCH  20  21
ENDBRANCH   3  20
BRANCH   4  35
ATOM     34  O   UNL     1      31.828 -22.021 -13.631  0.00  0.00    -0.245 OA
ATOM     35  C   UNL     1      32.405 -23.018 -14.024  0.00  0.00    +0.342 C 
BRANCH  35  36
ATOM     36  O   UNL     1      32.716 -24.137 -13.327  0.00  0.00    -0.441 OA
ATOM     37  C   UNL     1      31.683 -25.126 -13.275  0.00  0.00    +0.256 C 
ENDBRANCH  35  36
ENDBRANCH   4  35
TORSDOF 11
ENDMDL
MODEL 5
REMARK VINA RESULT:      -9.1      1.821      2.699
REMARK  Name = 4474
REMARK  11 active torsions:
REMARK  status: ('A' for Active; 'I' for Inactive)
REMARK    1  A    between atoms: C_2  and  C_10
REMARK    2  A    between atoms: C_3  and  C_20
REMARK    3  A    between atoms: C_4  and  C_35
REMARK    4  A    between atoms: C_13  and  N_18
REMARK    5  A    between atoms: C_20  and  O_21
REMARK    6  A    between atoms: O_21  and  C_22
REMARK    7  A    between atoms: C_22  and  C_23
REMARK    8  A    between atoms: C_23  and  N_24
REMARK    9  A    between atoms: N_24  and  C_27
REMARK   10  A    between atoms: C_27  and  C_28
REMARK   11  A    between atoms: C_35  and  O_36
REMARK                            x       y       z     vdW  Elec       q    Type
REMARK                         _______ _______ _______ _____ _____    ______ ____
ROOT
ATOM      1  N   UNL     1      32.443 -23.788 -17.456  0.00  0.00    -0.334 N 
ATOM      2  C   UNL     1      34.133 -22.926 -15.351  0.00  0.00    +0.011 C 
ATOM      3  C   UNL     1      34.528 -22.858 -16.831  0.00  0.00    +0.071 C 
ATOM      4  C   UNL     1      32.676 -23.353 -15.142  0.00  0.00    +0.085 C 
ATOM      5  C   UNL     1      33.692 -23.295 -17.800  0.00  0.00    +0.098 C 
ATOM      6  C   UNL     1      31.917 -23.783 -16.175  0.00  0.00    +0.028 C 
ATOM      7  C   UNL     1      33.997 -23.307 -19.274  0.00  0.00    +0.026 C 
ATOM      8  C   UNL     1      30.498 -24.272 -16.071  0.00  0.00    +0.047 C 
ATOM      9  H   UNL     1      31.890 -24.169 -18.176  0.00  0.00    +0.147 HD
ENDROOT
BRANCH   2  10
ATOM     10  C   UNL     1      35.051 -23.863 -14.620  0.00  0.00    +0.002 C 
ATOM     11  C   UNL     1      35.620 -24.946 -15.288  0.00  0.00    +0.024 C 
ATOM     12  C   UNL     1      35.335 -23.649 -13.271  0.00  0.00    +0.000 C 
ATOM     13  C   UNL     1      36.473 -25.815 -14.608  0.00  0.00    +0.143 C 
ATOM     14  C   UNL     1      36.187 -24.518 -12.590  0.00  0.00    +0.002 C 
ATOM     15  C   UNL     1      36.756 -25.602 -13.259  0.00  0.00    +0.024 C 
BRANCH  13  18
ATOM     16  O   UNL     1      38.107 -27.427 -14.834  0.00  0.00    -0.126 OA
ATOM     17  O   UNL     1      36.496 -27.356 -16.324  0.00  0.00    -0.126 OA
ATOM     18  N   UNL     1      37.053 -26.919 -15.288  0.00  0.00    +0.058 N 
ENDBRANCH  13  18
ENDBRANCH   2  10
BRANCH   3  20
ATOM     19  O   UNL     1      36.578 -21.803 -16.284  0.00  0.00    -0.245 OA
ATOM     20  C   UNL     1      35.827 -22.237 -17.138  0.00  0.00    +0.339 C 
BRANCH  20  21
ATOM     21  O   UNL     1      36.001 -22.249 -18.481  0.00  0.00    -0.448 OA
BRANCH  21  22
ATOM     22  C   UNL     1      36.403 -21.001 -19.053  0.00  0.00    +0.186 C 
BRANCH  22  23
ATOM     23  C   UNL     1      35.381 -20.591 -20.100  0.00  0.00    -0.029 C 
BRANCH  23  24
ATOM     24  N   UNL     1      35.975 -19.679 -21.069  0.00  0.00    +0.391 N 
ATOM     25  C   UNL     1      37.372 -19.402 -20.729  0.00  0.00    -0.100 C 
ATOM     26  H   UNL     1      35.946 -20.131 -21.984  0.00  0.00    -0.079 HD
BRANCH  24  27
ATOM     27  C   UNL     1      35.213 -18.430 -21.140  0.00  0.00    -0.050 C 
BRANCH  27  28
ATOM     28  C   UNL     1      34.951 -18.014 -22.562  0.00  0.00    -0.043 C 
ATOM     29  C   UNL     1      34.935 -16.661 -22.901  0.00  0.00    -0.006 C 
ATOM     30  C   UNL     1      34.723 -18.981 -23.542  0.00  0.00    -0.006 C 
ATOM     31  C   UNL     1      34.692 -16.274 -24.219  0.00  0.00    -0.000 C 
ATOM     32  C   UNL     1      34.480 -18.594 -24.861  0.00  0.00    -0.000 C 
ATOM     33  C   UNL     1      34.465 -17.240 -25.199  0.00  0.00    -0.000 C 
ENDBRANCH  27  28
ENDBRANCH  24  27
ENDBRANCH  23  24
ENDBRANCH  22  23
ENDBRANCH  21  22
ENDBRANCH  20  21
ENDBRANCH   3  20
BRANCH   4  35
ATOM     34  O   UNL     1      31.901 -22.149 -13.253  0.00  0.00    -0.245 OA
ATOM     35  C   UNL     1      32.141 -23.222 -13.777  0.00  0.00    +0.342 C 
BRANCH  35  36
ATOM     36  O   UNL     1      31.981 -24.463 -13.259  0.00  0.00    -0.441 OA
ATOM     37  C   UNL     1      30.643 -24.793 -12.875  0.00  0.00    +0.256 C 
ENDBRANCH  35  36
ENDBRANCH   4  35
TORSDOF 11
ENDMDL
MODEL 6
REMARK VINA RESULT:      -9.0      2.268      4.734
REMARK  Name = 4474
REMARK  11 active torsions:
REMARK  status: ('A' for Active; 'I' for Inactive)
REMARK    1  A    between atoms: C_2  and  C_10
REMARK    2  A    between atoms: C_3  and  C_20
REMARK    3  A    between atoms: C_4  and  C_35
REMARK    4  A    between atoms: C_13  and  N_18
REMARK    5  A    between atoms: C_20  and  O_21
REMARK    6  A    between atoms: O_21  and  C_22
REMARK    7  A    between atoms: C_22  and  C_23
REMARK    8  A    between atoms: C_23  and  N_24
REMARK    9  A    between atoms: N_24  and  C_27
REMARK   10  A    between atoms: C_27  and  C_28
REMARK   11  A    between atoms: C_35  and  O_36
REMARK                            x       y       z     vdW  Elec       q    Type
REMARK                         _______ _______ _______ _____ _____    ______ ____
ROOT
ATOM      1  N   UNL     1      36.968 -22.058 -16.397  0.00  0.00    -0.334 N 
ATOM      2  C   UNL     1      34.722 -23.726 -16.845  0.00  0.00    +0.011 C 
ATOM      3  C   UNL     1      35.186 -22.653 -17.836  0.00  0.00    +0.071 C 
ATOM      4  C   UNL     1      35.689 -23.913 -15.671  0.00  0.00    +0.085 C 
ATOM      5  C   UNL     1      36.257 -21.871 -17.571  0.00  0.00    +0.098 C 
ATOM      6  C   UNL     1      36.733 -23.073 -15.483  0.00  0.00    +0.028 C 
ATOM      7  C   UNL     1      36.771 -20.767 -18.456  0.00  0.00    +0.026 C 
ATOM      8  C   UNL     1      37.709 -23.136 -14.340  0.00  0.00    +0.047 C 
ATOM      9  H   UNL     1      37.694 -21.423 -16.197  0.00  0.00    +0.147 HD
ENDROOT
BRANCH   2  10
ATOM     10  C   UNL     1      33.352 -23.389 -16.330  0.00  0.00    +0.002 C 
ATOM     11  C   UNL     1      33.078 -23.474 -14.966  0.00  0.00    +0.024 C 
ATOM     12  C   UNL     1      32.352 -22.991 -17.218  0.00  0.00    +0.000 C 
ATOM     13  C   UNL     1      31.806 -23.160 -14.489  0.00  0.00    +0.143 C 
ATOM     14  C   UNL     1      31.079 -22.678 -16.742  0.00  0.00    +0.002 C 
ATOM     15  C   UNL     1      30.806 -22.763 -15.376  0.00  0.00    +0.024 C 
BRANCH  13  18
ATOM     16  O   UNL     1      30.623 -24.024 -12.706  0.00  0.00    -0.126 OA
ATOM     17  O   UNL     1      32.190 -22.541 -12.301  0.00  0.00    -0.126 OA
ATOM     18  N   UNL     1      31.526 -23.246 -13.098  0.00  0.00    +0.058 N 
ENDBRANCH  13  18
ENDBRANCH   2  10
BRANCH   3  20
ATOM     19  O   UNL     1      34.228 -23.529 -19.819  0.00  0.00    -0.245 OA
ATOM     20  C   UNL     1      34.448 -22.566 -19.106  0.00  0.00    +0.339 C 
BRANCH  20  21
ATOM     21  O   UNL     1      34.087 -21.276 -19.306  0.00  0.00    -0.448 OA
BRANCH  21  22
ATOM     22  C   UNL     1      34.256 -20.797 -20.643  0.00  0.00    +0.186 C 
BRANCH  22  23
ATOM     23  C   UNL     1      34.009 -19.298 -20.661  0.00  0.00    -0.029 C 
BRANCH  23  24
ATOM     24  N   UNL     1      34.952 -18.632 -21.550  0.00  0.00    +0.391 N 
ATOM     25  C   UNL     1      36.331 -18.932 -21.159  0.00  0.00    -0.100 C 
ATOM     26  H   UNL     1      34.797 -18.986 -22.494  0.00  0.00    -0.079 HD
BRANCH  24  27
ATOM     27  C   UNL     1      34.729 -17.184 -21.551  0.00  0.00    -0.050 C 
BRANCH  27  28
ATOM     28  C   UNL     1      34.418 -16.666 -22.929  0.00  0.00    -0.043 C 
ATOM     29  C   UNL     1      33.810 -15.420 -23.085  0.00  0.00    -0.006 C 
ATOM     30  C   UNL     1      34.736 -17.432 -24.051  0.00  0.00    -0.006 C 
ATOM     31  C   UNL     1      33.520 -14.940 -24.362  0.00  0.00    -0.000 C 
ATOM     32  C   UNL     1      34.447 -16.951 -25.329  0.00  0.00    -0.000 C 
ATOM     33  C   UNL     1      33.840 -15.704 -25.484  0.00  0.00    -0.000 C 
ENDBRANCH  27  28
ENDBRANCH  24  27
ENDBRANCH  23  24
ENDBRANCH  22  23
ENDBRANCH  21  22
ENDBRANCH  20  21
ENDBRANCH   3  20
BRANCH   4  35
ATOM     34  O   UNL     1      35.114 -24.976 -13.633  0.00  0.00    -0.245 OA
ATOM     35  C   UNL     1      35.451 -25.074 -14.799  0.00  0.00    +0.342 C 
BRANCH  35  36
ATOM     36  O   UNL     1      35.669 -26.201 -15.518  0.00  0.00    -0.441 OA
ATOM     37  C   UNL     1      36.916 -26.853 -15.261  0.00  0.00    +0.256 C 
ENDBRANCH  35  36
ENDBRANCH   4  35
TORSDOF 11
ENDMDL
MODEL 7
REMARK VINA RESULT:      -8.9      7.338     13.679
REMARK  Name = 4474
REMARK  11 active torsions:
REMARK  status: ('A' for Active; 'I' for Inactive)
REMARK    1  A    between atoms: C_2  and  C_10
REMARK    2  A    between atoms: C_3  and  C_20
REMARK    3  A    between atoms: C_4  and  C_35
REMARK    4  A    between atoms: C_13  and  N_18
REMARK    5  A    between atoms: C_20  and  O_21
REMARK    6  A    between atoms: O_21  and  C_22
REMARK    7  A    between atoms: C_22  and  C_23
REMARK    8  A    between atoms: C_23  and  N_24
REMARK    9  A    between atoms: N_24  and  C_27
REMARK   10  A    between atoms: C_27  and  C_28
REMARK   11  A    between atoms: C_35  and  O_36
REMARK                            x       y       z     vdW  Elec       q    Type
REMARK                         _______ _______ _______ _____ _____    ______ ____
ROOT
ATOM      1  N   UNL     1      32.684 -13.009 -20.334  0.00  0.00    -0.334 N 
ATOM      2  C   UNL     1      32.335 -12.259 -23.044  0.00  0.00    +0.011 C 
ATOM      3  C   UNL     1      32.995 -13.573 -22.611  0.00  0.00    +0.071 C 
ATOM      4  C   UNL     1      31.740 -11.475 -21.869  0.00  0.00    +0.085 C 
ATOM      5  C   UNL     1      33.152 -13.881 -21.304  0.00  0.00    +0.098 C 
ATOM      6  C   UNL     1      31.958 -11.857 -20.590  0.00  0.00    +0.028 C 
ATOM      7  C   UNL     1      33.818 -15.123 -20.774  0.00  0.00    +0.026 C 
ATOM      8  C   UNL     1      31.465 -11.133 -19.367  0.00  0.00    +0.047 C 
ATOM      9  H   UNL     1      32.883 -13.224 -19.394  0.00  0.00    +0.147 HD
ENDROOT
BRANCH   2  10
ATOM     10  C   UNL     1      33.328 -11.405 -23.778  0.00  0.00    +0.002 C 
ATOM     11  C   UNL     1      33.564 -10.095 -23.363  0.00  0.00    +0.024 C 
ATOM     12  C   UNL     1      34.014 -11.923 -24.877  0.00  0.00    +0.000 C 
ATOM     13  C   UNL     1      34.487  -9.303 -24.046  0.00  0.00    +0.143 C 
ATOM     14  C   UNL     1      34.936 -11.131 -25.561  0.00  0.00    +0.002 C 
ATOM     15  C   UNL     1      35.174  -9.820 -25.145  0.00  0.00    +0.024 C 
BRANCH  13  18
ATOM     16  O   UNL     1      34.901  -7.078 -24.490  0.00  0.00    -0.126 OA
ATOM     17  O   UNL     1      34.766  -7.718 -22.395  0.00  0.00    -0.126 OA
ATOM     18  N   UNL     1      34.730  -7.969 -23.623  0.00  0.00    +0.058 N 
ENDBRANCH  13  18
ENDBRANCH   2  10
BRANCH   3  20
ATOM     19  O   UNL     1      32.656 -14.788 -24.618  0.00  0.00    -0.245 OA
ATOM     20  C   UNL     1      33.385 -14.499 -23.686  0.00  0.00    +0.339 C 
BRANCH  20  21
ATOM     21  O   UNL     1      34.643 -14.936 -23.441  0.00  0.00    -0.448 OA
BRANCH  21  22
ATOM     22  C   UNL     1      34.935 -16.251 -23.923  0.00  0.00    +0.186 C 
BRANCH  22  23
ATOM     23  C   UNL     1      35.567 -17.055 -22.799  0.00  0.00    -0.029 C 
BRANCH  23  24
ATOM     24  N   UNL     1      35.069 -18.424 -22.803  0.00  0.00    +0.391 N 
ATOM     25  C   UNL     1      34.550 -18.782 -24.125  0.00  0.00    -0.100 C 
ATOM     26  H   UNL     1      35.849 -19.043 -22.581  0.00  0.00    -0.079 HD
BRANCH  24  27
ATOM     27  C   UNL     1      34.029 -18.600 -21.786  0.00  0.00    -0.050 C 
BRANCH  27  28
ATOM     28  C   UNL     1      34.319 -19.770 -20.884  0.00  0.00    -0.043 C 
ATOM     29  C   UNL     1      33.270 -20.464 -20.283  0.00  0.00    -0.006 C 
ATOM     30  C   UNL     1      35.639 -20.158 -20.648  0.00  0.00    -0.006 C 
ATOM     31  C   UNL     1      33.539 -21.548 -19.446  0.00  0.00    -0.000 C 
ATOM     32  C   UNL     1      35.908 -21.242 -19.812  0.00  0.00    -0.000 C 
ATOM     33  C   UNL     1      34.857 -21.937 -19.212  0.00  0.00    -0.000 C 
ENDBRANCH  27  28
ENDBRANCH  24  27
ENDBRANCH  23  24
ENDBRANCH  22  23
ENDBRANCH  21  22
ENDBRANCH  20  21
ENDBRANCH   3  20
BRANCH   4  35
ATOM     34  O   UNL     1      29.837 -10.427 -22.817  0.00  0.00    -0.245 OA
ATOM     35  C   UNL     1      30.887 -10.325 -22.209  0.00  0.00    +0.342 C 
BRANCH  35  36
ATOM     36  O   UNL     1      31.475  -9.201 -21.733  0.00  0.00    -0.441 OA
ATOM     37  C   UNL     1      31.255  -8.023 -22.515  0.00  0.00    +0.256 C 
ENDBRANCH  35  36
ENDBRANCH   4  35
TORSDOF 11
ENDMDL
MODEL 8
REMARK VINA RESULT:      -8.8     10.604     15.589
REMARK  Name = 4474
REMARK  11 active torsions:
REMARK  status: ('A' for Active; 'I' for Inactive)
REMARK    1  A    between atoms: C_2  and  C_10
REMARK    2  A    between atoms: C_3  and  C_20
REMARK    3  A    between atoms: C_4  and  C_35
REMARK    4  A    between atoms: C_13  and  N_18
REMARK    5  A    between atoms: C_20  and  O_21
REMARK    6  A    between atoms: O_21  and  C_22
REMARK    7  A    between atoms: C_22  and  C_23
REMARK    8  A    between atoms: C_23  and  N_24
REMARK    9  A    between atoms: N_24  and  C_27
REMARK   10  A    between atoms: C_27  and  C_28
REMARK   11  A    between atoms: C_35  and  O_36
REMARK                            x       y       z     vdW  Elec       q    Type
REMARK                         _______ _______ _______ _____ _____    ______ ____
ROOT
ATOM      1  N   UNL     1      35.163  -9.682 -24.935  0.00  0.00    -0.334 N 
ATOM      2  C   UNL     1      32.820 -11.088 -24.185  0.00  0.00    +0.011 C 
ATOM      3  C   UNL     1      33.248  -9.761 -23.547  0.00  0.00    +0.071 C 
ATOM      4  C   UNL     1      33.697 -11.488 -25.375  0.00  0.00    +0.085 C 
ATOM      5  C   UNL     1      34.383  -9.134 -23.929  0.00  0.00    +0.098 C 
ATOM      6  C   UNL     1      34.823 -10.801 -25.678  0.00  0.00    +0.028 C 
ATOM      7  C   UNL     1      34.912  -7.853 -23.342  0.00  0.00    +0.026 C 
ATOM      8  C   UNL     1      35.779 -11.139 -26.789  0.00  0.00    +0.047 C 
ATOM      9  H   UNL     1      36.022  -9.244 -25.136  0.00  0.00    +0.147 HD
ENDROOT
BRANCH   2  10
ATOM     10  C   UNL     1      32.829 -12.178 -23.153  0.00  0.00    +0.002 C 
ATOM     11  C   UNL     1      33.774 -13.202 -23.227  0.00  0.00    +0.024 C 
ATOM     12  C   UNL     1      31.893 -12.169 -22.119  0.00  0.00    +0.000 C 
ATOM     13  C   UNL     1      33.782 -14.214 -22.268  0.00  0.00    +0.143 C 
ATOM     14  C   UNL     1      31.900 -13.181 -21.160  0.00  0.00    +0.002 C 
ATOM     15  C   UNL     1      32.846 -14.205 -21.234  0.00  0.00    +0.024 C 
BRANCH  13  18
ATOM     16  O   UNL     1      35.006 -15.918 -21.309  0.00  0.00    -0.126 OA
ATOM     17  O   UNL     1      35.307 -15.487 -23.440  0.00  0.00    -0.126 OA
ATOM     18  N   UNL     1      34.745 -15.257 -22.342  0.00  0.00    +0.058 N 
ENDBRANCH  13  18
ENDBRANCH   2  10
BRANCH   3  20
ATOM     19  O   UNL     1      32.644  -8.973 -21.395  0.00  0.00    -0.245 OA
ATOM     20  C   UNL     1      32.330  -9.183 -22.552  0.00  0.00    +0.339 C 
BRANCH  20  21
ATOM     21  O   UNL     1      31.139  -8.947 -23.154  0.00  0.00    -0.448 OA
BRANCH  21  22
ATOM     22  C   UNL     1      31.069  -7.733 -23.908  0.00  0.00    +0.186 C 
BRANCH  22  23
ATOM     23  C   UNL     1      30.976  -6.562 -22.944  0.00  0.00    -0.029 C 
BRANCH  23  24
ATOM     24  N   UNL     1      31.599  -5.376 -23.514  0.00  0.00    +0.391 N 
ATOM     25  C   UNL     1      31.198  -4.176 -22.777  0.00  0.00    -0.100 C 
ATOM     26  H   UNL     1      32.611  -5.484 -23.433  0.00  0.00    -0.079 HD
BRANCH  24  27
ATOM     27  C   UNL     1      31.255  -5.239 -24.931  0.00  0.00    -0.050 C 
BRANCH  27  28
ATOM     28  C   UNL     1      32.459  -4.904 -25.771  0.00  0.00    -0.043 C 
ATOM     29  C   UNL     1      33.591  -5.718 -25.724  0.00  0.00    -0.006 C 
ATOM     30  C   UNL     1      32.443  -3.778 -26.596  0.00  0.00    -0.006 C 
ATOM     31  C   UNL     1      34.706  -5.407 -26.501  0.00  0.00    -0.000 C 
ATOM     32  C   UNL     1      33.559  -3.468 -27.373  0.00  0.00    -0.000 C 
ATOM     33  C   UNL     1      34.690  -4.283 -27.327  0.00  0.00    -0.000 C 
ENDBRANCH  27  28
ENDBRANCH  24  27
ENDBRANCH  23  24
ENDBRANCH  22  23
ENDBRANCH  21  22
ENDBRANCH  20  21
ENDBRANCH   3  20
BRANCH   4  35
ATOM     34  O   UNL     1      32.455 -12.491 -27.127  0.00  0.00    -0.245 OA
ATOM     35  C   UNL     1      33.225 -12.617 -26.192  0.00  0.00    +0.342 C 
BRANCH  35  36
ATOM     36  O   UNL     1      33.790 -13.753 -25.718  0.00  0.00    -0.441 OA
ATOM     37  C   UNL     1      33.231 -14.968 -26.227  0.00  0.00    +0.256 C 
ENDBRANCH  35  36
ENDBRANCH   4  35
TORSDOF 11
ENDMDL
MODEL 9
REMARK VINA RESULT:      -8.8      6.726     13.355
REMARK  Name = 4474
REMARK  11 active torsions:
REMARK  status: ('A' for Active; 'I' for Inactive)
REMARK    1  A    between atoms: C_2  and  C_10
REMARK    2  A    between atoms: C_3  and  C_20
REMARK    3  A    between atoms: C_4  and  C_35
REMARK    4  A    between atoms: C_13  and  N_18
REMARK    5  A    between atoms: C_20  and  O_21
REMARK    6  A    between atoms: O_21  and  C_22
REMARK    7  A    between atoms: C_22  and  C_23
REMARK    8  A    between atoms: C_23  and  N_24
REMARK    9  A    between atoms: N_24  and  C_27
REMARK   10  A    between atoms: C_27  and  C_28
REMARK   11  A    between atoms: C_35  and  O_36
REMARK                            x       y       z     vdW  Elec       q    Type
REMARK                         _______ _______ _______ _____ _____    ______ ____
ROOT
ATOM      1  N   UNL     1      33.549 -13.685 -25.623  0.00  0.00    -0.334 N 
ATOM      2  C   UNL     1      33.744 -12.572 -23.024  0.00  0.00    +0.011 C 
ATOM      3  C   UNL     1      33.579 -14.074 -23.289  0.00  0.00    +0.071 C 
ATOM      4  C   UNL     1      33.956 -11.761 -24.306  0.00  0.00    +0.085 C 
ATOM      5  C   UNL     1      33.476 -14.556 -24.547  0.00  0.00    +0.098 C 
ATOM      6  C   UNL     1      33.826 -12.331 -25.526  0.00  0.00    +0.028 C 
ATOM      7  C   UNL     1      33.274 -16.002 -24.914  0.00  0.00    +0.026 C 
ATOM      8  C   UNL     1      33.961 -11.616 -26.843  0.00  0.00    +0.047 C 
ATOM      9  H   UNL     1      33.393 -14.056 -26.522  0.00  0.00    +0.147 HD
ENDROOT
BRANCH   2  10
ATOM     10  C   UNL     1      32.550 -12.050 -22.279  0.00  0.00    +0.002 C 
ATOM     11  C   UNL     1      32.694 -11.567 -20.979  0.00  0.00    +0.024 C 
ATOM     12  C   UNL     1      31.294 -12.048 -22.888  0.00  0.00    +0.000 C 
ATOM     13  C   UNL     1      31.584 -11.082 -20.288  0.00  0.00    +0.143 C 
ATOM     14  C   UNL     1      30.184 -11.563 -22.197  0.00  0.00    +0.002 C 
ATOM     15  C   UNL     1      30.329 -11.080 -20.896  0.00  0.00    +0.024 C 
BRANCH  13  18
ATOM     16  O   UNL     1      31.184 -11.210 -18.020  0.00  0.00    -0.126 OA
ATOM     17  O   UNL     1      32.402  -9.546 -18.774  0.00  0.00    -0.126 OA
ATOM     18  N   UNL     1      31.730 -10.589 -18.963  0.00  0.00    +0.058 N 
ENDBRANCH  13  18
ENDBRANCH   2  10
BRANCH   3  20
ATOM     19  O   UNL     1      32.604 -15.272 -21.491  0.00  0.00    -0.245 OA
ATOM     20  C   UNL     1      33.603 -14.956 -22.111  0.00  0.00    +0.339 C 
BRANCH  20  21
ATOM     21  O   UNL     1      34.886 -15.321 -21.875  0.00  0.00    -0.448 OA
BRANCH  21  22
ATOM     22  C   UNL     1      35.061 -16.664 -21.414  0.00  0.00    +0.186 C 
BRANCH  22  23
ATOM     23  C   UNL     1      35.731 -17.475 -22.510  0.00  0.00    -0.029 C 
BRANCH  23  24
ATOM     24  N   UNL     1      35.225 -18.841 -22.522  0.00  0.00    +0.391 N 
ATOM     25  C   UNL     1      34.825 -19.232 -23.876  0.00  0.00    -0.100 C 
ATOM     26  H   UNL     1      35.978 -19.457 -22.215  0.00  0.00    -0.079 HD
BRANCH  24  27
ATOM     27  C   UNL     1      34.097 -18.984 -21.599  0.00  0.00    -0.050 C 
BRANCH  27  28
ATOM     28  C   UNL     1      34.304 -20.120 -20.633  0.00  0.00    -0.043 C 
ATOM     29  C   UNL     1      35.595 -20.551 -20.329  0.00  0.00    -0.006 C 
ATOM     30  C   UNL     1      33.203 -20.743 -20.042  0.00  0.00    -0.006 C 
ATOM     31  C   UNL     1      35.787 -21.604 -19.435  0.00  0.00    -0.000 C 
ATOM     32  C   UNL     1      33.395 -21.796 -19.148  0.00  0.00    -0.000 C 
ATOM     33  C   UNL     1      34.687 -22.225 -18.843  0.00  0.00    -0.000 C 
ENDBRANCH  27  28
ENDBRANCH  24  27
ENDBRANCH  23  24
ENDBRANCH  22  23
ENDBRANCH  21  22
ENDBRANCH  20  21
ENDBRANCH   3  20
BRANCH   4  35
ATOM     34  O   UNL     1      35.516  -9.987 -24.113  0.00  0.00    -0.245 OA
ATOM     35  C   UNL     1      34.356 -10.354 -24.137  0.00  0.00    +0.342 C 
BRANCH  35  36
ATOM     36  O   UNL     1      33.235  -9.603 -24.023  0.00  0.00    -0.441 OA
ATOM     37  C   UNL     1      33.326  -8.513 -23.100  0.00  0.00    +0.256 C 
ENDBRANCH  35  36
ENDBRANCH   4  35
TORSDOF 11
ENDMDL
