MODEL 1
REMARK VINA RESULT:      -7.3      0.000      0.000
REMARK  Name = 5289281
REMARK  12 active torsions:
REMARK  status: ('A' for Active; 'I' for Inactive)
REMARK    1  A    between atoms: C_1  and  C_2
REMARK    2  A    between atoms: C_1  and  C_15
REMARK    3  A    between atoms: C_2  and  C_3
REMARK    4  A    between atoms: C_3  and  C_4
REMARK    5  A    between atoms: C_4  and  C_7
REMARK    6  A    between atoms: N_6  and  CA_9
REMARK    7  A    between atoms: CA_9  and  C_12
REMARK    8  A    between atoms: C_12  and  O_13
REMARK    9  A    between atoms: C_15  and  N_17
REMARK   10  A    between atoms: C_15  and  C_27
REMARK   11  A    between atoms: C_18  and  CA_20
REMARK   12  A    between atoms: CA_20  and  N_21
REMARK                            x       y       z     vdW  Elec       q    Type
REMARK                         _______ _______ _______ _____ _____    ______ ____
ROOT
ATOM      1  C   UNK A   2      35.763 -18.335 -22.929  0.00  0.00    +0.031 C 
ENDROOT
BRANCH   1   2
ATOM      2  C   UNK A   2      34.832 -19.191 -23.797  0.00  0.00    +0.003 C 
BRANCH   2   3
ATOM      3  C   UNK A   0      34.205 -18.359 -24.921  0.00  0.00    +0.010 C 
BRANCH   3   4
ATOM      4  C   UNK A   0      34.849 -16.979 -25.052  0.00  0.00    +0.085 C 
BRANCH   4   7
ATOM      5  O   UNK A   0      33.142 -15.817 -26.316  0.00  0.00    -0.275 OA
ATOM      6  N   GLY A   1      33.841 -14.935 -24.284  0.00  0.00    -0.297 N 
ATOM      7  C   UNK A   0      33.854 -15.862 -25.316  0.00  0.00    +0.223 C 
ATOM      8  H   GLY A   1      34.457 -15.068 -23.527  0.00  0.00    +0.150 HD
BRANCH   6   9
ATOM      9  CA  GLY A   1      32.967 -13.784 -24.269  0.00  0.00    +0.171 C 
ATOM     10  CB  GLY A   1      33.686 -12.568 -24.834  0.00  0.00    +0.033 C 
BRANCH   9  12
ATOM     11  OXT GLY A   1      32.273 -12.348 -22.452  0.00  0.00    -0.248 OA
ATOM     12  C   GLY A   1      32.446 -13.488 -22.873  0.00  0.00    +0.332 C 
BRANCH  12  13
ATOM     13  O   GLY A   1      32.195 -14.584 -22.118  0.00  0.00    -0.479 OA
ATOM     14  H   GLY A   1      31.576 -14.536 -21.414  0.00  0.00    +0.295 HD
ENDBRANCH  12  13
ENDBRANCH   9  12
ENDBRANCH   6   9
ENDBRANCH   4   7
ENDBRANCH   3   4
ENDBRANCH   2   3
ENDBRANCH   1   2
BRANCH   1  15
ATOM     15  C   UNK A   2      35.234 -18.089 -21.510  0.00  0.00    +0.176 C 
BRANCH  15  17
ATOM     16  O   GLY A   1      36.392 -20.181 -19.923  0.00  0.00    -0.277 OA
ATOM     17  N   UNK A   2      34.556 -19.265 -21.008  0.00  0.00    -0.298 N 
ATOM     18  C   GLY A   1      35.208 -20.220 -20.247  0.00  0.00    +0.201 C 
ATOM     19  H   UNK A   2      33.601 -19.389 -21.214  0.00  0.00    +0.150 HD
BRANCH  18  20
ATOM     20  CA  GLY A   1      34.278 -21.338 -19.850  0.00  0.00    +0.001 C 
BRANCH  20  21
ATOM     21  N   GLY A   1      32.859 -20.904 -19.886  0.00  0.00    +0.386 N 
ATOM     22  H1  GLY A   1      32.253 -21.721 -19.827  0.00  0.00    -0.089 HD
ATOM     23  H2  GLY A   1      32.678 -20.407 -20.758  0.00  0.00    -0.089 HD
ATOM     24  H3  GLY A   1      32.674 -20.284 -19.097  0.00  0.00    -0.089 HD
ENDBRANCH  20  21
ENDBRANCH  18  20
ENDBRANCH  15  17
BRANCH  15  27
ATOM     25  O   UNK A   2      33.221 -16.963 -20.924  0.00  0.00    -0.244 OA
ATOM     26  O   UNK A   2      34.992 -15.729 -21.658  0.00  0.00    -0.244 OA
ATOM     27  C   UNK A   2      34.403 -16.802 -21.337  0.00  0.00    +0.382 C 
ENDBRANCH  15  27
ENDBRANCH   1  15
TORSDOF 12
ENDMDL
MODEL 2
REMARK VINA RESULT:      -7.2      9.733     11.746
REMARK  Name = 5289281
REMARK  12 active torsions:
REMARK  status: ('A' for Active; 'I' for Inactive)
REMARK    1  A    between atoms: C_1  and  C_2
REMARK    2  A    between atoms: C_1  and  C_15
REMARK    3  A    between atoms: C_2  and  C_3
REMARK    4  A    between atoms: C_3  and  C_4
REMARK    5  A    between atoms: C_4  and  C_7
REMARK    6  A    between atoms: N_6  and  CA_9
REMARK    7  A    between atoms: CA_9  and  C_12
REMARK    8  A    between atoms: C_12  and  O_13
REMARK    9  A    between atoms: C_15  and  N_17
REMARK   10  A    between atoms: C_15  and  C_27
REMARK   11  A    between atoms: C_18  and  CA_20
REMARK   12  A    between atoms: CA_20  and  N_21
REMARK                            x       y       z     vdW  Elec       q    Type
REMARK                         _______ _______ _______ _____ _____    ______ ____
ROOT
ATOM      1  C   UNK A   2      34.527 -24.269 -13.093  0.00  0.00    +0.031 C 
ENDROOT
BRANCH   1   2
ATOM      2  C   UNK A   2      34.407 -24.593 -14.588  0.00  0.00    +0.003 C 
BRANCH   2   3
ATOM      3  C   UNK A   0      34.310 -23.311 -15.423  0.00  0.00    +0.010 C 
BRANCH   3   4
ATOM      4  C   UNK A   0      33.069 -23.290 -16.315  0.00  0.00    +0.085 C 
BRANCH   4   7
ATOM      5  O   UNK A   0      31.701 -22.486 -14.486  0.00  0.00    -0.275 OA
ATOM      6  N   GLY A   1      30.693 -23.656 -16.221  0.00  0.00    -0.297 N 
ATOM      7  C   UNK A   0      31.771 -23.093 -15.551  0.00  0.00    +0.223 C 
ATOM      8  H   GLY A   1      30.863 -24.122 -17.072  0.00  0.00    +0.150 HD
BRANCH   6   9
ATOM      9  CA  GLY A   1      29.337 -23.591 -15.729  0.00  0.00    +0.171 C 
ATOM     10  CB  GLY A   1      28.944 -24.913 -15.087  0.00  0.00    +0.033 C 
BRANCH   9  12
ATOM     11  OXT GLY A   1      27.694 -24.057 -17.440  0.00  0.00    -0.248 OA
ATOM     12  C   GLY A   1      28.353 -23.224 -16.826  0.00  0.00    +0.332 C 
BRANCH  12  13
ATOM     13  O   GLY A   1      28.265 -21.897 -17.089  0.00  0.00    -0.479 OA
ATOM     14  H   GLY A   1      27.784 -21.599 -17.836  0.00  0.00    +0.295 HD
ENDBRANCH  12  13
ENDBRANCH   9  12
ENDBRANCH   6   9
ENDBRANCH   4   7
ENDBRANCH   3   4
ENDBRANCH   2   3
ENDBRANCH   1   2
BRANCH   1  15
ATOM     15  C   UNK A   2      35.976 -24.166 -12.596  0.00  0.00    +0.176 C 
BRANCH  15  17
ATOM     16  O   GLY A   1      38.269 -23.770 -14.275  0.00  0.00    -0.277 OA
ATOM     17  N   UNK A   2      36.794 -25.199 -13.193  0.00  0.00    -0.298 N 
ATOM     18  C   GLY A   1      37.885 -24.902 -13.992  0.00  0.00    +0.201 C 
ATOM     19  H   UNK A   2      36.568 -26.142 -13.026  0.00  0.00    +0.150 HD
BRANCH  18  20
ATOM     20  CA  GLY A   1      38.566 -26.154 -14.484  0.00  0.00    +0.001 C 
BRANCH  20  21
ATOM     21  N   GLY A   1      40.015 -26.146 -14.164  0.00  0.00    +0.386 N 
ATOM     22  H1  GLY A   1      40.461 -26.957 -14.591  0.00  0.00    -0.089 HD
ATOM     23  H2  GLY A   1      40.140 -26.182 -13.153  0.00  0.00    -0.089 HD
ATOM     24  H3  GLY A   1      40.439 -25.293 -14.529  0.00  0.00    -0.089 HD
ENDBRANCH  20  21
ENDBRANCH  18  20
ENDBRANCH  15  17
BRANCH  15  27
ATOM     25  O   UNK A   2      36.984 -23.252 -10.644  0.00  0.00    -0.244 OA
ATOM     26  O   UNK A   2      35.418 -24.891 -10.403  0.00  0.00    -0.244 OA
ATOM     27  C   UNK A   2      36.135 -24.088 -11.065  0.00  0.00    +0.382 C 
ENDBRANCH  15  27
ENDBRANCH   1  15
TORSDOF 12
ENDMDL
MODEL 3
REMARK VINA RESULT:      -7.2      9.579     11.399
REMARK  Name = 5289281
REMARK  12 active torsions:
REMARK  status: ('A' for Active; 'I' for Inactive)
REMARK    1  A    between atoms: C_1  and  C_2
REMARK    2  A    between atoms: C_1  and  C_15
REMARK    3  A    between atoms: C_2  and  C_3
REMARK    4  A    between atoms: C_3  and  C_4
REMARK    5  A    between atoms: C_4  and  C_7
REMARK    6  A    between atoms: N_6  and  CA_9
REMARK    7  A    between atoms: CA_9  and  C_12
REMARK    8  A    between atoms: C_12  and  O_13
REMARK    9  A    between atoms: C_15  and  N_17
REMARK   10  A    between atoms: C_15  and  C_27
REMARK   11  A    between atoms: C_18  and  CA_20
REMARK   12  A    between atoms: CA_20  and  N_21
REMARK                            x       y       z     vdW  Elec       q    Type
REMARK                         _______ _______ _______ _____ _____    ______ ____
ROOT
ATOM      1  C   UNK A   2      36.547 -23.949 -15.364  0.00  0.00    +0.031 C 
ENDROOT
BRANCH   1   2
ATOM      2  C   UNK A   2      35.343 -23.089 -15.772  0.00  0.00    +0.003 C 
BRANCH   2   3
ATOM      3  C   UNK A   0      34.121 -23.962 -16.077  0.00  0.00    +0.010 C 
BRANCH   3   4
ATOM      4  C   UNK A   0      32.970 -23.159 -16.683  0.00  0.00    +0.085 C 
BRANCH   4   7
ATOM      5  O   UNK A   0      31.825 -22.726 -14.594  0.00  0.00    -0.275 OA
ATOM      6  N   GLY A   1      30.582 -23.335 -16.459  0.00  0.00    -0.297 N 
ATOM      7  C   UNK A   0      31.756 -23.051 -15.777  0.00  0.00    +0.223 C 
ATOM      8  H   GLY A   1      30.641 -23.586 -17.410  0.00  0.00    +0.150 HD
BRANCH   6   9
ATOM      9  CA  GLY A   1      29.277 -23.280 -15.841  0.00  0.00    +0.171 C 
ATOM     10  CB  GLY A   1      28.937 -24.621 -15.207  0.00  0.00    +0.033 C 
BRANCH   9  12
ATOM     11  OXT GLY A   1      27.791 -21.723 -16.940  0.00  0.00    -0.248 OA
ATOM     12  C   GLY A   1      28.198 -22.875 -16.831  0.00  0.00    +0.332 C 
BRANCH  12  13
ATOM     13  O   GLY A   1      27.707 -23.890 -17.581  0.00  0.00    -0.479 OA
ATOM     14  H   GLY A   1      27.432 -23.730 -18.464  0.00  0.00    +0.295 HD
ENDBRANCH  12  13
ENDBRANCH   9  12
ENDBRANCH   6   9
ENDBRANCH   4   7
ENDBRANCH   3   4
ENDBRANCH   2   3
ENDBRANCH   1   2
BRANCH   1  15
ATOM     15  C   UNK A   2      36.175 -25.173 -14.517  0.00  0.00    +0.176 C 
BRANCH  15  17
ATOM     16  O   GLY A   1      34.171 -24.365 -12.628  0.00  0.00    -0.277 OA
ATOM     17  N   UNK A   2      36.377 -24.901 -13.110  0.00  0.00    -0.298 N 
ATOM     18  C   GLY A   1      35.339 -24.515 -12.280  0.00  0.00    +0.201 C 
ATOM     19  H   UNK A   2      37.282 -24.993 -12.732  0.00  0.00    +0.150 HD
BRANCH  18  20
ATOM     20  CA  GLY A   1      35.815 -24.297 -10.866  0.00  0.00    +0.001 C 
BRANCH  20  21
ATOM     21  N   GLY A   1      37.005 -23.411 -10.824  0.00  0.00    +0.386 N 
ATOM     22  H1  GLY A   1      37.662 -23.758 -10.127  0.00  0.00    -0.089 HD
ATOM     23  H2  GLY A   1      36.715 -22.465 -10.578  0.00  0.00    -0.089 HD
ATOM     24  H3  GLY A   1      37.453 -23.401 -11.740  0.00  0.00    -0.089 HD
ENDBRANCH  20  21
ENDBRANCH  18  20
ENDBRANCH  15  17
BRANCH  15  27
ATOM     25  O   UNK A   2      37.759 -26.927 -14.238  0.00  0.00    -0.244 OA
ATOM     26  O   UNK A   2      36.357 -26.993 -16.035  0.00  0.00    -0.244 OA
ATOM     27  C   UNK A   2      36.821 -26.498 -14.967  0.00  0.00    +0.382 C 
ENDBRANCH  15  27
ENDBRANCH   1  15
TORSDOF 12
ENDMDL
MODEL 4
REMARK VINA RESULT:      -7.1      5.150     10.474
REMARK  Name = 5289281
REMARK  12 active torsions:
REMARK  status: ('A' for Active; 'I' for Inactive)
REMARK    1  A    between atoms: C_1  and  C_2
REMARK    2  A    between atoms: C_1  and  C_15
REMARK    3  A    between atoms: C_2  and  C_3
REMARK    4  A    between atoms: C_3  and  C_4
REMARK    5  A    between atoms: C_4  and  C_7
REMARK    6  A    between atoms: N_6  and  CA_9
REMARK    7  A    between atoms: CA_9  and  C_12
REMARK    8  A    between atoms: C_12  and  O_13
REMARK    9  A    between atoms: C_15  and  N_17
REMARK   10  A    between atoms: C_15  and  C_27
REMARK   11  A    between atoms: C_18  and  CA_20
REMARK   12  A    between atoms: CA_20  and  N_21
REMARK                            x       y       z     vdW  Elec       q    Type
REMARK                         _______ _______ _______ _____ _____    ______ ____
ROOT
ATOM      1  C   UNK A   2      35.489 -22.039 -18.979  0.00  0.00    +0.031 C 
ENDROOT
BRANCH   1   2
ATOM      2  C   UNK A   2      36.694 -21.245 -18.457  0.00  0.00    +0.003 C 
BRANCH   2   3
ATOM      3  C   UNK A   0      37.105 -21.723 -17.060  0.00  0.00    +0.010 C 
BRANCH   3   4
ATOM      4  C   UNK A   0      35.982 -22.478 -16.350  0.00  0.00    +0.085 C 
BRANCH   4   7
ATOM      5  O   UNK A   0      35.924 -23.323 -14.081  0.00  0.00    -0.275 OA
ATOM      6  N   GLY A   1      37.541 -24.123 -15.544  0.00  0.00    -0.297 N 
ATOM      7  C   UNK A   0      36.459 -23.331 -15.187  0.00  0.00    +0.223 C 
ATOM      8  H   GLY A   1      37.893 -24.049 -16.461  0.00  0.00    +0.150 HD
BRANCH   6   9
ATOM      9  CA  GLY A   1      38.176 -25.049 -14.634  0.00  0.00    +0.171 C 
ATOM     10  CB  GLY A   1      39.663 -25.152 -14.938  0.00  0.00    +0.033 C 
BRANCH   9  12
ATOM     11  OXT GLY A   1      37.338 -27.108 -13.685  0.00  0.00    -0.248 OA
ATOM     12  C   GLY A   1      37.530 -26.423 -14.684  0.00  0.00    +0.332 C 
BRANCH  12  13
ATOM     13  O   GLY A   1      37.189 -26.845 -15.926  0.00  0.00    -0.479 OA
ATOM     14  H   GLY A   1      36.315 -26.718 -16.240  0.00  0.00    +0.295 HD
ENDBRANCH  12  13
ENDBRANCH   9  12
ENDBRANCH   6   9
ENDBRANCH   4   7
ENDBRANCH   3   4
ENDBRANCH   2   3
ENDBRANCH   1   2
BRANCH   1  15
ATOM     15  C   UNK A   2      34.592 -21.244 -19.938  0.00  0.00    +0.176 C 
BRANCH  15  17
ATOM     16  O   GLY A   1      34.622 -19.873 -22.458  0.00  0.00    -0.277 OA
ATOM     17  N   UNK A   2      35.157 -19.938 -20.200  0.00  0.00    -0.298 N 
ATOM     18  C   GLY A   1      35.120 -19.361 -21.458  0.00  0.00    +0.201 C 
ATOM     19  H   UNK A   2      35.581 -19.444 -19.461  0.00  0.00    +0.150 HD
BRANCH  18  20
ATOM     20  CA  GLY A   1      35.773 -18.003 -21.462  0.00  0.00    +0.001 C 
BRANCH  20  21
ATOM     21  N   GLY A   1      36.115 -17.568 -22.839  0.00  0.00    +0.386 N 
ATOM     22  H1  GLY A   1      36.146 -16.550 -22.875  0.00  0.00    -0.089 HD
ATOM     23  H2  GLY A   1      35.408 -17.910 -23.489  0.00  0.00    -0.089 HD
ATOM     24  H3  GLY A   1      37.026 -17.946 -23.098  0.00  0.00    -0.089 HD
ENDBRANCH  20  21
ENDBRANCH  18  20
ENDBRANCH  15  17
BRANCH  15  27
ATOM     25  O   UNK A   2      32.471 -20.164 -19.937  0.00  0.00    -0.244 OA
ATOM     26  O   UNK A   2      32.693 -22.142 -18.825  0.00  0.00    -0.244 OA
ATOM     27  C   UNK A   2      33.105 -21.180 -19.536  0.00  0.00    +0.382 C 
ENDBRANCH  15  27
ENDBRANCH   1  15
TORSDOF 12
ENDMDL
MODEL 5
REMARK VINA RESULT:      -7.1      1.773      6.266
REMARK  Name = 5289281
REMARK  12 active torsions:
REMARK  status: ('A' for Active; 'I' for Inactive)
REMARK    1  A    between atoms: C_1  and  C_2
REMARK    2  A    between atoms: C_1  and  C_15
REMARK    3  A    between atoms: C_2  and  C_3
REMARK    4  A    between atoms: C_3  and  C_4
REMARK    5  A    between atoms: C_4  and  C_7
REMARK    6  A    between atoms: N_6  and  CA_9
REMARK    7  A    between atoms: CA_9  and  C_12
REMARK    8  A    between atoms: C_12  and  O_13
REMARK    9  A    between atoms: C_15  and  N_17
REMARK   10  A    between atoms: C_15  and  C_27
REMARK   11  A    between atoms: C_18  and  CA_20
REMARK   12  A    between atoms: CA_20  and  N_21
REMARK                            x       y       z     vdW  Elec       q    Type
REMARK                         _______ _______ _______ _____ _____    ______ ____
ROOT
ATOM      1  C   UNK A   2      34.929 -16.870 -25.214  0.00  0.00    +0.031 C 
ENDROOT
BRANCH   1   2
ATOM      2  C   UNK A   2      34.116 -18.140 -24.931  0.00  0.00    +0.003 C 
BRANCH   2   3
ATOM      3  C   UNK A   0      34.867 -19.074 -23.977  0.00  0.00    +0.010 C 
BRANCH   3   4
ATOM      4  C   UNK A   0      35.750 -18.311 -22.990  0.00  0.00    +0.085 C 
BRANCH   4   7
ATOM      5  O   UNK A   0      35.472 -17.773 -20.646  0.00  0.00    -0.275 OA
ATOM      6  N   GLY A   1      35.124 -19.958 -21.352  0.00  0.00    -0.297 N 
ATOM      7  C   UNK A   0      35.449 -18.621 -21.534  0.00  0.00    +0.223 C 
ATOM      8  H   GLY A   1      35.137 -20.554 -22.136  0.00  0.00    +0.150 HD
BRANCH   6   9
ATOM      9  CA  GLY A   1      34.769 -20.517 -20.067  0.00  0.00    +0.171 C 
ATOM     10  CB  GLY A   1      35.673 -21.694 -19.736  0.00  0.00    +0.033 C 
BRANCH   9  12
ATOM     11  OXT GLY A   1      32.397 -20.238 -20.440  0.00  0.00    -0.248 OA
ATOM     12  C   GLY A   1      33.311 -20.939 -20.018  0.00  0.00    +0.332 C 
BRANCH  12  13
ATOM     13  O   GLY A   1      33.091 -22.153 -19.459  0.00  0.00    -0.479 OA
ATOM     14  H   GLY A   1      33.589 -22.896 -19.741  0.00  0.00    +0.295 HD
ENDBRANCH  12  13
ENDBRANCH   9  12
ENDBRANCH   6   9
ENDBRANCH   4   7
ENDBRANCH   3   4
ENDBRANCH   2   3
ENDBRANCH   1   2
BRANCH   1  15
ATOM     15  C   UNK A   2      34.138 -15.570 -25.016  0.00  0.00    +0.176 C 
BRANCH  15  17
ATOM     16  O   GLY A   1      33.871 -13.357 -23.210  0.00  0.00    -0.277 OA
ATOM     17  N   UNK A   2      33.455 -15.578 -23.740  0.00  0.00    -0.298 N 
ATOM     18  C   GLY A   1      33.383 -14.451 -22.940  0.00  0.00    +0.201 C 
ATOM     19  H   UNK A   2      33.029 -16.410 -23.433  0.00  0.00    +0.150 HD
BRANCH  18  20
ATOM     20  CA  GLY A   1      32.617 -14.725 -21.670  0.00  0.00    +0.001 C 
BRANCH  20  21
ATOM     21  N   GLY A   1      33.401 -15.566 -20.733  0.00  0.00    +0.386 N 
ATOM     22  H1  GLY A   1      34.396 -15.450 -20.925  0.00  0.00    -0.089 HD
ATOM     23  H2  GLY A   1      33.143 -16.544 -20.856  0.00  0.00    -0.089 HD
ATOM     24  H3  GLY A   1      33.204 -15.280 -19.774  0.00  0.00    -0.089 HD
ENDBRANCH  20  21
ENDBRANCH  18  20
ENDBRANCH  15  17
BRANCH  15  27
ATOM     25  O   UNK A   2      33.189 -13.961 -26.491  0.00  0.00    -0.244 OA
ATOM     26  O   UNK A   2      32.554 -16.141 -26.694  0.00  0.00    -0.244 OA
ATOM     27  C   UNK A   2      33.211 -15.187 -26.187  0.00  0.00    +0.382 C 
ENDBRANCH  15  27
ENDBRANCH   1  15
TORSDOF 12
ENDMDL
MODEL 6
REMARK VINA RESULT:      -7.1     10.056     12.505
REMARK  Name = 5289281
REMARK  12 active torsions:
REMARK  status: ('A' for Active; 'I' for Inactive)
REMARK    1  A    between atoms: C_1  and  C_2
REMARK    2  A    between atoms: C_1  and  C_15
REMARK    3  A    between atoms: C_2  and  C_3
REMARK    4  A    between atoms: C_3  and  C_4
REMARK    5  A    between atoms: C_4  and  C_7
REMARK    6  A    between atoms: N_6  and  CA_9
REMARK    7  A    between atoms: CA_9  and  C_12
REMARK    8  A    between atoms: C_12  and  O_13
REMARK    9  A    between atoms: C_15  and  N_17
REMARK   10  A    between atoms: C_15  and  C_27
REMARK   11  A    between atoms: C_18  and  CA_20
REMARK   12  A    between atoms: CA_20  and  N_21
REMARK                            x       y       z     vdW  Elec       q    Type
REMARK                         _______ _______ _______ _____ _____    ______ ____
ROOT
ATOM      1  C   UNK A   2      31.325 -23.016 -15.684  0.00  0.00    +0.031 C 
ENDROOT
BRANCH   1   2
ATOM      2  C   UNK A   2      32.361 -23.329 -16.771  0.00  0.00    +0.003 C 
BRANCH   2   3
ATOM      3  C   UNK A   0      33.737 -23.612 -16.156  0.00  0.00    +0.010 C 
BRANCH   3   4
ATOM      4  C   UNK A   0      33.818 -23.184 -14.691  0.00  0.00    +0.085 C 
BRANCH   4   7
ATOM      5  O   UNK A   0      34.266 -24.487 -12.700  0.00  0.00    -0.275 OA
ATOM      6  N   GLY A   1      35.779 -24.557 -14.461  0.00  0.00    -0.297 N 
ATOM      7  C   UNK A   0      34.624 -24.133 -13.820  0.00  0.00    +0.223 C 
ATOM      8  H   GLY A   1      35.970 -24.208 -15.362  0.00  0.00    +0.150 HD
BRANCH   6   9
ATOM      9  CA  GLY A   1      36.715 -25.484 -13.867  0.00  0.00    +0.171 C 
ATOM     10  CB  GLY A   1      37.937 -24.742 -13.347  0.00  0.00    +0.033 C 
BRANCH   9  12
ATOM     11  OXT GLY A   1      38.186 -27.191 -14.743  0.00  0.00    -0.248 OA
ATOM     12  C   GLY A   1      37.133 -26.570 -14.844  0.00  0.00    +0.332 C 
BRANCH  12  13
ATOM     13  O   GLY A   1      36.255 -26.795 -15.851  0.00  0.00    -0.479 OA
ATOM     14  H   GLY A   1      36.131 -26.148 -16.519  0.00  0.00    +0.295 HD
ENDBRANCH  12  13
ENDBRANCH   9  12
ENDBRANCH   6   9
ENDBRANCH   4   7
ENDBRANCH   3   4
ENDBRANCH   2   3
ENDBRANCH   1   2
BRANCH   1  15
ATOM     15  C   UNK A   2      30.032 -23.834 -15.808  0.00  0.00    +0.176 C 
BRANCH  15  17
ATOM     16  O   GLY A   1      27.826 -23.809 -17.643  0.00  0.00    -0.277 OA
ATOM     17  N   UNK A   2      28.874 -22.969 -15.750  0.00  0.00    -0.298 N 
ATOM     18  C   GLY A   1      27.859 -23.036 -16.689  0.00  0.00    +0.201 C 
ATOM     19  H   UNK A   2      28.805 -22.311 -15.020  0.00  0.00    +0.150 HD
BRANCH  18  20
ATOM     20  CA  GLY A   1      26.772 -22.032 -16.401  0.00  0.00    +0.001 C 
BRANCH  20  21
ATOM     21  N   GLY A   1      26.261 -21.412 -17.648  0.00  0.00    +0.386 N 
ATOM     22  H1  GLY A   1      25.460 -20.820 -17.429  0.00  0.00    -0.089 HD
ATOM     23  H2  GLY A   1      25.976 -22.143 -18.299  0.00  0.00    -0.089 HD
ATOM     24  H3  GLY A   1      26.996 -20.846 -18.072  0.00  0.00    -0.089 HD
ENDBRANCH  20  21
ENDBRANCH  18  20
ENDBRANCH  15  17
BRANCH  15  27
ATOM     25  O   UNK A   2      28.755 -25.424 -14.581  0.00  0.00    -0.244 OA
ATOM     26  O   UNK A   2      31.028 -25.481 -14.413  0.00  0.00    -0.244 OA
ATOM     27  C   UNK A   2      29.927 -25.036 -14.848  0.00  0.00    +0.382 C 
ENDBRANCH  15  27
ENDBRANCH   1  15
TORSDOF 12
ENDMDL
MODEL 7
REMARK VINA RESULT:      -7.0      9.757     12.251
REMARK  Name = 5289281
REMARK  12 active torsions:
REMARK  status: ('A' for Active; 'I' for Inactive)
REMARK    1  A    between atoms: C_1  and  C_2
REMARK    2  A    between atoms: C_1  and  C_15
REMARK    3  A    between atoms: C_2  and  C_3
REMARK    4  A    between atoms: C_3  and  C_4
REMARK    5  A    between atoms: C_4  and  C_7
REMARK    6  A    between atoms: N_6  and  CA_9
REMARK    7  A    between atoms: CA_9  and  C_12
REMARK    8  A    between atoms: C_12  and  O_13
REMARK    9  A    between atoms: C_15  and  N_17
REMARK   10  A    between atoms: C_15  and  C_27
REMARK   11  A    between atoms: C_18  and  CA_20
REMARK   12  A    between atoms: CA_20  and  N_21
REMARK                            x       y       z     vdW  Elec       q    Type
REMARK                         _______ _______ _______ _____ _____    ______ ____
ROOT
ATOM      1  C   UNK A   2      31.389 -23.010 -15.788  0.00  0.00    +0.031 C 
ENDROOT
BRANCH   1   2
ATOM      2  C   UNK A   2      32.243 -23.106 -17.059  0.00  0.00    +0.003 C 
BRANCH   2   3
ATOM      3  C   UNK A   0      33.704 -23.419 -16.719  0.00  0.00    +0.010 C 
BRANCH   3   4
ATOM      4  C   UNK A   0      34.001 -23.261 -15.228  0.00  0.00    +0.085 C 
BRANCH   4   7
ATOM      5  O   UNK A   0      36.302 -23.880 -15.656  0.00  0.00    -0.275 OA
ATOM      6  N   GLY A   1      35.558 -23.750 -13.460  0.00  0.00    -0.297 N 
ATOM      7  C   UNK A   0      35.411 -23.671 -14.838  0.00  0.00    +0.223 C 
ATOM      8  H   GLY A   1      34.774 -23.562 -12.894  0.00  0.00    +0.150 HD
BRANCH   6   9
ATOM      9  CA  GLY A   1      36.805 -24.094 -12.818  0.00  0.00    +0.171 C 
ATOM     10  CB  GLY A   1      36.925 -25.604 -12.673  0.00  0.00    +0.033 C 
BRANCH   9  12
ATOM     11  OXT GLY A   1      36.591 -23.944 -10.415  0.00  0.00    -0.248 OA
ATOM     12  C   GLY A   1      36.950 -23.420 -11.465  0.00  0.00    +0.332 C 
BRANCH  12  13
ATOM     13  O   GLY A   1      37.500 -22.183 -11.504  0.00  0.00    -0.479 OA
ATOM     14  H   GLY A   1      37.903 -21.874 -12.292  0.00  0.00    +0.295 HD
ENDBRANCH  12  13
ENDBRANCH   9  12
ENDBRANCH   6   9
ENDBRANCH   4   7
ENDBRANCH   3   4
ENDBRANCH   2   3
ENDBRANCH   1   2
BRANCH   1  15
ATOM     15  C   UNK A   2      30.081 -23.810 -15.859  0.00  0.00    +0.176 C 
BRANCH  15  17
ATOM     16  O   GLY A   1      27.768 -23.873 -17.557  0.00  0.00    -0.277 OA
ATOM     17  N   UNK A   2      28.938 -22.925 -15.790  0.00  0.00    -0.298 N 
ATOM     18  C   GLY A   1      27.867 -23.039 -16.661  0.00  0.00    +0.201 C 
ATOM     19  H   UNK A   2      28.921 -22.219 -15.104  0.00  0.00    +0.150 HD
BRANCH  18  20
ATOM     20  CA  GLY A   1      26.811 -22.001 -16.376  0.00  0.00    +0.001 C 
BRANCH  20  21
ATOM     21  N   GLY A   1      26.247 -21.442 -17.629  0.00  0.00    +0.386 N 
ATOM     22  H1  GLY A   1      26.994 -21.016 -18.177  0.00  0.00    -0.089 HD
ATOM     23  H2  GLY A   1      25.547 -20.737 -17.401  0.00  0.00    -0.089 HD
ATOM     24  H3  GLY A   1      25.813 -22.191 -18.169  0.00  0.00    -0.089 HD
ENDBRANCH  20  21
ENDBRANCH  18  20
ENDBRANCH  15  17
BRANCH  15  27
ATOM     25  O   UNK A   2      31.083 -25.443 -14.449  0.00  0.00    -0.244 OA
ATOM     26  O   UNK A   2      28.810 -25.386 -14.615  0.00  0.00    -0.244 OA
ATOM     27  C   UNK A   2      29.983 -24.988 -14.870  0.00  0.00    +0.382 C 
ENDBRANCH  15  27
ENDBRANCH   1  15
TORSDOF 12
ENDMDL
MODEL 8
REMARK VINA RESULT:      -7.0      7.886     12.213
REMARK  Name = 5289281
REMARK  12 active torsions:
REMARK  status: ('A' for Active; 'I' for Inactive)
REMARK    1  A    between atoms: C_1  and  C_2
REMARK    2  A    between atoms: C_1  and  C_15
REMARK    3  A    between atoms: C_2  and  C_3
REMARK    4  A    between atoms: C_3  and  C_4
REMARK    5  A    between atoms: C_4  and  C_7
REMARK    6  A    between atoms: N_6  and  CA_9
REMARK    7  A    between atoms: CA_9  and  C_12
REMARK    8  A    between atoms: C_12  and  O_13
REMARK    9  A    between atoms: C_15  and  N_17
REMARK   10  A    between atoms: C_15  and  C_27
REMARK   11  A    between atoms: C_18  and  CA_20
REMARK   12  A    between atoms: CA_20  and  N_21
REMARK                            x       y       z     vdW  Elec       q    Type
REMARK                         _______ _______ _______ _____ _____    ______ ____
ROOT
ATOM      1  C   UNK A   2      31.404 -22.804 -14.884  0.00  0.00    +0.031 C 
ENDROOT
BRANCH   1   2
ATOM      2  C   UNK A   2      31.044 -23.835 -13.806  0.00  0.00    +0.003 C 
BRANCH   2   3
ATOM      3  C   UNK A   0      32.258 -24.697 -13.441  0.00  0.00    +0.010 C 
BRANCH   3   4
ATOM      4  C   UNK A   0      33.577 -23.939 -13.592  0.00  0.00    +0.085 C 
BRANCH   4   7
ATOM      5  O   UNK A   0      34.864 -24.852 -11.756  0.00  0.00    -0.275 OA
ATOM      6  N   GLY A   1      35.688 -25.045 -13.919  0.00  0.00    -0.297 N 
ATOM      7  C   UNK A   0      34.765 -24.646 -12.963  0.00  0.00    +0.223 C 
ATOM      8  H   GLY A   1      35.508 -24.827 -14.863  0.00  0.00    +0.150 HD
BRANCH   6   9
ATOM      9  CA  GLY A   1      36.900 -25.762 -13.596  0.00  0.00    +0.171 C 
ATOM     10  CB  GLY A   1      38.014 -24.786 -13.247  0.00  0.00    +0.033 C 
BRANCH   9  12
ATOM     11  OXT GLY A   1      38.447 -27.190 -14.782  0.00  0.00    -0.248 OA
ATOM     12  C   GLY A   1      37.334 -26.677 -14.727  0.00  0.00    +0.332 C 
BRANCH  12  13
ATOM     13  O   GLY A   1      36.398 -26.878 -15.686  0.00  0.00    -0.479 OA
ATOM     14  H   GLY A   1      35.598 -27.317 -15.474  0.00  0.00    +0.295 HD
ENDBRANCH  12  13
ENDBRANCH   9  12
ENDBRANCH   6   9
ENDBRANCH   4   7
ENDBRANCH   3   4
ENDBRANCH   2   3
ENDBRANCH   1   2
BRANCH   1  15
ATOM     15  C   UNK A   2      31.011 -23.231 -16.305  0.00  0.00    +0.176 C 
BRANCH  15  17
ATOM     16  O   GLY A   1      33.652 -24.002 -17.121  0.00  0.00    -0.277 OA
ATOM     17  N   UNK A   2      31.839 -22.562 -17.285  0.00  0.00    -0.298 N 
ATOM     18  C   GLY A   1      33.106 -23.016 -17.609  0.00  0.00    +0.201 C 
ATOM     19  H   UNK A   2      31.490 -21.759 -17.736  0.00  0.00    +0.150 HD
BRANCH  18  20
ATOM     20  CA  GLY A   1      33.753 -22.145 -18.656  0.00  0.00    +0.001 C 
BRANCH  20  21
ATOM     21  N   GLY A   1      32.845 -21.911 -19.806  0.00  0.00    +0.386 N 
ATOM     22  H1  GLY A   1      32.662 -22.796 -20.278  0.00  0.00    -0.089 HD
ATOM     23  H2  GLY A   1      33.282 -21.261 -20.458  0.00  0.00    -0.089 HD
ATOM     24  H3  GLY A   1      31.966 -21.517 -19.470  0.00  0.00    -0.089 HD
ENDBRANCH  20  21
ENDBRANCH  18  20
ENDBRANCH  15  17
BRANCH  15  27
ATOM     25  O   UNK A   2      28.853 -24.205 -16.538  0.00  0.00    -0.244 OA
ATOM     26  O   UNK A   2      29.101 -21.980 -16.965  0.00  0.00    -0.244 OA
ATOM     27  C   UNK A   2      29.507 -23.128 -16.624  0.00  0.00    +0.382 C 
ENDBRANCH  15  27
ENDBRANCH   1  15
TORSDOF 12
ENDMDL
MODEL 9
REMARK VINA RESULT:      -7.0      8.826     11.497
REMARK  Name = 5289281
REMARK  12 active torsions:
REMARK  status: ('A' for Active; 'I' for Inactive)
REMARK    1  A    between atoms: C_1  and  C_2
REMARK    2  A    between atoms: C_1  and  C_15
REMARK    3  A    between atoms: C_2  and  C_3
REMARK    4  A    between atoms: C_3  and  C_4
REMARK    5  A    between atoms: C_4  and  C_7
REMARK    6  A    between atoms: N_6  and  CA_9
REMARK    7  A    between atoms: CA_9  and  C_12
REMARK    8  A    between atoms: C_12  and  O_13
REMARK    9  A    between atoms: C_15  and  N_17
REMARK   10  A    between atoms: C_15  and  C_27
REMARK   11  A    between atoms: C_18  and  CA_20
REMARK   12  A    between atoms: CA_20  and  N_21
REMARK                            x       y       z     vdW  Elec       q    Type
REMARK                         _______ _______ _______ _____ _____    ______ ____
ROOT
ATOM      1  C   UNK A   2      37.370 -23.717 -15.298  0.00  0.00    +0.031 C 
ENDROOT
BRANCH   1   2
ATOM      2  C   UNK A   2      36.463 -22.791 -16.119  0.00  0.00    +0.003 C 
BRANCH   2   3
ATOM      3  C   UNK A   0      34.994 -23.212 -16.000  0.00  0.00    +0.010 C 
BRANCH   3   4
ATOM      4  C   UNK A   0      34.205 -22.940 -17.281  0.00  0.00    +0.085 C 
BRANCH   4   7
ATOM      5  O   UNK A   0      31.901 -22.554 -17.916  0.00  0.00    -0.275 OA
ATOM      6  N   GLY A   1      32.354 -23.634 -15.911  0.00  0.00    -0.297 N 
ATOM      7  C   UNK A   0      32.699 -22.998 -17.095  0.00  0.00    +0.223 C 
ATOM      8  H   GLY A   1      33.077 -23.953 -15.323  0.00  0.00    +0.150 HD
BRANCH   6   9
ATOM      9  CA  GLY A   1      30.985 -23.848 -15.499  0.00  0.00    +0.171 C 
ATOM     10  CB  GLY A   1      30.485 -22.660 -14.691  0.00  0.00    +0.033 C 
BRANCH   9  12
ATOM     11  OXT GLY A   1      29.802 -25.805 -14.716  0.00  0.00    -0.248 OA
ATOM     12  C   GLY A   1      30.828 -25.133 -14.704  0.00  0.00    +0.332 C 
BRANCH  12  13
ATOM     13  O   GLY A   1      31.910 -25.478 -13.965  0.00  0.00    -0.479 OA
ATOM     14  H   GLY A   1      32.719 -25.688 -14.390  0.00  0.00    +0.295 HD
ENDBRANCH  12  13
ENDBRANCH   9  12
ENDBRANCH   6   9
ENDBRANCH   4   7
ENDBRANCH   3   4
ENDBRANCH   2   3
ENDBRANCH   1   2
BRANCH   1  15
ATOM     15  C   UNK A   2      36.619 -24.856 -14.595  0.00  0.00    +0.176 C 
BRANCH  15  17
ATOM     16  O   GLY A   1      34.343 -24.496 -12.884  0.00  0.00    -0.277 OA
ATOM     17  N   UNK A   2      36.641 -24.672 -13.160  0.00  0.00    -0.298 N 
ATOM     18  C   GLY A   1      35.481 -24.506 -12.423  0.00  0.00    +0.201 C 
ATOM     19  H   UNK A   2      37.508 -24.665 -12.693  0.00  0.00    +0.150 HD
BRANCH  18  20
ATOM     20  CA  GLY A   1      35.780 -24.337 -10.954  0.00  0.00    +0.001 C 
BRANCH  20  21
ATOM     21  N   GLY A   1      36.981 -23.493 -10.738  0.00  0.00    +0.386 N 
ATOM     22  H1  GLY A   1      37.805 -24.089 -10.662  0.00  0.00    -0.089 HD
ATOM     23  H2  GLY A   1      36.869 -22.956  -9.879  0.00  0.00    -0.089 HD
ATOM     24  H3  GLY A   1      37.094 -22.855 -11.526  0.00  0.00    -0.089 HD
ENDBRANCH  20  21
ENDBRANCH  18  20
ENDBRANCH  15  17
BRANCH  15  27
ATOM     25  O   UNK A   2      36.232 -26.885 -15.775  0.00  0.00    -0.244 OA
ATOM     26  O   UNK A   2      38.140 -26.681 -14.544  0.00  0.00    -0.244 OA
ATOM     27  C   UNK A   2      37.041 -26.275 -15.021  0.00  0.00    +0.382 C 
ENDBRANCH  15  27
ENDBRANCH   1  15
TORSDOF 12
ENDMDL
