MODEL 1
REMARK VINA RESULT:     -10.6      0.000      0.000
REMARK  Name = 6914626
REMARK  6 active torsions:
REMARK  status: ('A' for Active; 'I' for Inactive)
REMARK    1  A    between atoms: N_1  and  C_28
REMARK    2  A    between atoms: C_7  and  C_18
REMARK    3  A    between atoms: C_19  and  C_26
REMARK    4  A    between atoms: C_28  and  C_29
REMARK    5  A    between atoms: C_29  and  C_30
REMARK    6  A    between atoms: C_30  and  O_31
REMARK                            x       y       z     vdW  Elec       q    Type
REMARK                         _______ _______ _______ _____ _____    ______ ____
ROOT
ATOM      1  N   UNL     1      32.875 -23.400 -16.753  0.00  0.00    -0.327 N 
ATOM      2  C   UNL     1      33.624 -23.842 -15.689  0.00  0.00    +0.060 A 
ATOM      3  C   UNL     1      32.802 -23.808 -14.562  0.00  0.00    +0.017 A 
ATOM      4  C   UNL     1      31.598 -23.083 -16.353  0.00  0.00    +0.060 A 
ATOM      5  C   UNL     1      31.520 -23.328 -14.983  0.00  0.00    +0.017 A 
ATOM      6  C   UNL     1      34.957 -24.265 -15.640  0.00  0.00    +0.014 C 
ATOM      7  C   UNL     1      35.465 -24.667 -14.402  0.00  0.00    -0.007 C 
ATOM      8  C   UNL     1      33.337 -24.219 -13.324  0.00  0.00    +0.001 C 
ATOM      9  C   UNL     1      30.516 -22.600 -17.098  0.00  0.00    +0.017 C 
ATOM     10  C   UNL     1      30.300 -23.080 -14.321  0.00  0.00    +0.001 C 
ATOM     11  C   UNL     1      34.669 -24.645 -13.259  0.00  0.00    -0.003 C 
ATOM     12  C   UNL     1      29.317 -22.362 -16.420  0.00  0.00    +0.001 C 
ATOM     13  C   UNL     1      29.209 -22.598 -15.052  0.00  0.00    +0.000 C 
ENDROOT
BRANCH   7  18
ATOM     14  N   UNL     1      39.112 -24.693 -13.632  0.00  0.00    -0.337 NA
ATOM     15  N   UNL     1      38.533 -26.779 -14.690  0.00  0.00    -0.317 NA
ATOM     16  N   UNL     1      36.306 -27.209 -15.359  0.00  0.00    -0.335 N 
ATOM     17  N   UNL     1      40.738 -26.339 -14.020  0.00  0.00    -0.283 N 
ATOM     18  C   UNL     1      36.840 -25.111 -14.306  0.00  0.00    +0.138 C 
ATOM     19  C   UNL     1      37.821 -24.320 -13.743  0.00  0.00    +0.112 C 
ATOM     20  C   UNL     1      37.259 -26.342 -14.767  0.00  0.00    +0.178 C 
ATOM     21  C   UNL     1      39.395 -25.916 -14.119  0.00  0.00    +0.196 C 
ATOM     22  H   UNL     1      36.586 -28.092 -15.694  0.00  0.00    +0.144 HD
ATOM     23  H   UNL     1      35.366 -26.929 -15.435  0.00  0.00    +0.144 HD
ATOM     24  H   UNL     1      41.412 -25.749 -13.612  0.00  0.00    +0.156 HD
ATOM     25  H   UNL     1      41.001 -27.225 -14.360  0.00  0.00    +0.156 HD
BRANCH  19  26
ATOM     26  C   UNL     1      37.500 -22.963 -13.203  0.00  0.00    +0.056 C 
ATOM     27  C   UNL     1      37.436 -22.947 -11.681  0.00  0.00    +0.008 C 
ENDBRANCH  19  26
ENDBRANCH   7  18
BRANCH   1  28
ATOM     28  C   UNL     1      33.364 -23.285 -18.112  0.00  0.00    +0.109 C 
BRANCH  28  29
ATOM     29  C   UNL     1      34.448 -22.223 -18.291  0.00  0.00    +0.057 C 
BRANCH  29  30
ATOM     30  C   UNL     1      34.268 -21.380 -19.548  0.00  0.00    +0.144 C 
BRANCH  30  31
ATOM     31  O   UNL     1      32.937 -20.881 -19.575  0.00  0.00    -0.351 OA
ATOM     32  C   UNL     1      32.729 -20.014 -20.682  0.00  0.00    +0.174 C 
ENDBRANCH  30  31
ENDBRANCH  29  30
ENDBRANCH  28  29
ENDBRANCH   1  28
TORSDOF 6
ENDMDL
MODEL 2
REMARK VINA RESULT:     -10.3      6.036     10.529
REMARK  Name = 6914626
REMARK  6 active torsions:
REMARK  status: ('A' for Active; 'I' for Inactive)
REMARK    1  A    between atoms: N_1  and  C_28
REMARK    2  A    between atoms: C_7  and  C_18
REMARK    3  A    between atoms: C_19  and  C_26
REMARK    4  A    between atoms: C_28  and  C_29
REMARK    5  A    between atoms: C_29  and  C_30
REMARK    6  A    between atoms: C_30  and  O_31
REMARK                            x       y       z     vdW  Elec       q    Type
REMARK                         _______ _______ _______ _____ _____    ______ ____
ROOT
ATOM      1  N   UNL     1      34.150 -14.987 -22.858  0.00  0.00    -0.327 N 
ATOM      2  C   UNL     1      34.476 -16.321 -22.889  0.00  0.00    +0.060 A 
ATOM      3  C   UNL     1      34.305 -16.759 -24.203  0.00  0.00    +0.017 A 
ATOM      4  C   UNL     1      33.775 -14.546 -24.106  0.00  0.00    +0.060 A 
ATOM      5  C   UNL     1      33.862 -15.636 -24.972  0.00  0.00    +0.017 A 
ATOM      6  C   UNL     1      34.906 -17.167 -21.860  0.00  0.00    +0.014 C 
ATOM      7  C   UNL     1      35.170 -18.500 -22.184  0.00  0.00    -0.007 C 
ATOM      8  C   UNL     1      34.578 -18.109 -24.505  0.00  0.00    +0.001 C 
ATOM      9  C   UNL     1      33.369 -13.275 -24.527  0.00  0.00    +0.017 C 
ATOM     10  C   UNL     1      33.526 -15.448 -26.329  0.00  0.00    +0.001 C 
ATOM     11  C   UNL     1      35.009 -18.967 -23.486  0.00  0.00    -0.003 C 
ATOM     12  C   UNL     1      33.041 -13.114 -25.876  0.00  0.00    +0.001 C 
ATOM     13  C   UNL     1      33.118 -14.182 -26.766  0.00  0.00    +0.000 C 
ENDROOT
BRANCH   7  18
ATOM     14  N   UNL     1      35.095 -21.017 -19.436  0.00  0.00    -0.337 NA
ATOM     15  N   UNL     1      37.389 -20.429 -19.879  0.00  0.00    -0.317 NA
ATOM     16  N   UNL     1      37.922 -18.852 -21.559  0.00  0.00    -0.335 N 
ATOM     17  N   UNL     1      36.846 -21.993 -18.216  0.00  0.00    -0.283 N 
ATOM     18  C   UNL     1      35.616 -19.410 -21.149  0.00  0.00    +0.138 C 
ATOM     19  C   UNL     1      34.725 -20.158 -20.407  0.00  0.00    +0.112 C 
ATOM     20  C   UNL     1      36.948 -19.588 -20.838  0.00  0.00    +0.178 C 
ATOM     21  C   UNL     1      36.422 -21.102 -19.226  0.00  0.00    +0.196 C 
ATOM     22  H   UNL     1      38.878 -18.965 -21.351  0.00  0.00    +0.144 HD
ATOM     23  H   UNL     1      37.643 -18.228 -22.266  0.00  0.00    +0.144 HD
ATOM     24  H   UNL     1      36.183 -22.511 -17.706  0.00  0.00    +0.156 HD
ATOM     25  H   UNL     1      37.806 -22.095 -18.021  0.00  0.00    +0.156 HD
BRANCH  19  26
ATOM     26  C   UNL     1      33.252 -20.060 -20.645  0.00  0.00    +0.056 C 
ATOM     27  C   UNL     1      32.446 -20.826 -19.603  0.00  0.00    +0.008 C 
ENDBRANCH  19  26
ENDBRANCH   7  18
BRANCH   1  28
ATOM     28  C   UNL     1      34.197 -14.155 -21.673  0.00  0.00    +0.109 C 
BRANCH  28  29
ATOM     29  C   UNL     1      32.884 -14.118 -20.892  0.00  0.00    +0.057 C 
BRANCH  29  30
ATOM     30  C   UNL     1      32.034 -12.889 -21.194  0.00  0.00    +0.144 C 
BRANCH  30  31
ATOM     31  O   UNL     1      31.868 -12.144 -19.995  0.00  0.00    -0.351 OA
ATOM     32  C   UNL     1      31.037 -11.010 -20.198  0.00  0.00    +0.174 C 
ENDBRANCH  30  31
ENDBRANCH  29  30
ENDBRANCH  28  29
ENDBRANCH   1  28
TORSDOF 6
ENDMDL
MODEL 3
REMARK VINA RESULT:      -9.4     11.034     15.178
REMARK  Name = 6914626
REMARK  6 active torsions:
REMARK  status: ('A' for Active; 'I' for Inactive)
REMARK    1  A    between atoms: N_1  and  C_28
REMARK    2  A    between atoms: C_7  and  C_18
REMARK    3  A    between atoms: C_19  and  C_26
REMARK    4  A    between atoms: C_28  and  C_29
REMARK    5  A    between atoms: C_29  and  C_30
REMARK    6  A    between atoms: C_30  and  O_31
REMARK                            x       y       z     vdW  Elec       q    Type
REMARK                         _______ _______ _______ _____ _____    ______ ____
ROOT
ATOM      1  N   UNL     1      31.800 -10.262 -22.527  0.00  0.00    -0.327 N 
ATOM      2  C   UNL     1      32.634 -11.001 -23.331  0.00  0.00    +0.060 A 
ATOM      3  C   UNL     1      33.428 -10.102 -24.043  0.00  0.00    +0.017 A 
ATOM      4  C   UNL     1      32.028  -8.916 -22.694  0.00  0.00    +0.060 A 
ATOM      5  C   UNL     1      33.043  -8.783 -23.640  0.00  0.00    +0.017 A 
ATOM      6  C   UNL     1      32.743 -12.389 -23.479  0.00  0.00    +0.014 C 
ATOM      7  C   UNL     1      33.694 -12.871 -24.383  0.00  0.00    -0.007 C 
ATOM      8  C   UNL     1      34.380 -10.613 -24.949  0.00  0.00    +0.001 C 
ATOM      9  C   UNL     1      31.413  -7.817 -22.083  0.00  0.00    +0.017 C 
ATOM     10  C   UNL     1      33.469  -7.486 -23.995  0.00  0.00    +0.001 C 
ATOM     11  C   UNL     1      34.501 -11.998 -25.108  0.00  0.00    -0.003 C 
ATOM     12  C   UNL     1      31.852  -6.542 -22.451  0.00  0.00    +0.001 C 
ATOM     13  C   UNL     1      32.865  -6.376 -23.393  0.00  0.00    +0.000 C 
ENDROOT
BRANCH   7  18
ATOM     14  N   UNL     1      34.410 -16.460 -23.674  0.00  0.00    -0.337 NA
ATOM     15  N   UNL     1      33.700 -16.254 -25.967  0.00  0.00    -0.317 NA
ATOM     16  N   UNL     1      33.135 -14.141 -26.865  0.00  0.00    -0.335 N 
ATOM     17  N   UNL     1      34.261 -18.345 -25.063  0.00  0.00    -0.283 N 
ATOM     18  C   UNL     1      33.840 -14.300 -24.569  0.00  0.00    +0.138 C 
ATOM     19  C   UNL     1      34.261 -15.126 -23.546  0.00  0.00    +0.112 C 
ATOM     20  C   UNL     1      33.572 -14.926 -25.769  0.00  0.00    +0.178 C 
ATOM     21  C   UNL     1      34.117 -16.951 -24.893  0.00  0.00    +0.196 C 
ATOM     22  H   UNL     1      32.939 -14.569 -27.730  0.00  0.00    +0.144 HD
ATOM     23  H   UNL     1      33.029 -13.168 -26.763  0.00  0.00    +0.144 HD
ATOM     24  H   UNL     1      34.564 -18.905 -24.311  0.00  0.00    +0.156 HD
ATOM     25  H   UNL     1      34.061 -18.758 -25.934  0.00  0.00    +0.156 HD
BRANCH  19  26
ATOM     26  C   UNL     1      34.584 -14.574 -22.195  0.00  0.00    +0.056 C 
ATOM     27  C   UNL     1      34.575 -15.649 -21.114  0.00  0.00    +0.008 C 
ENDBRANCH  19  26
ENDBRANCH   7  18
BRANCH   1  28
ATOM     28  C   UNL     1      30.816 -10.823 -21.624  0.00  0.00    +0.109 C 
BRANCH  28  29
ATOM     29  C   UNL     1      31.418 -11.452 -20.368  0.00  0.00    +0.057 C 
BRANCH  29  30
ATOM     30  C   UNL     1      31.302 -10.566 -19.133  0.00  0.00    +0.144 C 
BRANCH  30  31
ATOM     31  O   UNL     1      32.449  -9.729 -19.063  0.00  0.00    -0.351 OA
ATOM     32  C   UNL     1      32.097  -8.355 -19.158  0.00  0.00    +0.174 C 
ENDBRANCH  30  31
ENDBRANCH  29  30
ENDBRANCH  28  29
ENDBRANCH   1  28
TORSDOF 6
ENDMDL
MODEL 4
REMARK VINA RESULT:      -9.2      9.860     14.400
REMARK  Name = 6914626
REMARK  6 active torsions:
REMARK  status: ('A' for Active; 'I' for Inactive)
REMARK    1  A    between atoms: N_1  and  C_28
REMARK    2  A    between atoms: C_7  and  C_18
REMARK    3  A    between atoms: C_19  and  C_26
REMARK    4  A    between atoms: C_28  and  C_29
REMARK    5  A    between atoms: C_29  and  C_30
REMARK    6  A    between atoms: C_30  and  O_31
REMARK                            x       y       z     vdW  Elec       q    Type
REMARK                         _______ _______ _______ _____ _____    ______ ____
ROOT
ATOM      1  N   UNL     1      34.087 -15.848 -24.061  0.00  0.00    -0.327 N 
ATOM      2  C   UNL     1      33.618 -14.864 -23.225  0.00  0.00    +0.060 A 
ATOM      3  C   UNL     1      33.605 -15.390 -21.933  0.00  0.00    +0.017 A 
ATOM      4  C   UNL     1      34.379 -16.991 -23.355  0.00  0.00    +0.060 A 
ATOM      5  C   UNL     1      34.087 -16.736 -22.016  0.00  0.00    +0.017 A 
ATOM      6  C   UNL     1      33.206 -13.557 -23.514  0.00  0.00    +0.014 C 
ATOM      7  C   UNL     1      32.770 -12.765 -22.449  0.00  0.00    -0.007 C 
ATOM      8  C   UNL     1      33.161 -14.570 -20.875  0.00  0.00    +0.001 C 
ATOM      9  C   UNL     1      34.874 -18.222 -23.800  0.00  0.00    +0.017 C 
ATOM     10  C   UNL     1      34.300 -17.761 -21.071  0.00  0.00    +0.001 C 
ATOM     11  C   UNL     1      32.746 -13.262 -21.148  0.00  0.00    -0.003 C 
ATOM     12  C   UNL     1      35.078 -19.222 -22.845  0.00  0.00    +0.001 C 
ATOM     13  C   UNL     1      34.796 -18.997 -21.500  0.00  0.00    +0.000 C 
ENDROOT
BRANCH   7  18
ATOM     14  N   UNL     1      32.691  -9.280 -23.772  0.00  0.00    -0.337 NA
ATOM     15  N   UNL     1      30.750  -9.623 -22.386  0.00  0.00    -0.317 NA
ATOM     16  N   UNL     1      30.381 -11.705 -21.327  0.00  0.00    -0.335 N 
ATOM     17  N   UNL     1      31.127  -7.562 -23.443  0.00  0.00    -0.283 N 
ATOM     18  C   UNL     1      32.334 -11.407 -22.703  0.00  0.00    +0.138 C 
ATOM     19  C   UNL     1      33.059 -10.551 -23.507  0.00  0.00    +0.112 C 
ATOM     20  C   UNL     1      31.177 -10.883 -22.164  0.00  0.00    +0.178 C 
ATOM     21  C   UNL     1      31.543  -8.887 -23.187  0.00  0.00    +0.196 C 
ATOM     22  H   UNL     1      29.552 -11.349 -20.933  0.00  0.00    +0.144 HD
ATOM     23  H   UNL     1      30.657 -12.631 -21.140  0.00  0.00    +0.144 HD
ATOM     24  H   UNL     1      31.669  -6.978 -24.021  0.00  0.00    +0.156 HD
ATOM     25  H   UNL     1      30.296  -7.222 -23.041  0.00  0.00    +0.156 HD
BRANCH  19  26
ATOM     26  C   UNL     1      34.332 -10.994 -24.154  0.00  0.00    +0.056 C 
ATOM     27  C   UNL     1      35.129  -9.826 -24.723  0.00  0.00    +0.008 C 
ENDBRANCH  19  26
ENDBRANCH   7  18
BRANCH   1  28
ATOM     28  C   UNL     1      34.253 -15.701 -25.493  0.00  0.00    +0.109 C 
BRANCH  28  29
ATOM     29  C   UNL     1      32.938 -15.692 -26.270  0.00  0.00    +0.057 C 
BRANCH  29  30
ATOM     30  C   UNL     1      32.578 -14.323 -26.836  0.00  0.00    +0.144 C 
BRANCH  30  31
ATOM     31  O   UNL     1      33.657 -13.864 -27.639  0.00  0.00    -0.351 OA
ATOM     32  C   UNL     1      34.023 -12.532 -27.307  0.00  0.00    +0.174 C 
ENDBRANCH  30  31
ENDBRANCH  29  30
ENDBRANCH  28  29
ENDBRANCH   1  28
TORSDOF 6
ENDMDL
MODEL 5
REMARK VINA RESULT:      -9.1      9.633     14.121
REMARK  Name = 6914626
REMARK  6 active torsions:
REMARK  status: ('A' for Active; 'I' for Inactive)
REMARK    1  A    between atoms: N_1  and  C_28
REMARK    2  A    between atoms: C_7  and  C_18
REMARK    3  A    between atoms: C_19  and  C_26
REMARK    4  A    between atoms: C_28  and  C_29
REMARK    5  A    between atoms: C_29  and  C_30
REMARK    6  A    between atoms: C_30  and  O_31
REMARK                            x       y       z     vdW  Elec       q    Type
REMARK                         _______ _______ _______ _____ _____    ______ ____
ROOT
ATOM      1  N   UNL     1      34.199 -16.094 -24.000  0.00  0.00    -0.327 N 
ATOM      2  C   UNL     1      33.805 -15.049 -23.199  0.00  0.00    +0.060 A 
ATOM      3  C   UNL     1      33.784 -15.520 -21.886  0.00  0.00    +0.017 A 
ATOM      4  C   UNL     1      34.434 -17.223 -23.250  0.00  0.00    +0.060 A 
ATOM      5  C   UNL     1      34.182 -16.895 -21.919  0.00  0.00    +0.017 A 
ATOM      6  C   UNL     1      33.468 -13.733 -23.537  0.00  0.00    +0.014 C 
ATOM      7  C   UNL     1      33.099 -12.873 -22.500  0.00  0.00    -0.007 C 
ATOM      8  C   UNL     1      33.408 -14.632 -20.857  0.00  0.00    +0.001 C 
ATOM      9  C   UNL     1      34.847 -18.499 -23.651  0.00  0.00    +0.017 C 
ATOM     10  C   UNL     1      34.350 -17.891 -20.935  0.00  0.00    +0.001 C 
ATOM     11  C   UNL     1      33.068 -13.313 -21.179  0.00  0.00    -0.003 C 
ATOM     12  C   UNL     1      35.007 -19.469 -22.657  0.00  0.00    +0.001 C 
ATOM     13  C   UNL     1      34.763 -19.172 -21.319  0.00  0.00    +0.000 C 
ENDROOT
BRANCH   7  18
ATOM     14  N   UNL     1      31.280  -9.618 -22.476  0.00  0.00    -0.337 NA
ATOM     15  N   UNL     1      33.147  -9.447 -23.990  0.00  0.00    -0.317 NA
ATOM     16  N   UNL     1      34.594 -11.287 -24.326  0.00  0.00    -0.335 N 
ATOM     17  N   UNL     1      31.704  -7.629 -23.645  0.00  0.00    -0.283 N 
ATOM     18  C   UNL     1      32.741 -11.502 -22.805  0.00  0.00    +0.138 C 
ATOM     19  C   UNL     1      31.650 -10.891 -22.222  0.00  0.00    +0.112 C 
ATOM     20  C   UNL     1      33.459 -10.725 -23.689  0.00  0.00    +0.178 C 
ATOM     21  C   UNL     1      32.061  -8.964 -23.356  0.00  0.00    +0.196 C 
ATOM     22  H   UNL     1      35.120 -10.747 -24.961  0.00  0.00    +0.144 HD
ATOM     23  H   UNL     1      34.857 -12.216 -24.135  0.00  0.00    +0.144 HD
ATOM     24  H   UNL     1      30.919  -7.224 -23.212  0.00  0.00    +0.156 HD
ATOM     25  H   UNL     1      32.240  -7.103 -24.282  0.00  0.00    +0.156 HD
BRANCH  19  26
ATOM     26  C   UNL     1      30.787 -11.622 -21.245  0.00  0.00    +0.056 C 
ATOM     27  C   UNL     1      30.768 -10.953 -19.876  0.00  0.00    +0.008 C 
ENDBRANCH  19  26
ENDBRANCH   7  18
BRANCH   1  28
ATOM     28  C   UNL     1      34.349 -16.017 -25.439  0.00  0.00    +0.109 C 
BRANCH  28  29
ATOM     29  C   UNL     1      33.034 -16.156 -26.205  0.00  0.00    +0.057 C 
BRANCH  29  30
ATOM     30  C   UNL     1      32.540 -14.844 -26.803  0.00  0.00    +0.144 C 
BRANCH  30  31
ATOM     31  O   UNL     1      33.647 -14.157 -27.373  0.00  0.00    -0.351 OA
ATOM     32  C   UNL     1      33.509 -12.749 -27.242  0.00  0.00    +0.174 C 
ENDBRANCH  30  31
ENDBRANCH  29  30
ENDBRANCH  28  29
ENDBRANCH   1  28
TORSDOF 6
ENDMDL
MODEL 6
REMARK VINA RESULT:      -9.0     15.081     19.502
REMARK  Name = 6914626
REMARK  6 active torsions:
REMARK  status: ('A' for Active; 'I' for Inactive)
REMARK    1  A    between atoms: N_1  and  C_28
REMARK    2  A    between atoms: C_7  and  C_18
REMARK    3  A    between atoms: C_19  and  C_26
REMARK    4  A    between atoms: C_28  and  C_29
REMARK    5  A    between atoms: C_29  and  C_30
REMARK    6  A    between atoms: C_30  and  O_31
REMARK                            x       y       z     vdW  Elec       q    Type
REMARK                         _______ _______ _______ _____ _____    ______ ____
ROOT
ATOM      1  N   UNL     1      32.239  -5.313 -25.227  0.00  0.00    -0.327 N 
ATOM      2  C   UNL     1      32.812  -6.287 -24.445  0.00  0.00    +0.060 A 
ATOM      3  C   UNL     1      34.112  -6.482 -24.912  0.00  0.00    +0.017 A 
ATOM      4  C   UNL     1      33.124  -4.871 -26.182  0.00  0.00    +0.060 A 
ATOM      5  C   UNL     1      34.309  -5.585 -26.011  0.00  0.00    +0.017 A 
ATOM      6  C   UNL     1      32.280  -7.005 -23.367  0.00  0.00    +0.014 C 
ATOM      7  C   UNL     1      33.103  -7.950 -22.748  0.00  0.00    -0.007 C 
ATOM      8  C   UNL     1      34.923  -7.441 -24.271  0.00  0.00    +0.001 C 
ATOM      9  C   UNL     1      32.963  -3.899 -27.177  0.00  0.00    +0.017 C 
ATOM     10  C   UNL     1      35.389  -5.318 -26.877  0.00  0.00    +0.001 C 
ATOM     11  C   UNL     1      34.405  -8.167 -23.192  0.00  0.00    -0.003 C 
ATOM     12  C   UNL     1      34.048  -3.652 -28.022  0.00  0.00    +0.001 C 
ATOM     13  C   UNL     1      35.244  -4.349 -27.876  0.00  0.00    +0.000 C 
ENDROOT
BRANCH   7  18
ATOM     14  N   UNL     1      31.563 -10.722 -20.789  0.00  0.00    -0.337 NA
ATOM     15  N   UNL     1      32.143  -8.939 -19.276  0.00  0.00    -0.317 NA
ATOM     16  N   UNL     1      33.154  -6.959 -20.083  0.00  0.00    -0.335 N 
ATOM     17  N   UNL     1      31.140 -10.908 -18.488  0.00  0.00    -0.283 N 
ATOM     18  C   UNL     1      32.592  -8.716 -21.630  0.00  0.00    +0.138 C 
ATOM     19  C   UNL     1      32.049  -9.974 -21.800  0.00  0.00    +0.112 C 
ATOM     20  C   UNL     1      32.612  -8.245 -20.334  0.00  0.00    +0.178 C 
ATOM     21  C   UNL     1      31.639 -10.152 -19.571  0.00  0.00    +0.196 C 
ATOM     22  H   UNL     1      33.178  -6.606 -19.164  0.00  0.00    +0.144 HD
ATOM     23  H   UNL     1      33.507  -6.420 -20.827  0.00  0.00    +0.144 HD
ATOM     24  H   UNL     1      30.759 -11.802 -18.646  0.00  0.00    +0.156 HD
ATOM     25  H   UNL     1      31.171 -10.540 -17.576  0.00  0.00    +0.156 HD
BRANCH  19  26
ATOM     26  C   UNL     1      31.968 -10.601 -23.154  0.00  0.00    +0.056 C 
ATOM     27  C   UNL     1      33.065 -11.635 -23.380  0.00  0.00    +0.008 C 
ENDBRANCH  19  26
ENDBRANCH   7  18
BRANCH   1  28
ATOM     28  C   UNL     1      30.888  -4.817 -25.065  0.00  0.00    +0.109 C 
BRANCH  28  29
ATOM     29  C   UNL     1      30.813  -3.412 -24.468  0.00  0.00    +0.057 C 
BRANCH  29  30
ATOM     30  C   UNL     1      31.174  -3.364 -22.988  0.00  0.00    +0.144 C 
BRANCH  30  31
ATOM     31  O   UNL     1      30.061  -3.823 -22.232  0.00  0.00    -0.351 OA
ATOM     32  C   UNL     1      30.374  -5.008 -21.513  0.00  0.00    +0.174 C 
ENDBRANCH  30  31
ENDBRANCH  29  30
ENDBRANCH  28  29
ENDBRANCH   1  28
TORSDOF 6
ENDMDL
MODEL 7
REMARK VINA RESULT:      -8.9      5.902     10.469
REMARK  Name = 6914626
REMARK  6 active torsions:
REMARK  status: ('A' for Active; 'I' for Inactive)
REMARK    1  A    between atoms: N_1  and  C_28
REMARK    2  A    between atoms: C_7  and  C_18
REMARK    3  A    between atoms: C_19  and  C_26
REMARK    4  A    between atoms: C_28  and  C_29
REMARK    5  A    between atoms: C_29  and  C_30
REMARK    6  A    between atoms: C_30  and  O_31
REMARK                            x       y       z     vdW  Elec       q    Type
REMARK                         _______ _______ _______ _____ _____    ______ ____
ROOT
ATOM      1  N   UNL     1      33.989 -15.018 -22.581  0.00  0.00    -0.327 N 
ATOM      2  C   UNL     1      34.176 -16.378 -22.637  0.00  0.00    +0.060 A 
ATOM      3  C   UNL     1      34.077 -16.755 -23.977  0.00  0.00    +0.017 A 
ATOM      4  C   UNL     1      33.774 -14.503 -23.838  0.00  0.00    +0.060 A 
ATOM      5  C   UNL     1      33.823 -15.568 -24.736  0.00  0.00    +0.017 A 
ATOM      6  C   UNL     1      34.423 -17.296 -21.609  0.00  0.00    +0.014 C 
ATOM      7  C   UNL     1      34.575 -18.639 -21.963  0.00  0.00    -0.007 C 
ATOM      8  C   UNL     1      34.234 -18.117 -24.308  0.00  0.00    +0.001 C 
ATOM      9  C   UNL     1      33.540 -13.183 -24.241  0.00  0.00    +0.017 C 
ATOM     10  C   UNL     1      33.629 -15.304 -26.108  0.00  0.00    +0.001 C 
ATOM     11  C   UNL     1      34.481 -19.046 -23.292  0.00  0.00    -0.003 C 
ATOM     12  C   UNL     1      33.352 -12.946 -25.605  0.00  0.00    +0.001 C 
ATOM     13  C   UNL     1      33.395 -13.989 -26.527  0.00  0.00    +0.000 C 
ENDROOT
BRANCH   7  18
ATOM     14  N   UNL     1      36.368 -20.688 -19.417  0.00  0.00    -0.337 NA
ATOM     15  N   UNL     1      34.060 -21.378 -19.475  0.00  0.00    -0.317 NA
ATOM     16  N   UNL     1      32.533 -20.344 -20.955  0.00  0.00    -0.335 N 
ATOM     17  N   UNL     1      35.585 -22.395 -18.010  0.00  0.00    -0.283 N 
ATOM     18  C   UNL     1      34.830 -19.623 -20.931  0.00  0.00    +0.138 C 
ATOM     19  C   UNL     1      36.085 -19.787 -20.379  0.00  0.00    +0.112 C 
ATOM     20  C   UNL     1      33.847 -20.455 -20.435  0.00  0.00    +0.178 C 
ATOM     21  C   UNL     1      35.325 -21.441 -19.017  0.00  0.00    +0.196 C 
ATOM     22  H   UNL     1      31.818 -20.928 -20.614  0.00  0.00    +0.144 HD
ATOM     23  H   UNL     1      32.336 -19.683 -21.657  0.00  0.00    +0.144 HD
ATOM     24  H   UNL     1      36.492 -22.485 -17.638  0.00  0.00    +0.156 HD
ATOM     25  H   UNL     1      34.858 -22.972 -17.680  0.00  0.00    +0.156 HD
BRANCH  19  26
ATOM     26  C   UNL     1      37.238 -18.949 -20.827  0.00  0.00    +0.056 C 
ATOM     27  C   UNL     1      37.482 -19.053 -22.328  0.00  0.00    +0.008 C 
ENDBRANCH  19  26
ENDBRANCH   7  18
BRANCH   1  28
ATOM     28  C   UNL     1      34.017 -14.233 -21.364  0.00  0.00    +0.109 C 
BRANCH  28  29
ATOM     29  C   UNL     1      32.661 -14.121 -20.670  0.00  0.00    +0.057 C 
BRANCH  29  30
ATOM     30  C   UNL     1      31.915 -12.833 -21.000  0.00  0.00    +0.144 C 
BRANCH  30  31
ATOM     31  O   UNL     1      31.858 -12.027 -19.831  0.00  0.00    -0.351 OA
ATOM     32  C   UNL     1      31.108 -10.841 -20.052  0.00  0.00    +0.174 C 
ENDBRANCH  30  31
ENDBRANCH  29  30
ENDBRANCH  28  29
ENDBRANCH   1  28
TORSDOF 6
ENDMDL
MODEL 8
REMARK VINA RESULT:      -8.8      0.724      2.055
REMARK  Name = 6914626
REMARK  6 active torsions:
REMARK  status: ('A' for Active; 'I' for Inactive)
REMARK    1  A    between atoms: N_1  and  C_28
REMARK    2  A    between atoms: C_7  and  C_18
REMARK    3  A    between atoms: C_19  and  C_26
REMARK    4  A    between atoms: C_28  and  C_29
REMARK    5  A    between atoms: C_29  and  C_30
REMARK    6  A    between atoms: C_30  and  O_31
REMARK                            x       y       z     vdW  Elec       q    Type
REMARK                         _______ _______ _______ _____ _____    ______ ____
ROOT
ATOM      1  N   UNL     1      32.969 -23.409 -16.664  0.00  0.00    -0.327 N 
ATOM      2  C   UNL     1      33.722 -23.821 -15.590  0.00  0.00    +0.060 A 
ATOM      3  C   UNL     1      32.899 -23.773 -14.464  0.00  0.00    +0.017 A 
ATOM      4  C   UNL     1      31.689 -23.098 -16.271  0.00  0.00    +0.060 A 
ATOM      5  C   UNL     1      31.613 -23.315 -14.896  0.00  0.00    +0.017 A 
ATOM      6  C   UNL     1      35.060 -24.228 -15.532  0.00  0.00    +0.014 C 
ATOM      7  C   UNL     1      35.571 -24.598 -14.286  0.00  0.00    -0.007 C 
ATOM      8  C   UNL     1      33.439 -24.152 -13.218  0.00  0.00    +0.001 C 
ATOM      9  C   UNL     1      30.602 -22.643 -17.026  0.00  0.00    +0.017 C 
ATOM     10  C   UNL     1      30.390 -23.067 -14.240  0.00  0.00    +0.001 C 
ATOM     11  C   UNL     1      34.775 -24.561 -13.144  0.00  0.00    -0.003 C 
ATOM     12  C   UNL     1      29.400 -22.404 -16.354  0.00  0.00    +0.001 C 
ATOM     13  C   UNL     1      29.293 -22.612 -14.981  0.00  0.00    +0.000 C 
ENDROOT
BRANCH   7  18
ATOM     14  N   UNL     1      38.636 -26.705 -14.544  0.00  0.00    -0.337 NA
ATOM     15  N   UNL     1      39.230 -24.602 -13.528  0.00  0.00    -0.317 NA
ATOM     16  N   UNL     1      37.589 -22.939 -13.163  0.00  0.00    -0.335 N 
ATOM     17  N   UNL     1      40.848 -26.261 -13.897  0.00  0.00    -0.283 N 
ATOM     18  C   UNL     1      36.952 -25.025 -14.180  0.00  0.00    +0.138 C 
ATOM     19  C   UNL     1      37.363 -26.267 -14.621  0.00  0.00    +0.112 C 
ATOM     20  C   UNL     1      37.938 -24.228 -13.637  0.00  0.00    +0.178 C 
ATOM     21  C   UNL     1      39.505 -25.835 -13.994  0.00  0.00    +0.196 C 
ATOM     22  H   UNL     1      38.279 -22.355 -12.772  0.00  0.00    +0.144 HD
ATOM     23  H   UNL     1      36.658 -22.627 -13.224  0.00  0.00    +0.144 HD
ATOM     24  H   UNL     1      41.106 -27.154 -14.222  0.00  0.00    +0.156 HD
ATOM     25  H   UNL     1      41.525 -25.665 -13.504  0.00  0.00    +0.156 HD
BRANCH  19  26
ATOM     26  C   UNL     1      36.394 -27.228 -15.231  0.00  0.00    +0.056 C 
ATOM     27  C   UNL     1      36.774 -27.605 -16.658  0.00  0.00    +0.008 C 
ENDBRANCH  19  26
ENDBRANCH   7  18
BRANCH   1  28
ATOM     28  C   UNL     1      33.457 -23.318 -18.025  0.00  0.00    +0.109 C 
BRANCH  28  29
ATOM     29  C   UNL     1      34.522 -22.241 -18.228  0.00  0.00    +0.057 C 
BRANCH  29  30
ATOM     30  C   UNL     1      34.357 -21.464 -19.529  0.00  0.00    +0.144 C 
BRANCH  30  31
ATOM     31  O   UNL     1      32.982 -21.150 -19.700  0.00  0.00    -0.351 OA
ATOM     32  C   UNL     1      32.804 -20.058 -20.593  0.00  0.00    +0.174 C 
ENDBRANCH  30  31
ENDBRANCH  29  30
ENDBRANCH  28  29
ENDBRANCH   1  28
TORSDOF 6
ENDMDL
MODEL 9
REMARK VINA RESULT:      -8.8     12.220     15.481
REMARK  Name = 6914626
REMARK  6 active torsions:
REMARK  status: ('A' for Active; 'I' for Inactive)
REMARK    1  A    between atoms: N_1  and  C_28
REMARK    2  A    between atoms: C_7  and  C_18
REMARK    3  A    between atoms: C_19  and  C_26
REMARK    4  A    between atoms: C_28  and  C_29
REMARK    5  A    between atoms: C_29  and  C_30
REMARK    6  A    between atoms: C_30  and  O_31
REMARK                            x       y       z     vdW  Elec       q    Type
REMARK                         _______ _______ _______ _____ _____    ______ ____
ROOT
ATOM      1  N   UNL     1      31.688 -10.121 -22.487  0.00  0.00    -0.327 N 
ATOM      2  C   UNL     1      32.561 -10.866 -23.243  0.00  0.00    +0.060 A 
ATOM      3  C   UNL     1      33.378  -9.971 -23.934  0.00  0.00    +0.017 A 
ATOM      4  C   UNL     1      31.914  -8.776 -22.664  0.00  0.00    +0.060 A 
ATOM      5  C   UNL     1      32.968  -8.649 -23.567  0.00  0.00    +0.017 A 
ATOM      6  C   UNL     1      32.686 -12.255 -23.366  0.00  0.00    +0.014 C 
ATOM      7  C   UNL     1      33.678 -12.742 -24.221  0.00  0.00    -0.007 C 
ATOM      8  C   UNL     1      34.372 -10.488 -24.791  0.00  0.00    +0.001 C 
ATOM      9  C   UNL     1      31.266  -7.673 -22.096  0.00  0.00    +0.017 C 
ATOM     10  C   UNL     1      33.400  -7.354 -23.923  0.00  0.00    +0.001 C 
ATOM     11  C   UNL     1      34.509 -11.874 -24.924  0.00  0.00    -0.003 C 
ATOM     12  C   UNL     1      31.712  -6.400 -22.464  0.00  0.00    +0.001 C 
ATOM     13  C   UNL     1      32.763  -6.241 -23.363  0.00  0.00    +0.000 C 
ENDROOT
BRANCH   7  18
ATOM     14  N   UNL     1      33.550 -16.159 -25.706  0.00  0.00    -0.337 NA
ATOM     15  N   UNL     1      34.591 -16.300 -23.538  0.00  0.00    -0.317 NA
ATOM     16  N   UNL     1      34.888 -14.360 -22.219  0.00  0.00    -0.335 N 
ATOM     17  N   UNL     1      34.292 -18.217 -24.857  0.00  0.00    -0.283 N 
ATOM     18  C   UNL     1      33.842 -14.173 -24.380  0.00  0.00    +0.138 C 
ATOM     19  C   UNL     1      33.417 -14.831 -25.516  0.00  0.00    +0.112 C 
ATOM     20  C   UNL     1      34.427 -14.967 -23.415  0.00  0.00    +0.178 C 
ATOM     21  C   UNL     1      34.136 -16.824 -24.692  0.00  0.00    +0.196 C 
ATOM     22  H   UNL     1      35.308 -14.909 -21.519  0.00  0.00    +0.144 HD
ATOM     23  H   UNL     1      34.787 -13.390 -22.089  0.00  0.00    +0.144 HD
ATOM     24  H   UNL     1      33.977 -18.654 -25.682  0.00  0.00    +0.156 HD
ATOM     25  H   UNL     1      34.714 -18.752 -24.147  0.00  0.00    +0.156 HD
BRANCH  19  26
ATOM     26  C   UNL     1      32.768 -14.088 -26.639  0.00  0.00    +0.056 C 
ATOM     27  C   UNL     1      33.783 -13.540 -27.634  0.00  0.00    +0.008 C 
ENDBRANCH  19  26
ENDBRANCH   7  18
BRANCH   1  28
ATOM     28  C   UNL     1      30.670 -10.677 -21.618  0.00  0.00    +0.109 C 
BRANCH  28  29
ATOM     29  C   UNL     1      31.231 -11.406 -20.398  0.00  0.00    +0.057 C 
BRANCH  29  30
ATOM     30  C   UNL     1      31.239 -10.554 -19.134  0.00  0.00    +0.144 C 
BRANCH  30  31
ATOM     31  O   UNL     1      32.412  -9.752 -19.133  0.00  0.00    -0.351 OA
ATOM     32  C   UNL     1      32.096  -8.367 -19.130  0.00  0.00    +0.174 C 
ENDBRANCH  30  31
ENDBRANCH  29  30
ENDBRANCH  28  29
ENDBRANCH   1  28
TORSDOF 6
ENDMDL
