MODEL 1
REMARK VINA RESULT:     -10.6      0.000      0.000
REMARK  Name = 5287541
REMARK  3 active torsions:
REMARK  status: ('A' for Active; 'I' for Inactive)
REMARK    1  A    between atoms: C_16  and  O_17
REMARK    2  A    between atoms: O_17  and  S_18
REMARK    3  A    between atoms: S_18  and  N_21
REMARK                            x       y       z     vdW  Elec       q    Type
REMARK                         _______ _______ _______ _____ _____    ______ ____
ROOT
ATOM      1  O   UNL     1      34.497 -23.162 -17.024  0.00  0.00    -0.421 OA
ATOM      2  O   UNL     1      32.693 -22.764 -18.339  0.00  0.00    -0.245 OA
ATOM      3  C   UNL     1      30.911 -24.839 -13.713  0.00  0.00    +0.005 C 
ATOM      4  C   UNL     1      31.840 -23.626 -13.623  0.00  0.00    +0.026 C 
ATOM      5  C   UNL     1      29.679 -24.598 -14.587  0.00  0.00    +0.001 C 
ATOM      6  C   UNL     1      32.759 -23.505 -14.821  0.00  0.00    -0.017 A 
ATOM      7  C   UNL     1      29.969 -24.281 -16.054  0.00  0.00    +0.005 C 
ATOM      8  C   UNL     1      30.772 -22.995 -16.270  0.00  0.00    +0.033 C 
ATOM      9  C   UNL     1      32.256 -23.186 -16.033  0.00  0.00    +0.050 A 
ATOM     10  C   UNL     1      34.209 -23.747 -14.675  0.00  0.00    +0.031 A 
ATOM     11  C   UNL     1      35.030 -23.548 -15.783  0.00  0.00    +0.151 A 
ATOM     12  C   UNL     1      33.134 -23.024 -17.224  0.00  0.00    +0.341 A 
ATOM     13  C   UNL     1      34.836 -24.178 -13.496  0.00  0.00    +0.006 C 
ATOM     14  C   UNL     1      36.415 -23.736 -15.744  0.00  0.00    +0.077 C 
ATOM     15  C   UNL     1      36.223 -24.373 -13.438  0.00  0.00    +0.040 C 
ATOM     16  C   UNL     1      37.012 -24.148 -14.561  0.00  0.00    +0.176 C 
ENDROOT
BRANCH  16  17
ATOM     17  O   UNL     1      38.357 -24.339 -14.501  0.00  0.00    -0.349 OA
BRANCH  17  18
ATOM     18  S   UNL     1      39.070 -25.813 -14.622  0.00  0.00    +0.086 S 
ATOM     19  O   UNL     1      38.088 -26.753 -15.130  0.00  0.00    -0.046 OA
ATOM     20  O   UNL     1      39.783 -26.077 -13.385  0.00  0.00    -0.046 OA
BRANCH  18  21
ATOM     21  N   UNL     1      40.244 -25.582 -15.852  0.00  0.00    -0.194 NA
ATOM     22  H   UNL     1      41.024 -25.038 -15.480  0.00  0.00    +0.145 HD
ATOM     23  H   UNL     1      39.823 -25.080 -16.635  0.00  0.00    +0.145 HD
ENDBRANCH  18  21
ENDBRANCH  17  18
ENDBRANCH  16  17
TORSDOF 3
ENDMDL
MODEL 2
REMARK VINA RESULT:     -10.2      2.760      4.581
REMARK  Name = 5287541
REMARK  3 active torsions:
REMARK  status: ('A' for Active; 'I' for Inactive)
REMARK    1  A    between atoms: C_16  and  O_17
REMARK    2  A    between atoms: O_17  and  S_18
REMARK    3  A    between atoms: S_18  and  N_21
REMARK                            x       y       z     vdW  Elec       q    Type
REMARK                         _______ _______ _______ _____ _____    ______ ____
ROOT
ATOM      1  O   UNL     1      33.704 -23.006 -16.605  0.00  0.00    -0.421 OA
ATOM      2  O   UNL     1      31.809 -22.663 -17.803  0.00  0.00    -0.245 OA
ATOM      3  C   UNL     1      35.780 -19.974 -20.227  0.00  0.00    +0.005 C 
ATOM      4  C   UNL     1      36.018 -21.456 -19.934  0.00  0.00    +0.026 C 
ATOM      5  C   UNL     1      34.513 -19.711 -21.043  0.00  0.00    +0.001 C 
ATOM      6  C   UNL     1      35.202 -21.957 -18.759  0.00  0.00    -0.017 A 
ATOM      7  C   UNL     1      33.205 -20.140 -20.378  0.00  0.00    +0.005 C 
ATOM      8  C   UNL     1      33.106 -21.644 -20.106  0.00  0.00    +0.033 C 
ATOM      9  C   UNL     1      33.860 -22.065 -18.862  0.00  0.00    +0.050 A 
ATOM     10  C   UNL     1      35.868 -22.318 -17.491  0.00  0.00    +0.031 A 
ATOM     11  C   UNL     1      35.092 -22.848 -16.462  0.00  0.00    +0.151 A 
ATOM     12  C   UNL     1      33.032 -22.586 -17.740  0.00  0.00    +0.341 A 
ATOM     13  C   UNL     1      37.237 -22.158 -17.229  0.00  0.00    +0.006 C 
ATOM     14  C   UNL     1      35.628 -23.235 -15.230  0.00  0.00    +0.077 C 
ATOM     15  C   UNL     1      37.792 -22.538 -15.999  0.00  0.00    +0.040 C 
ATOM     16  C   UNL     1      36.989 -23.080 -15.002  0.00  0.00    +0.176 C 
ENDROOT
BRANCH  16  17
ATOM     17  O   UNL     1      37.530 -23.447 -13.810  0.00  0.00    -0.349 OA
BRANCH  17  18
ATOM     18  S   UNL     1      38.259 -24.895 -13.553  0.00  0.00    +0.086 S 
ATOM     19  O   UNL     1      39.691 -24.678 -13.476  0.00  0.00    -0.046 OA
ATOM     20  O   UNL     1      37.702 -25.857 -14.487  0.00  0.00    -0.046 OA
BRANCH  18  21
ATOM     21  N   UNL     1      37.720 -25.333 -11.984  0.00  0.00    -0.194 NA
ATOM     22  H   UNL     1      36.767 -24.995 -11.844  0.00  0.00    +0.145 HD
ATOM     23  H   UNL     1      38.335 -24.916 -11.284  0.00  0.00    +0.145 HD
ENDBRANCH  18  21
ENDBRANCH  17  18
ENDBRANCH  16  17
TORSDOF 3
ENDMDL
MODEL 3
REMARK VINA RESULT:      -9.5      4.385      6.449
REMARK  Name = 5287541
REMARK  3 active torsions:
REMARK  status: ('A' for Active; 'I' for Inactive)
REMARK    1  A    between atoms: C_16  and  O_17
REMARK    2  A    between atoms: O_17  and  S_18
REMARK    3  A    between atoms: S_18  and  N_21
REMARK                            x       y       z     vdW  Elec       q    Type
REMARK                         _______ _______ _______ _____ _____    ______ ____
ROOT
ATOM      1  O   UNL     1      36.512 -22.496 -17.051  0.00  0.00    -0.421 OA
ATOM      2  O   UNL     1      36.819 -23.473 -15.028  0.00  0.00    -0.245 OA
ATOM      3  C   UNL     1      31.529 -22.874 -15.764  0.00  0.00    +0.005 C 
ATOM      4  C   UNL     1      32.313 -23.580 -16.872  0.00  0.00    +0.026 C 
ATOM      5  C   UNL     1      31.708 -23.516 -14.388  0.00  0.00    +0.001 C 
ATOM      6  C   UNL     1      33.771 -23.168 -16.910  0.00  0.00    -0.017 A 
ATOM      7  C   UNL     1      33.138 -23.516 -13.846  0.00  0.00    +0.005 C 
ATOM      8  C   UNL     1      34.131 -24.308 -14.702  0.00  0.00    +0.033 C 
ATOM      9  C   UNL     1      34.606 -23.534 -15.914  0.00  0.00    +0.050 A 
ATOM     10  C   UNL     1      34.284 -22.352 -18.029  0.00  0.00    +0.031 A 
ATOM     11  C   UNL     1      35.646 -22.060 -18.067  0.00  0.00    +0.151 A 
ATOM     12  C   UNL     1      36.050 -23.176 -15.937  0.00  0.00    +0.341 A 
ATOM     13  C   UNL     1      33.499 -21.829 -19.068  0.00  0.00    +0.006 C 
ATOM     14  C   UNL     1      36.232 -21.309 -19.090  0.00  0.00    +0.077 C 
ATOM     15  C   UNL     1      34.068 -21.072 -20.101  0.00  0.00    +0.040 C 
ATOM     16  C   UNL     1      35.435 -20.816 -20.114  0.00  0.00    +0.176 C 
ENDROOT
BRANCH  16  17
ATOM     17  O   UNL     1      35.984 -20.081 -21.118  0.00  0.00    -0.349 OA
BRANCH  17  18
ATOM     18  S   UNL     1      35.336 -18.680 -21.675  0.00  0.00    +0.086 S 
ATOM     19  O   UNL     1      35.317 -17.721 -20.585  0.00  0.00    -0.046 OA
ATOM     20  O   UNL     1      34.122 -18.998 -22.406  0.00  0.00    -0.046 OA
BRANCH  18  21
ATOM     21  N   UNL     1      36.495 -18.137 -22.817  0.00  0.00    -0.194 NA
ATOM     22  H   UNL     1      37.075 -18.923 -23.114  0.00  0.00    +0.145 HD
ATOM     23  H   UNL     1      37.085 -17.422 -22.390  0.00  0.00    +0.145 HD
ENDBRANCH  18  21
ENDBRANCH  17  18
ENDBRANCH  16  17
TORSDOF 3
ENDMDL
MODEL 4
REMARK VINA RESULT:      -9.3     11.947     14.027
REMARK  Name = 5287541
REMARK  3 active torsions:
REMARK  status: ('A' for Active; 'I' for Inactive)
REMARK    1  A    between atoms: C_16  and  O_17
REMARK    2  A    between atoms: O_17  and  S_18
REMARK    3  A    between atoms: S_18  and  N_21
REMARK                            x       y       z     vdW  Elec       q    Type
REMARK                         _______ _______ _______ _____ _____    ______ ____
ROOT
ATOM      1  O   UNL     1      31.678 -12.642 -21.276  0.00  0.00    -0.421 OA
ATOM      2  O   UNL     1      30.813 -10.631 -20.682  0.00  0.00    -0.245 OA
ATOM      3  C   UNL     1      34.755  -9.731 -24.222  0.00  0.00    +0.005 C 
ATOM      4  C   UNL     1      33.669 -10.731 -24.626  0.00  0.00    +0.026 C 
ATOM      5  C   UNL     1      34.203  -8.361 -23.826  0.00  0.00    +0.001 C 
ATOM      6  C   UNL     1      33.006 -11.385 -23.431  0.00  0.00    -0.017 A 
ATOM      7  C   UNL     1      33.270  -8.357 -22.614  0.00  0.00    +0.005 C 
ATOM      8  C   UNL     1      31.990  -9.174 -22.808  0.00  0.00    +0.033 C 
ATOM      9  C   UNL     1      32.210 -10.661 -22.615  0.00  0.00    +0.050 A 
ATOM     10  C   UNL     1      33.234 -12.816 -23.143  0.00  0.00    +0.031 A 
ATOM     11  C   UNL     1      32.545 -13.398 -22.082  0.00  0.00    +0.151 A 
ATOM     12  C   UNL     1      31.515 -11.279 -21.453  0.00  0.00    +0.341 A 
ATOM     13  C   UNL     1      34.112 -13.647 -23.856  0.00  0.00    +0.006 C 
ATOM     14  C   UNL     1      32.680 -14.746 -21.738  0.00  0.00    +0.077 C 
ATOM     15  C   UNL     1      34.263 -15.001 -23.525  0.00  0.00    +0.040 C 
ATOM     16  C   UNL     1      33.544 -15.551 -22.468  0.00  0.00    +0.176 C 
ENDROOT
BRANCH  16  17
ATOM     17  O   UNL     1      33.693 -16.865 -22.149  0.00  0.00    -0.349 OA
BRANCH  17  18
ATOM     18  S   UNL     1      35.019 -17.470 -21.396  0.00  0.00    +0.086 S 
ATOM     19  O   UNL     1      35.327 -16.619 -20.261  0.00  0.00    -0.046 OA
ATOM     20  O   UNL     1      36.024 -17.757 -22.403  0.00  0.00    -0.046 OA
BRANCH  18  21
ATOM     21  N   UNL     1      34.468 -18.972 -20.777  0.00  0.00    -0.194 NA
ATOM     22  H   UNL     1      33.697 -19.315 -21.351  0.00  0.00    +0.145 HD
ATOM     23  H   UNL     1      34.148 -18.848 -19.816  0.00  0.00    +0.145 HD
ENDBRANCH  18  21
ENDBRANCH  17  18
ENDBRANCH  16  17
TORSDOF 3
ENDMDL
MODEL 5
REMARK VINA RESULT:      -9.3      4.156      7.071
REMARK  Name = 5287541
REMARK  3 active torsions:
REMARK  status: ('A' for Active; 'I' for Inactive)
REMARK    1  A    between atoms: C_16  and  O_17
REMARK    2  A    between atoms: O_17  and  S_18
REMARK    3  A    between atoms: S_18  and  N_21
REMARK                            x       y       z     vdW  Elec       q    Type
REMARK                         _______ _______ _______ _____ _____    ______ ____
ROOT
ATOM      1  O   UNL     1      33.889 -24.243 -12.845  0.00  0.00    -0.421 OA
ATOM      2  O   UNL     1      35.005 -24.942 -10.999  0.00  0.00    -0.245 OA
ATOM      3  C   UNL     1      38.514 -24.790 -15.067  0.00  0.00    +0.005 C 
ATOM      4  C   UNL     1      37.695 -23.524 -14.803  0.00  0.00    +0.026 C 
ATOM      5  C   UNL     1      39.287 -25.281 -13.843  0.00  0.00    +0.001 C 
ATOM      6  C   UNL     1      36.370 -23.816 -14.130  0.00  0.00    -0.017 A 
ATOM      7  C   UNL     1      38.427 -25.676 -12.641  0.00  0.00    +0.005 C 
ATOM      8  C   UNL     1      37.600 -24.527 -12.059  0.00  0.00    +0.033 C 
ATOM      9  C   UNL     1      36.339 -24.253 -12.852  0.00  0.00    +0.050 A 
ATOM     10  C   UNL     1      35.104 -23.638 -14.870  0.00  0.00    +0.031 A 
ATOM     11  C   UNL     1      33.904 -23.842 -14.191  0.00  0.00    +0.151 A 
ATOM     12  C   UNL     1      35.054 -24.516 -12.149  0.00  0.00    +0.341 A 
ATOM     13  C   UNL     1      35.009 -23.285 -16.225  0.00  0.00    +0.006 C 
ATOM     14  C   UNL     1      32.654 -23.684 -14.797  0.00  0.00    +0.077 C 
ATOM     15  C   UNL     1      33.764 -23.125 -16.850  0.00  0.00    +0.040 C 
ATOM     16  C   UNL     1      32.588 -23.320 -16.135  0.00  0.00    +0.176 C 
ENDROOT
BRANCH  16  17
ATOM     17  O   UNL     1      31.382 -23.164 -16.744  0.00  0.00    -0.349 OA
BRANCH  17  18
ATOM     18  S   UNL     1      29.947 -23.284 -15.957  0.00  0.00    +0.086 S 
ATOM     19  O   UNL     1      30.032 -22.512 -14.732  0.00  0.00    -0.046 OA
ATOM     20  O   UNL     1      29.558 -24.683 -15.929  0.00  0.00    -0.046 OA
BRANCH  18  21
ATOM     21  N   UNL     1      28.856 -22.470 -17.003  0.00  0.00    -0.194 NA
ATOM     22  H   UNL     1      28.837 -21.477 -16.768  0.00  0.00    +0.145 HD
ATOM     23  H   UNL     1      27.921 -22.864 -16.892  0.00  0.00    +0.145 HD
ENDBRANCH  18  21
ENDBRANCH  17  18
ENDBRANCH  16  17
TORSDOF 3
ENDMDL
MODEL 6
REMARK VINA RESULT:      -9.3     12.537     14.573
REMARK  Name = 5287541
REMARK  3 active torsions:
REMARK  status: ('A' for Active; 'I' for Inactive)
REMARK    1  A    between atoms: C_16  and  O_17
REMARK    2  A    between atoms: O_17  and  S_18
REMARK    3  A    between atoms: S_18  and  N_21
REMARK                            x       y       z     vdW  Elec       q    Type
REMARK                         _______ _______ _______ _____ _____    ______ ____
ROOT
ATOM      1  O   UNL     1      31.636 -11.975 -20.611  0.00  0.00    -0.421 OA
ATOM      2  O   UNL     1      30.990 -10.060 -19.582  0.00  0.00    -0.245 OA
ATOM      3  C   UNL     1      34.189  -8.706 -23.682  0.00  0.00    +0.005 C 
ATOM      4  C   UNL     1      33.004  -9.624 -23.994  0.00  0.00    +0.026 C 
ATOM      5  C   UNL     1      33.784  -7.402 -22.996  0.00  0.00    +0.001 C 
ATOM      6  C   UNL     1      32.563 -10.436 -22.793  0.00  0.00    -0.017 A 
ATOM      7  C   UNL     1      33.109  -7.561 -21.633  0.00  0.00    +0.005 C 
ATOM      8  C   UNL     1      31.783  -8.326 -21.677  0.00  0.00    +0.033 C 
ATOM      9  C   UNL     1      31.975  -9.827 -21.741  0.00  0.00    +0.050 A 
ATOM     10  C   UNL     1      32.785 -11.896 -22.759  0.00  0.00    +0.031 A 
ATOM     11  C   UNL     1      32.295 -12.616 -21.672  0.00  0.00    +0.151 A 
ATOM     12  C   UNL     1      31.499 -10.598 -20.560  0.00  0.00    +0.341 A 
ATOM     13  C   UNL     1      33.470 -12.626 -23.743  0.00  0.00    +0.006 C 
ATOM     14  C   UNL     1      32.440 -14.002 -21.554  0.00  0.00    +0.077 C 
ATOM     15  C   UNL     1      33.627 -14.016 -23.641  0.00  0.00    +0.040 C 
ATOM     16  C   UNL     1      33.108 -14.704 -22.548  0.00  0.00    +0.176 C 
ENDROOT
BRANCH  16  17
ATOM     17  O   UNL     1      33.263 -16.051 -22.452  0.00  0.00    -0.349 OA
BRANCH  17  18
ATOM     18  S   UNL     1      34.563 -16.767 -21.750  0.00  0.00    +0.086 S 
ATOM     19  O   UNL     1      34.233 -18.156 -21.490  0.00  0.00    -0.046 OA
ATOM     20  O   UNL     1      35.038 -15.903 -20.685  0.00  0.00    -0.046 OA
BRANCH  18  21
ATOM     21  N   UNL     1      35.743 -16.743 -22.995  0.00  0.00    -0.194 NA
ATOM     22  H   UNL     1      36.591 -17.210 -22.669  0.00  0.00    +0.145 HD
ATOM     23  H   UNL     1      35.961 -15.777 -23.240  0.00  0.00    +0.145 HD
ENDBRANCH  18  21
ENDBRANCH  17  18
ENDBRANCH  16  17
TORSDOF 3
ENDMDL
MODEL 7
REMARK VINA RESULT:      -9.2     10.539     12.615
REMARK  Name = 5287541
REMARK  3 active torsions:
REMARK  status: ('A' for Active; 'I' for Inactive)
REMARK    1  A    between atoms: C_16  and  O_17
REMARK    2  A    between atoms: O_17  and  S_18
REMARK    3  A    between atoms: S_18  and  N_21
REMARK                            x       y       z     vdW  Elec       q    Type
REMARK                         _______ _______ _______ _____ _____    ______ ____
ROOT
ATOM      1  O   UNL     1      32.594 -13.816 -20.360  0.00  0.00    -0.421 OA
ATOM      2  O   UNL     1      31.468 -11.884 -19.979  0.00  0.00    -0.245 OA
ATOM      3  C   UNL     1      34.193 -11.305 -24.575  0.00  0.00    +0.005 C 
ATOM      4  C   UNL     1      33.291 -12.535 -24.448  0.00  0.00    +0.026 C 
ATOM      5  C   UNL     1      33.460  -9.985 -24.333  0.00  0.00    +0.001 C 
ATOM      6  C   UNL     1      33.081 -12.958 -23.008  0.00  0.00    -0.017 A 
ATOM      7  C   UNL     1      32.853  -9.819 -22.940  0.00  0.00    +0.005 C 
ATOM      8  C   UNL     1      31.774 -10.852 -22.600  0.00  0.00    +0.033 C 
ATOM      9  C   UNL     1      32.355 -12.185 -22.173  0.00  0.00    +0.050 A 
ATOM     10  C   UNL     1      33.678 -14.212 -22.506  0.00  0.00    +0.031 A 
ATOM     11  C   UNL     1      33.396 -14.605 -21.200  0.00  0.00    +0.151 A 
ATOM     12  C   UNL     1      32.099 -12.587 -20.763  0.00  0.00    +0.341 A 
ATOM     13  C   UNL     1      34.529 -15.048 -23.246  0.00  0.00    +0.006 C 
ATOM     14  C   UNL     1      33.901 -15.781 -20.636  0.00  0.00    +0.077 C 
ATOM     15  C   UNL     1      35.046 -16.230 -22.697  0.00  0.00    +0.040 C 
ATOM     16  C   UNL     1      34.729 -16.598 -21.394  0.00  0.00    +0.176 C 
ENDROOT
BRANCH  16  17
ATOM     17  O   UNL     1      35.232 -17.745 -20.864  0.00  0.00    -0.349 OA
BRANCH  17  18
ATOM     18  S   UNL     1      34.619 -19.234 -21.181  0.00  0.00    +0.086 S 
ATOM     19  O   UNL     1      34.993 -19.602 -22.534  0.00  0.00    -0.046 OA
ATOM     20  O   UNL     1      33.229 -19.254 -20.762  0.00  0.00    -0.046 OA
BRANCH  18  21
ATOM     21  N   UNL     1      35.492 -20.254 -20.112  0.00  0.00    -0.194 NA
ATOM     22  H   UNL     1      34.957 -20.382 -19.251  0.00  0.00    +0.145 HD
ATOM     23  H   UNL     1      36.392 -19.826 -19.892  0.00  0.00    +0.145 HD
ENDBRANCH  18  21
ENDBRANCH  17  18
ENDBRANCH  16  17
TORSDOF 3
ENDMDL
MODEL 8
REMARK VINA RESULT:      -9.2     11.292     13.876
REMARK  Name = 5287541
REMARK  3 active torsions:
REMARK  status: ('A' for Active; 'I' for Inactive)
REMARK    1  A    between atoms: C_16  and  O_17
REMARK    2  A    between atoms: O_17  and  S_18
REMARK    3  A    between atoms: S_18  and  N_21
REMARK                            x       y       z     vdW  Elec       q    Type
REMARK                         _______ _______ _______ _____ _____    ______ ____
ROOT
ATOM      1  O   UNL     1      34.271 -15.260 -20.887  0.00  0.00    -0.421 OA
ATOM      2  O   UNL     1      35.414 -17.094 -20.200  0.00  0.00    -0.245 OA
ATOM      3  C   UNL     1      33.965 -17.896 -25.312  0.00  0.00    +0.005 C 
ATOM      4  C   UNL     1      34.709 -16.597 -24.993  0.00  0.00    +0.026 C 
ATOM      5  C   UNL     1      34.716 -19.152 -24.870  0.00  0.00    +0.001 C 
ATOM      6  C   UNL     1      34.523 -16.157 -23.555  0.00  0.00    -0.017 A 
ATOM      7  C   UNL     1      34.970 -19.267 -23.366  0.00  0.00    +0.005 C 
ATOM      8  C   UNL     1      35.847 -18.150 -22.793  0.00  0.00    +0.033 C 
ATOM      9  C   UNL     1      35.077 -16.868 -22.550  0.00  0.00    +0.050 A 
ATOM     10  C   UNL     1      33.724 -14.955 -23.243  0.00  0.00    +0.031 A 
ATOM     11  C   UNL     1      33.642 -14.539 -21.915  0.00  0.00    +0.151 A 
ATOM     12  C   UNL     1      34.944 -16.445 -21.130  0.00  0.00    +0.341 A 
ATOM     13  C   UNL     1      33.019 -14.191 -24.186  0.00  0.00    +0.006 C 
ATOM     14  C   UNL     1      32.924 -13.407 -21.519  0.00  0.00    +0.077 C 
ATOM     15  C   UNL     1      32.293 -13.054 -23.807  0.00  0.00    +0.040 C 
ATOM     16  C   UNL     1      32.248 -12.660 -22.474  0.00  0.00    +0.176 C 
ENDROOT
BRANCH  16  17
ATOM     17  O   UNL     1      31.542 -11.557 -22.109  0.00  0.00    -0.349 OA
BRANCH  17  18
ATOM     18  S   UNL     1      32.015 -10.023 -22.453  0.00  0.00    +0.086 S 
ATOM     19  O   UNL     1      30.914  -9.343 -23.109  0.00  0.00    -0.046 OA
ATOM     20  O   UNL     1      33.328 -10.079 -23.070  0.00  0.00    -0.046 OA
BRANCH  18  21
ATOM     21  N   UNL     1      32.207  -9.314 -20.903  0.00  0.00    -0.194 NA
ATOM     22  H   UNL     1      33.198  -9.291 -20.659  0.00  0.00    +0.145 HD
ATOM     23  H   UNL     1      31.700  -9.867 -20.210  0.00  0.00    +0.145 HD
ENDBRANCH  18  21
ENDBRANCH  17  18
ENDBRANCH  16  17
TORSDOF 3
ENDMDL
MODEL 9
REMARK VINA RESULT:      -9.1      4.501      7.373
REMARK  Name = 5287541
REMARK  3 active torsions:
REMARK  status: ('A' for Active; 'I' for Inactive)
REMARK    1  A    between atoms: C_16  and  O_17
REMARK    2  A    between atoms: O_17  and  S_18
REMARK    3  A    between atoms: S_18  and  N_21
REMARK                            x       y       z     vdW  Elec       q    Type
REMARK                         _______ _______ _______ _____ _____    ______ ____
ROOT
ATOM      1  O   UNL     1      33.166 -24.580 -12.865  0.00  0.00    -0.421 OA
ATOM      2  O   UNL     1      34.985 -24.925 -11.555  0.00  0.00    -0.245 OA
ATOM      3  C   UNL     1      36.721 -23.133 -16.314  0.00  0.00    +0.005 C 
ATOM      4  C   UNL     1      35.646 -22.305 -15.606  0.00  0.00    +0.026 C 
ATOM      5  C   UNL     1      37.965 -23.375 -15.459  0.00  0.00    +0.001 C 
ATOM      6  C   UNL     1      34.794 -23.135 -14.667  0.00  0.00    -0.017 A 
ATOM      7  C   UNL     1      37.729 -24.157 -14.167  0.00  0.00    +0.005 C 
ATOM      8  C   UNL     1      36.789 -23.463 -13.177  0.00  0.00    +0.033 C 
ATOM      9  C   UNL     1      35.328 -23.641 -13.535  0.00  0.00    +0.050 A 
ATOM     10  C   UNL     1      33.379 -23.407 -14.991  0.00  0.00    +0.031 A 
ATOM     11  C   UNL     1      32.610 -24.108 -14.065  0.00  0.00    +0.151 A 
ATOM     12  C   UNL     1      34.511 -24.431 -12.574  0.00  0.00    +0.341 A 
ATOM     13  C   UNL     1      32.739 -23.021 -16.179  0.00  0.00    +0.006 C 
ATOM     14  C   UNL     1      31.258 -24.402 -14.270  0.00  0.00    +0.077 C 
ATOM     15  C   UNL     1      31.386 -23.309 -16.403  0.00  0.00    +0.040 C 
ATOM     16  C   UNL     1      30.645 -23.996 -15.448  0.00  0.00    +0.176 C 
ENDROOT
BRANCH  16  17
ATOM     17  O   UNL     1      29.332 -24.275 -15.668  0.00  0.00    -0.349 OA
BRANCH  17  18
ATOM     18  S   UNL     1      28.376 -23.396 -16.672  0.00  0.00    +0.086 S 
ATOM     19  O   UNL     1      27.754 -24.302 -17.619  0.00  0.00    -0.046 OA
ATOM     20  O   UNL     1      29.133 -22.245 -17.131  0.00  0.00    -0.046 OA
BRANCH  18  21
ATOM     21  N   UNL     1      27.142 -22.815 -15.630  0.00  0.00    -0.194 NA
ATOM     22  H   UNL     1      27.506 -22.741 -14.679  0.00  0.00    +0.145 HD
ATOM     23  H   UNL     1      26.354 -23.463 -15.642  0.00  0.00    +0.145 HD
ENDBRANCH  18  21
ENDBRANCH  17  18
ENDBRANCH  16  17
TORSDOF 3
ENDMDL
