MODEL 1
REMARK VINA RESULT:      -9.7      0.000      0.000
REMARK  Name = 3372
REMARK  8 active torsions:
REMARK  status: ('A' for Active; 'I' for Inactive)
REMARK    1  A    between atoms: N_2  and  C_19
REMARK    2  A    between atoms: C_9  and  C_18
REMARK    3  A    between atoms: C_19  and  C_20
REMARK    4  A    between atoms: C_20  and  C_21
REMARK    5  A    between atoms: C_21  and  N_22
REMARK    6  A    between atoms: N_23  and  C_30
REMARK    7  A    between atoms: C_30  and  C_31
REMARK    8  A    between atoms: C_31  and  O_32
REMARK                            x       y       z     vdW  Elec       q    Type
REMARK                         _______ _______ _______ _____ _____    ______ ____
ROOT
ATOM      1  S   UNL     1      37.885 -23.163 -15.077  0.00  0.00    -0.084 S 
ATOM      2  N   UNL     1      34.854 -23.825 -14.893  0.00  0.00    -0.286 N 
ATOM      3  C   UNL     1      35.263 -23.134 -16.062  0.00  0.00    +0.058 C 
ATOM      4  C   UNL     1      35.561 -23.840 -13.665  0.00  0.00    +0.058 C 
ATOM      5  C   UNL     1      36.607 -22.758 -16.250  0.00  0.00    +0.043 C 
ATOM      6  C   UNL     1      36.936 -23.534 -13.616  0.00  0.00    +0.043 C 
ATOM      7  C   UNL     1      34.346 -22.761 -17.069  0.00  0.00    +0.019 C 
ATOM      8  C   UNL     1      34.924 -24.125 -12.438  0.00  0.00    +0.015 C 
ATOM      9  C   UNL     1      34.747 -22.069 -18.215  0.00  0.00    +0.073 C 
ATOM     10  C   UNL     1      37.006 -22.066 -17.408  0.00  0.00    +0.008 C 
ATOM     11  C   UNL     1      37.632 -23.543 -12.394  0.00  0.00    +0.008 C 
ATOM     12  C   UNL     1      36.078 -21.725 -18.387  0.00  0.00    +0.004 C 
ATOM     13  C   UNL     1      35.620 -24.128 -11.226  0.00  0.00    +0.001 C 
ATOM     14  C   UNL     1      36.975 -23.839 -11.205  0.00  0.00    +0.001 C 
ENDROOT
BRANCH   9  18
ATOM     15  F   UNL     1      32.542 -21.306 -18.745  0.00  0.00    -0.166 F 
ATOM     16  F   UNL     1      34.143 -20.683 -20.069  0.00  0.00    -0.166 F 
ATOM     17  F   UNL     1      33.455 -22.745 -20.094  0.00  0.00    -0.166 F 
ATOM     18  C   UNL     1      33.742 -21.706 -19.258  0.00  0.00    +0.419 C 
ENDBRANCH   9  18
BRANCH   2  19
ATOM     19  C   UNL     1      33.562 -24.524 -14.938  0.00  0.00    +0.093 C 
BRANCH  19  20
ATOM     20  C   UNL     1      32.456 -23.655 -14.342  0.00  0.00    -0.001 C 
BRANCH  20  21
ATOM     21  C   UNL     1      31.233 -24.431 -13.845  0.00  0.00    -0.076 C 
BRANCH  21  22
ATOM     22  N   UNL     1      30.022 -24.075 -14.582  0.00  0.00    +0.384 N 
ATOM     23  N   UNL     1      28.619 -23.138 -16.929  0.00  0.00    +0.386 N 
ATOM     24  C   UNL     1      29.862 -24.928 -15.765  0.00  0.00    -0.101 C 
ATOM     25  C   UNL     1      30.045 -22.659 -14.969  0.00  0.00    -0.101 C 
ATOM     26  C   UNL     1      28.594 -24.554 -16.540  0.00  0.00    -0.101 C 
ATOM     27  C   UNL     1      28.777 -22.285 -15.745  0.00  0.00    -0.101 C 
ATOM     28  H   UNL     1      29.223 -24.227 -13.965  0.00  0.00    -0.080 HD
ATOM     29  H   UNL     1      29.418 -22.988 -17.543  0.00  0.00    -0.080 HD
BRANCH  23  30
ATOM     30  C   UNL     1      27.408 -22.782 -17.667  0.00  0.00    -0.045 C 
BRANCH  30  31
ATOM     31  C   UNL     1      26.660 -21.663 -16.962  0.00  0.00    +0.115 C 
BRANCH  31  32
ATOM     32  O   UNL     1      26.292 -20.682 -17.923  0.00  0.00    -0.384 OA
ATOM     33  H   UNL     1      26.693 -19.832 -17.687  0.00  0.00    +0.210 HD
ENDBRANCH  31  32
ENDBRANCH  30  31
ENDBRANCH  23  30
ENDBRANCH  21  22
ENDBRANCH  20  21
ENDBRANCH  19  20
ENDBRANCH   2  19
TORSDOF 8
ENDMDL
MODEL 2
REMARK VINA RESULT:      -9.2     10.985     13.499
REMARK  Name = 3372
REMARK  8 active torsions:
REMARK  status: ('A' for Active; 'I' for Inactive)
REMARK    1  A    between atoms: N_2  and  C_19
REMARK    2  A    between atoms: C_9  and  C_18
REMARK    3  A    between atoms: C_19  and  C_20
REMARK    4  A    between atoms: C_20  and  C_21
REMARK    5  A    between atoms: C_21  and  N_22
REMARK    6  A    between atoms: N_23  and  C_30
REMARK    7  A    between atoms: C_30  and  C_31
REMARK    8  A    between atoms: C_31  and  O_32
REMARK                            x       y       z     vdW  Elec       q    Type
REMARK                         _______ _______ _______ _____ _____    ______ ____
ROOT
ATOM      1  S   UNL     1      33.387 -15.916 -25.845  0.00  0.00    -0.084 S 
ATOM      2  N   UNL     1      34.230 -14.726 -23.100  0.00  0.00    -0.286 N 
ATOM      3  C   UNL     1      34.039 -13.787 -24.146  0.00  0.00    +0.058 C 
ATOM      4  C   UNL     1      34.505 -16.104 -23.283  0.00  0.00    +0.058 C 
ATOM      5  C   UNL     1      33.679 -14.205 -25.441  0.00  0.00    +0.043 C 
ATOM      6  C   UNL     1      34.191 -16.753 -24.494  0.00  0.00    +0.043 C 
ATOM      7  C   UNL     1      34.235 -12.401 -23.950  0.00  0.00    +0.019 C 
ATOM      8  C   UNL     1      35.134 -16.881 -22.284  0.00  0.00    +0.015 C 
ATOM      9  C   UNL     1      34.059 -11.477 -24.983  0.00  0.00    +0.073 C 
ATOM     10  C   UNL     1      33.499 -13.270 -26.476  0.00  0.00    +0.008 C 
ATOM     11  C   UNL     1      34.472 -18.120 -24.672  0.00  0.00    +0.008 C 
ATOM     12  C   UNL     1      33.687 -11.911 -26.246  0.00  0.00    +0.004 C 
ATOM     13  C   UNL     1      35.415 -18.237 -22.469  0.00  0.00    +0.001 C 
ATOM     14  C   UNL     1      35.082 -18.857 -23.663  0.00  0.00    +0.001 C 
ENDROOT
BRANCH   9  18
ATOM     15  F   UNL     1      34.995  -9.393 -25.694  0.00  0.00    -0.166 F 
ATOM     16  F   UNL     1      33.101  -9.313 -24.640  0.00  0.00    -0.166 F 
ATOM     17  F   UNL     1      34.926  -9.784 -23.556  0.00  0.00    -0.166 F 
ATOM     18  C   UNL     1      34.265 -10.021 -24.726  0.00  0.00    +0.419 C 
ENDBRANCH   9  18
BRANCH   2  19
ATOM     19  C   UNL     1      34.208 -14.217 -21.722  0.00  0.00    +0.093 C 
BRANCH  19  20
ATOM     20  C   UNL     1      32.830 -14.420 -21.094  0.00  0.00    -0.001 C 
BRANCH  20  21
ATOM     21  C   UNL     1      31.787 -13.371 -21.491  0.00  0.00    -0.076 C 
BRANCH  21  22
ATOM     22  N   UNL     1      32.191 -12.022 -21.098  0.00  0.00    +0.384 N 
ATOM     23  N   UNL     1      31.639  -9.298 -20.303  0.00  0.00    +0.386 N 
ATOM     24  C   UNL     1      31.708 -11.705 -19.749  0.00  0.00    -0.101 C 
ATOM     25  C   UNL     1      31.703 -11.031 -22.064  0.00  0.00    -0.101 C 
ATOM     26  C   UNL     1      32.129 -10.290 -19.337  0.00  0.00    -0.101 C 
ATOM     27  C   UNL     1      32.123  -9.615 -21.652  0.00  0.00    -0.101 C 
ATOM     28  H   UNL     1      33.211 -11.989 -21.091  0.00  0.00    -0.080 HD
ATOM     29  H   UNL     1      30.620  -9.334 -20.310  0.00  0.00    -0.080 HD
BRANCH  23  30
ATOM     30  C   UNL     1      32.042  -7.949 -19.910  0.00  0.00    -0.045 C 
BRANCH  30  31
ATOM     31  C   UNL     1      32.385  -7.114 -21.133  0.00  0.00    +0.115 C 
BRANCH  31  32
ATOM     32  O   UNL     1      31.867  -5.803 -20.952  0.00  0.00    -0.384 OA
ATOM     33  H   UNL     1      31.181  -5.818 -20.267  0.00  0.00    +0.210 HD
ENDBRANCH  31  32
ENDBRANCH  30  31
ENDBRANCH  23  30
ENDBRANCH  21  22
ENDBRANCH  20  21
ENDBRANCH  19  20
ENDBRANCH   2  19
TORSDOF 8
ENDMDL
MODEL 3
REMARK VINA RESULT:      -9.2      3.749      6.309
REMARK  Name = 3372
REMARK  8 active torsions:
REMARK  status: ('A' for Active; 'I' for Inactive)
REMARK    1  A    between atoms: N_2  and  C_19
REMARK    2  A    between atoms: C_9  and  C_18
REMARK    3  A    between atoms: C_19  and  C_20
REMARK    4  A    between atoms: C_20  and  C_21
REMARK    5  A    between atoms: C_21  and  N_22
REMARK    6  A    between atoms: N_23  and  C_30
REMARK    7  A    between atoms: C_30  and  C_31
REMARK    8  A    between atoms: C_31  and  O_32
REMARK                            x       y       z     vdW  Elec       q    Type
REMARK                         _______ _______ _______ _____ _____    ______ ____
ROOT
ATOM      1  S   UNL     1      36.048 -24.939 -12.549  0.00  0.00    -0.084 S 
ATOM      2  N   UNL     1      36.321 -23.211 -15.119  0.00  0.00    -0.286 N 
ATOM      3  C   UNL     1      34.996 -23.539 -14.736  0.00  0.00    +0.058 C 
ATOM      4  C   UNL     1      37.482 -23.928 -14.734  0.00  0.00    +0.058 C 
ATOM      5  C   UNL     1      34.744 -24.336 -13.603  0.00  0.00    +0.043 C 
ATOM      6  C   UNL     1      37.476 -24.764 -13.600  0.00  0.00    +0.043 C 
ATOM      7  C   UNL     1      33.875 -23.117 -15.486  0.00  0.00    +0.019 C 
ATOM      8  C   UNL     1      38.680 -23.868 -15.480  0.00  0.00    +0.015 C 
ATOM      9  C   UNL     1      32.570 -23.451 -15.116  0.00  0.00    +0.073 C 
ATOM     10  C   UNL     1      33.428 -24.665 -13.232  0.00  0.00    +0.008 C 
ATOM     11  C   UNL     1      38.629 -25.478 -13.226  0.00  0.00    +0.008 C 
ATOM     12  C   UNL     1      32.345 -24.223 -13.986  0.00  0.00    +0.004 C 
ATOM     13  C   UNL     1      39.820 -24.584 -15.107  0.00  0.00    +0.001 C 
ATOM     14  C   UNL     1      39.796 -25.387 -13.978  0.00  0.00    +0.001 C 
ENDROOT
BRANCH   9  18
ATOM     15  F   UNL     1      30.632 -22.058 -15.288  0.00  0.00    -0.166 F 
ATOM     16  F   UNL     1      31.790 -22.364 -17.097  0.00  0.00    -0.166 F 
ATOM     17  F   UNL     1      30.577 -23.982 -16.299  0.00  0.00    -0.166 F 
ATOM     18  C   UNL     1      31.417 -22.972 -15.933  0.00  0.00    +0.419 C 
ENDBRANCH   9  18
BRANCH   2  19
ATOM     19  C   UNL     1      36.499 -22.081 -16.041  0.00  0.00    +0.093 C 
BRANCH  19  20
ATOM     20  C   UNL     1      35.823 -22.365 -17.381  0.00  0.00    -0.001 C 
BRANCH  20  21
ATOM     21  C   UNL     1      36.626 -21.922 -18.608  0.00  0.00    -0.076 C 
BRANCH  21  22
ATOM     22  N   UNL     1      36.018 -20.772 -19.273  0.00  0.00    +0.384 N 
ATOM     23  N   UNL     1      35.098 -19.338 -21.609  0.00  0.00    +0.386 N 
ATOM     24  C   UNL     1      34.789 -21.165 -19.974  0.00  0.00    -0.101 C 
ATOM     25  C   UNL     1      36.964 -20.149 -20.206  0.00  0.00    -0.101 C 
ATOM     26  C   UNL     1      34.152 -19.959 -20.674  0.00  0.00    -0.101 C 
ATOM     27  C   UNL     1      36.326 -18.944 -20.907  0.00  0.00    -0.101 C 
ATOM     28  H   UNL     1      35.774 -20.087 -18.557  0.00  0.00    -0.080 HD
ATOM     29  H   UNL     1      35.342 -20.024 -22.323  0.00  0.00    -0.080 HD
BRANCH  23  30
ATOM     30  C   UNL     1      34.490 -18.188 -22.276  0.00  0.00    -0.045 C 
BRANCH  30  31
ATOM     31  C   UNL     1      35.275 -17.814 -23.522  0.00  0.00    +0.115 C 
BRANCH  31  32
ATOM     32  O   UNL     1      35.700 -16.462 -23.406  0.00  0.00    -0.384 OA
ATOM     33  H   UNL     1      35.234 -15.919 -24.061  0.00  0.00    +0.210 HD
ENDBRANCH  31  32
ENDBRANCH  30  31
ENDBRANCH  23  30
ENDBRANCH  21  22
ENDBRANCH  20  21
ENDBRANCH  19  20
ENDBRANCH   2  19
TORSDOF 8
ENDMDL
MODEL 4
REMARK VINA RESULT:      -9.2      4.115      6.933
REMARK  Name = 3372
REMARK  8 active torsions:
REMARK  status: ('A' for Active; 'I' for Inactive)
REMARK    1  A    between atoms: N_2  and  C_19
REMARK    2  A    between atoms: C_9  and  C_18
REMARK    3  A    between atoms: C_19  and  C_20
REMARK    4  A    between atoms: C_20  and  C_21
REMARK    5  A    between atoms: C_21  and  N_22
REMARK    6  A    between atoms: N_23  and  C_30
REMARK    7  A    between atoms: C_30  and  C_31
REMARK    8  A    between atoms: C_31  and  O_32
REMARK                            x       y       z     vdW  Elec       q    Type
REMARK                         _______ _______ _______ _____ _____    ______ ____
ROOT
ATOM      1  S   UNL     1      32.478 -24.559 -13.753  0.00  0.00    -0.084 S 
ATOM      2  N   UNL     1      32.803 -23.464 -16.644  0.00  0.00    -0.286 N 
ATOM      3  C   UNL     1      33.983 -23.482 -15.856  0.00  0.00    +0.058 C 
ATOM      4  C   UNL     1      31.481 -23.466 -16.133  0.00  0.00    +0.058 C 
ATOM      5  C   UNL     1      33.958 -23.934 -14.523  0.00  0.00    +0.043 C 
ATOM      6  C   UNL     1      31.209 -23.917 -14.825  0.00  0.00    +0.043 C 
ATOM      7  C   UNL     1      35.221 -23.018 -16.354  0.00  0.00    +0.019 C 
ATOM      8  C   UNL     1      30.387 -22.988 -16.886  0.00  0.00    +0.015 C 
ATOM      9  C   UNL     1      36.380 -23.024 -15.574  0.00  0.00    +0.073 C 
ATOM     10  C   UNL     1      35.129 -23.943 -13.744  0.00  0.00    +0.008 C 
ATOM     11  C   UNL     1      29.896 -23.909 -14.321  0.00  0.00    +0.008 C 
ATOM     12  C   UNL     1      36.335 -23.490 -14.269  0.00  0.00    +0.004 C 
ATOM     13  C   UNL     1      29.086 -22.978 -16.377  0.00  0.00    +0.001 C 
ATOM     14  C   UNL     1      28.840 -23.442 -15.095  0.00  0.00    +0.001 C 
ENDROOT
BRANCH   9  18
ATOM     15  F   UNL     1      38.045 -21.309 -15.679  0.00  0.00    -0.166 F 
ATOM     16  F   UNL     1      38.727 -23.357 -15.888  0.00  0.00    -0.166 F 
ATOM     17  F   UNL     1      37.624 -22.411 -17.505  0.00  0.00    -0.166 F 
ATOM     18  C   UNL     1      37.668 -22.535 -16.148  0.00  0.00    +0.419 C 
ENDBRANCH   9  18
BRANCH   2  19
ATOM     19  C   UNL     1      32.965 -23.369 -18.101  0.00  0.00    +0.093 C 
BRANCH  19  20
ATOM     20  C   UNL     1      33.267 -21.931 -18.519  0.00  0.00    -0.001 C 
BRANCH  20  21
ATOM     21  C   UNL     1      34.386 -21.788 -19.554  0.00  0.00    -0.076 C 
BRANCH  21  22
ATOM     22  N   UNL     1      34.602 -20.395 -19.938  0.00  0.00    +0.384 N 
ATOM     23  N   UNL     1      35.004 -18.292 -21.881  0.00  0.00    +0.386 N 
ATOM     24  C   UNL     1      33.497 -19.908 -20.773  0.00  0.00    -0.101 C 
ATOM     25  C   UNL     1      35.882 -20.240 -20.639  0.00  0.00    -0.101 C 
ATOM     26  C   UNL     1      33.723 -18.447 -21.179  0.00  0.00    -0.101 C 
ATOM     27  C   UNL     1      36.108 -18.779 -21.045  0.00  0.00    -0.101 C 
ATOM     28  H   UNL     1      34.631 -19.835 -19.086  0.00  0.00    -0.080 HD
ATOM     29  H   UNL     1      34.973 -18.854 -22.732  0.00  0.00    -0.080 HD
BRANCH  23  30
ATOM     30  C   UNL     1      35.219 -16.899 -22.267  0.00  0.00    -0.045 C 
BRANCH  30  31
ATOM     31  C   UNL     1      34.284 -15.979 -21.499  0.00  0.00    +0.115 C 
BRANCH  31  32
ATOM     32  O   UNL     1      34.988 -15.434 -20.391  0.00  0.00    -0.384 OA
ATOM     33  H   UNL     1      34.469 -14.714 -20.000  0.00  0.00    +0.210 HD
ENDBRANCH  31  32
ENDBRANCH  30  31
ENDBRANCH  23  30
ENDBRANCH  21  22
ENDBRANCH  20  21
ENDBRANCH  19  20
ENDBRANCH   2  19
TORSDOF 8
ENDMDL
MODEL 5
REMARK VINA RESULT:      -9.1     14.039     16.608
REMARK  Name = 3372
REMARK  8 active torsions:
REMARK  status: ('A' for Active; 'I' for Inactive)
REMARK    1  A    between atoms: N_2  and  C_19
REMARK    2  A    between atoms: C_9  and  C_18
REMARK    3  A    between atoms: C_19  and  C_20
REMARK    4  A    between atoms: C_20  and  C_21
REMARK    5  A    between atoms: C_21  and  N_22
REMARK    6  A    between atoms: N_23  and  C_30
REMARK    7  A    between atoms: C_30  and  C_31
REMARK    8  A    between atoms: C_31  and  O_32
REMARK                            x       y       z     vdW  Elec       q    Type
REMARK                         _______ _______ _______ _____ _____    ______ ____
ROOT
ATOM      1  S   UNL     1      32.198  -7.585 -19.852  0.00  0.00    -0.084 S 
ATOM      2  N   UNL     1      32.251  -8.805 -22.711  0.00  0.00    -0.286 N 
ATOM      3  C   UNL     1      32.036  -7.405 -22.643  0.00  0.00    +0.058 C 
ATOM      4  C   UNL     1      32.003  -9.720 -21.657  0.00  0.00    +0.058 C 
ATOM      5  C   UNL     1      31.968  -6.740 -21.404  0.00  0.00    +0.043 C 
ATOM      6  C   UNL     1      31.932  -9.283 -20.318  0.00  0.00    +0.043 C 
ATOM      7  C   UNL     1      31.845  -6.622 -23.803  0.00  0.00    +0.019 C 
ATOM      8  C   UNL     1      31.782 -11.094 -21.895  0.00  0.00    +0.015 C 
ATOM      9  C   UNL     1      31.621  -5.244 -23.736  0.00  0.00    +0.073 C 
ATOM     10  C   UNL     1      31.747  -5.352 -21.342  0.00  0.00    +0.008 C 
ATOM     11  C   UNL     1      31.679 -10.194 -19.277  0.00  0.00    +0.008 C 
ATOM     12  C   UNL     1      31.575  -4.608 -22.505  0.00  0.00    +0.004 C 
ATOM     13  C   UNL     1      31.526 -11.993 -20.856  0.00  0.00    +0.001 C 
ATOM     14  C   UNL     1      31.477 -11.543 -19.547  0.00  0.00    +0.001 C 
ENDROOT
BRANCH   9  18
ATOM     15  F   UNL     1      31.849  -3.158 -24.886  0.00  0.00    -0.166 F 
ATOM     16  F   UNL     1      32.120  -4.963 -26.058  0.00  0.00    -0.166 F 
ATOM     17  F   UNL     1      30.132  -4.396 -25.385  0.00  0.00    -0.166 F 
ATOM     18  C   UNL     1      31.437  -4.456 -24.990  0.00  0.00    +0.419 C 
ENDBRANCH   9  18
BRANCH   2  19
ATOM     19  C   UNL     1      32.703  -9.359 -23.994  0.00  0.00    +0.093 C 
BRANCH  19  20
ATOM     20  C   UNL     1      34.226  -9.473 -24.028  0.00  0.00    -0.001 C 
BRANCH  20  21
ATOM     21  C   UNL     1      34.778 -10.307 -25.187  0.00  0.00    -0.076 C 
BRANCH  21  22
ATOM     22  N   UNL     1      33.954 -11.483 -25.457  0.00  0.00    +0.384 N 
ATOM     23  N   UNL     1      33.582 -14.297 -26.002  0.00  0.00    +0.386 N 
ATOM     24  C   UNL     1      34.124 -12.492 -24.404  0.00  0.00    -0.101 C 
ATOM     25  C   UNL     1      34.272 -12.053 -26.771  0.00  0.00    -0.101 C 
ATOM     26  C   UNL     1      33.261 -13.726 -24.688  0.00  0.00    -0.101 C 
ATOM     27  C   UNL     1      33.410 -13.288 -27.054  0.00  0.00    -0.101 C 
ATOM     28  H   UNL     1      32.977 -11.187 -25.463  0.00  0.00    -0.080 HD
ATOM     29  H   UNL     1      34.558 -14.591 -25.994  0.00  0.00    -0.080 HD
BRANCH  23  30
ATOM     30  C   UNL     1      32.758 -15.475 -26.271  0.00  0.00    -0.045 C 
BRANCH  30  31
ATOM     31  C   UNL     1      33.410 -16.726 -25.707  0.00  0.00    +0.115 C 
BRANCH  31  32
ATOM     32  O   UNL     1      34.818 -16.622 -25.872  0.00  0.00    -0.384 OA
ATOM     33  H   UNL     1      35.033 -15.770 -26.283  0.00  0.00    +0.210 HD
ENDBRANCH  31  32
ENDBRANCH  30  31
ENDBRANCH  23  30
ENDBRANCH  21  22
ENDBRANCH  20  21
ENDBRANCH  19  20
ENDBRANCH   2  19
TORSDOF 8
ENDMDL
MODEL 6
REMARK VINA RESULT:      -9.0     11.138     14.014
REMARK  Name = 3372
REMARK  8 active torsions:
REMARK  status: ('A' for Active; 'I' for Inactive)
REMARK    1  A    between atoms: N_2  and  C_19
REMARK    2  A    between atoms: C_9  and  C_18
REMARK    3  A    between atoms: C_19  and  C_20
REMARK    4  A    between atoms: C_20  and  C_21
REMARK    5  A    between atoms: C_21  and  N_22
REMARK    6  A    between atoms: N_23  and  C_30
REMARK    7  A    between atoms: C_30  and  C_31
REMARK    8  A    between atoms: C_31  and  O_32
REMARK                            x       y       z     vdW  Elec       q    Type
REMARK                         _______ _______ _______ _____ _____    ______ ____
ROOT
ATOM      1  S   UNL     1      34.522 -16.310 -21.160  0.00  0.00    -0.084 S 
ATOM      2  N   UNL     1      33.670 -14.606 -23.617  0.00  0.00    -0.286 N 
ATOM      3  C   UNL     1      33.201 -14.149 -22.358  0.00  0.00    +0.058 C 
ATOM      4  C   UNL     1      34.080 -15.932 -23.901  0.00  0.00    +0.058 C 
ATOM      5  C   UNL     1      33.501 -14.850 -21.174  0.00  0.00    +0.043 C 
ATOM      6  C   UNL     1      34.467 -16.810 -22.869  0.00  0.00    +0.043 C 
ATOM      7  C   UNL     1      32.388 -13.001 -22.236  0.00  0.00    +0.019 C 
ATOM      8  C   UNL     1      34.087 -16.447 -25.216  0.00  0.00    +0.015 C 
ATOM      9  C   UNL     1      31.915 -12.558 -20.998  0.00  0.00    +0.073 C 
ATOM     10  C   UNL     1      33.026 -14.397 -19.930  0.00  0.00    +0.008 C 
ATOM     11  C   UNL     1      34.867 -18.128 -23.157  0.00  0.00    +0.008 C 
ATOM     12  C   UNL     1      32.237 -13.255 -19.843  0.00  0.00    +0.004 C 
ATOM     13  C   UNL     1      34.480 -17.759 -25.495  0.00  0.00    +0.001 C 
ATOM     14  C   UNL     1      34.872 -18.598 -24.465  0.00  0.00    +0.001 C 
ENDROOT
BRANCH   9  18
ATOM     15  F   UNL     1      30.240 -11.168 -21.991  0.00  0.00    -0.166 F 
ATOM     16  F   UNL     1      30.246 -11.308 -19.827  0.00  0.00    -0.166 F 
ATOM     17  F   UNL     1      31.807 -10.188 -20.845  0.00  0.00    -0.166 F 
ATOM     18  C   UNL     1      31.068 -11.332 -20.917  0.00  0.00    +0.419 C 
ENDBRANCH   9  18
BRANCH   2  19
ATOM     19  C   UNL     1      33.668 -13.645 -24.728  0.00  0.00    +0.093 C 
BRANCH  19  20
ATOM     20  C   UNL     1      34.126 -12.267 -24.252  0.00  0.00    -0.001 C 
BRANCH  20  21
ATOM     21  C   UNL     1      34.162 -11.194 -25.345  0.00  0.00    -0.076 C 
BRANCH  21  22
ATOM     22  N   UNL     1      33.780  -9.879 -24.833  0.00  0.00    +0.384 N 
ATOM     23  N   UNL     1      33.263  -7.997 -22.702  0.00  0.00    +0.386 N 
ATOM     24  C   UNL     1      34.877  -9.282 -24.063  0.00  0.00    -0.101 C 
ATOM     25  C   UNL     1      32.566  -9.972 -24.013  0.00  0.00    -0.101 C 
ATOM     26  C   UNL     1      34.476  -7.903 -23.524  0.00  0.00    -0.101 C 
ATOM     27  C   UNL     1      32.166  -8.594 -23.474  0.00  0.00    -0.101 C 
ATOM     28  H   UNL     1      33.583  -9.277 -25.633  0.00  0.00    -0.080 HD
ATOM     29  H   UNL     1      33.461  -8.601 -21.904  0.00  0.00    -0.080 HD
BRANCH  23  30
ATOM     30  C   UNL     1      32.881  -6.682 -22.189  0.00  0.00    -0.045 C 
BRANCH  30  31
ATOM     31  C   UNL     1      32.200  -6.811 -20.837  0.00  0.00    +0.115 C 
BRANCH  31  32
ATOM     32  O   UNL     1      33.109  -7.408 -19.922  0.00  0.00    -0.384 OA
ATOM     33  H   UNL     1      32.663  -8.123 -19.442  0.00  0.00    +0.210 HD
ENDBRANCH  31  32
ENDBRANCH  30  31
ENDBRANCH  23  30
ENDBRANCH  21  22
ENDBRANCH  20  21
ENDBRANCH  19  20
ENDBRANCH   2  19
TORSDOF 8
ENDMDL
MODEL 7
REMARK VINA RESULT:      -8.9      3.232      5.006
REMARK  Name = 3372
REMARK  8 active torsions:
REMARK  status: ('A' for Active; 'I' for Inactive)
REMARK    1  A    between atoms: N_2  and  C_19
REMARK    2  A    between atoms: C_9  and  C_18
REMARK    3  A    between atoms: C_19  and  C_20
REMARK    4  A    between atoms: C_20  and  C_21
REMARK    5  A    between atoms: C_21  and  N_22
REMARK    6  A    between atoms: N_23  and  C_30
REMARK    7  A    between atoms: C_30  and  C_31
REMARK    8  A    between atoms: C_31  and  O_32
REMARK                            x       y       z     vdW  Elec       q    Type
REMARK                         _______ _______ _______ _____ _____    ______ ____
ROOT
ATOM      1  S   UNL     1      37.184 -21.644 -16.926  0.00  0.00    -0.084 S 
ATOM      2  N   UNL     1      34.754 -23.460 -16.248  0.00  0.00    -0.286 N 
ATOM      3  C   UNL     1      35.952 -23.748 -15.546  0.00  0.00    +0.058 C 
ATOM      4  C   UNL     1      34.679 -22.768 -17.483  0.00  0.00    +0.058 C 
ATOM      5  C   UNL     1      37.128 -23.010 -15.783  0.00  0.00    +0.043 C 
ATOM      6  C   UNL     1      35.729 -21.932 -17.912  0.00  0.00    +0.043 C 
ATOM      7  C   UNL     1      36.035 -24.803 -14.610  0.00  0.00    +0.019 C 
ATOM      8  C   UNL     1      33.575 -22.908 -18.353  0.00  0.00    +0.015 C 
ATOM      9  C   UNL     1      37.219 -25.095 -13.928  0.00  0.00    +0.073 C 
ATOM     10  C   UNL     1      38.315 -23.305 -15.090  0.00  0.00    +0.008 C 
ATOM     11  C   UNL     1      35.652 -21.254 -19.142  0.00  0.00    +0.008 C 
ATOM     12  C   UNL     1      38.359 -24.343 -14.165  0.00  0.00    +0.004 C 
ATOM     13  C   UNL     1      33.507 -22.235 -19.576  0.00  0.00    +0.001 C 
ATOM     14  C   UNL     1      34.545 -21.406 -19.969  0.00  0.00    +0.001 C 
ENDROOT
BRANCH   9  18
ATOM     15  F   UNL     1      36.401 -26.038 -11.887  0.00  0.00    -0.166 F 
ATOM     16  F   UNL     1      36.919 -27.423 -13.473  0.00  0.00    -0.166 F 
ATOM     17  F   UNL     1      38.488 -26.384 -12.385  0.00  0.00    -0.166 F 
ATOM     18  C   UNL     1      37.254 -26.212 -12.939  0.00  0.00    +0.419 C 
ENDBRANCH   9  18
BRANCH   2  19
ATOM     19  C   UNL     1      33.499 -23.977 -15.685  0.00  0.00    +0.093 C 
BRANCH  19  20
ATOM     20  C   UNL     1      33.096 -23.183 -14.443  0.00  0.00    -0.001 C 
BRANCH  20  21
ATOM     21  C   UNL     1      31.971 -23.814 -13.619  0.00  0.00    -0.076 C 
BRANCH  21  22
ATOM     22  N   UNL     1      30.665 -23.639 -14.251  0.00  0.00    +0.384 N 
ATOM     23  N   UNL     1      28.928 -23.402 -16.550  0.00  0.00    +0.386 N 
ATOM     24  C   UNL     1      30.322 -24.808 -15.070  0.00  0.00    -0.101 C 
ATOM     25  C   UNL     1      30.639 -22.417 -15.063  0.00  0.00    -0.101 C 
ATOM     26  C   UNL     1      28.953 -24.624 -15.736  0.00  0.00    -0.101 C 
ATOM     27  C   UNL     1      29.270 -22.234 -15.729  0.00  0.00    -0.101 C 
ATOM     28  H   UNL     1      29.968 -23.549 -13.511  0.00  0.00    -0.080 HD
ATOM     29  H   UNL     1      29.627 -23.493 -17.287  0.00  0.00    -0.080 HD
BRANCH  23  30
ATOM     30  C   UNL     1      27.622 -23.227 -17.183  0.00  0.00    -0.045 C 
BRANCH  30  31
ATOM     31  C   UNL     1      26.898 -22.026 -16.597  0.00  0.00    +0.115 C 
BRANCH  31  32
ATOM     32  O   UNL     1      26.602 -21.114 -17.646  0.00  0.00    -0.384 OA
ATOM     33  H   UNL     1      26.047 -20.396 -17.304  0.00  0.00    +0.210 HD
ENDBRANCH  31  32
ENDBRANCH  30  31
ENDBRANCH  23  30
ENDBRANCH  21  22
ENDBRANCH  20  21
ENDBRANCH  19  20
ENDBRANCH   2  19
TORSDOF 8
ENDMDL
MODEL 8
REMARK VINA RESULT:      -8.9     13.331     15.880
REMARK  Name = 3372
REMARK  8 active torsions:
REMARK  status: ('A' for Active; 'I' for Inactive)
REMARK    1  A    between atoms: N_2  and  C_19
REMARK    2  A    between atoms: C_9  and  C_18
REMARK    3  A    between atoms: C_19  and  C_20
REMARK    4  A    between atoms: C_20  and  C_21
REMARK    5  A    between atoms: C_21  and  N_22
REMARK    6  A    between atoms: N_23  and  C_30
REMARK    7  A    between atoms: C_30  and  C_31
REMARK    8  A    between atoms: C_31  and  O_32
REMARK                            x       y       z     vdW  Elec       q    Type
REMARK                         _______ _______ _______ _____ _____    ______ ____
ROOT
ATOM      1  S   UNL     1      32.378  -7.671 -19.866  0.00  0.00    -0.084 S 
ATOM      2  N   UNL     1      32.184  -8.963 -22.687  0.00  0.00    -0.286 N 
ATOM      3  C   UNL     1      32.063  -7.551 -22.647  0.00  0.00    +0.058 C 
ATOM      4  C   UNL     1      31.940  -9.833 -21.595  0.00  0.00    +0.058 C 
ATOM      5  C   UNL     1      32.112  -6.852 -21.426  0.00  0.00    +0.043 C 
ATOM      6  C   UNL     1      31.976  -9.360 -20.268  0.00  0.00    +0.043 C 
ATOM      7  C   UNL     1      31.855  -6.786 -23.816  0.00  0.00    +0.019 C 
ATOM      8  C   UNL     1      31.617 -11.195 -21.781  0.00  0.00    +0.015 C 
ATOM      9  C   UNL     1      31.724  -5.395 -23.776  0.00  0.00    +0.073 C 
ATOM     10  C   UNL     1      31.984  -5.452 -21.392  0.00  0.00    +0.008 C 
ATOM     11  C   UNL     1      31.726 -10.226 -19.188  0.00  0.00    +0.008 C 
ATOM     12  C   UNL     1      31.792  -4.727 -22.564  0.00  0.00    +0.004 C 
ATOM     13  C   UNL     1      31.365 -12.050 -20.704  0.00  0.00    +0.001 C 
ATOM     14  C   UNL     1      31.423 -11.565 -19.407  0.00  0.00    +0.001 C 
ENDROOT
BRANCH   9  18
ATOM     15  F   UNL     1      30.207  -4.537 -25.416  0.00  0.00    -0.166 F 
ATOM     16  F   UNL     1      31.959  -3.338 -24.973  0.00  0.00    -0.166 F 
ATOM     17  F   UNL     1      32.166  -5.184 -26.103  0.00  0.00    -0.166 F 
ATOM     18  C   UNL     1      31.517  -4.628 -25.040  0.00  0.00    +0.419 C 
ENDBRANCH   9  18
BRANCH   2  19
ATOM     19  C   UNL     1      32.522  -9.577 -23.978  0.00  0.00    +0.093 C 
BRANCH  19  20
ATOM     20  C   UNL     1      33.560 -10.683 -23.795  0.00  0.00    -0.001 C 
BRANCH  20  21
ATOM     21  C   UNL     1      33.507 -11.790 -24.852  0.00  0.00    -0.076 C 
BRANCH  21  22
ATOM     22  N   UNL     1      34.063 -13.047 -24.356  0.00  0.00    +0.384 N 
ATOM     23  N   UNL     1      33.862 -15.605 -23.024  0.00  0.00    +0.386 N 
ATOM     24  C   UNL     1      33.418 -14.195 -25.005  0.00  0.00    -0.101 C 
ATOM     25  C   UNL     1      33.927 -13.138 -22.898  0.00  0.00    -0.101 C 
ATOM     26  C   UNL     1      34.000 -15.514 -24.484  0.00  0.00    -0.101 C 
ATOM     27  C   UNL     1      34.509 -14.457 -22.377  0.00  0.00    -0.101 C 
ATOM     28  H   UNL     1      35.057 -13.064 -24.589  0.00  0.00    -0.080 HD
ATOM     29  H   UNL     1      32.869 -15.587 -22.794  0.00  0.00    -0.080 HD
BRANCH  23  30
ATOM     30  C   UNL     1      34.418 -16.863 -22.528  0.00  0.00    -0.045 C 
BRANCH  30  31
ATOM     31  C   UNL     1      34.820 -16.732 -21.069  0.00  0.00    +0.115 C 
BRANCH  31  32
ATOM     32  O   UNL     1      35.470 -17.930 -20.665  0.00  0.00    -0.384 OA
ATOM     33  H   UNL     1      34.807 -18.576 -20.376  0.00  0.00    +0.210 HD
ENDBRANCH  31  32
ENDBRANCH  30  31
ENDBRANCH  23  30
ENDBRANCH  21  22
ENDBRANCH  20  21
ENDBRANCH  19  20
ENDBRANCH   2  19
TORSDOF 8
ENDMDL
MODEL 9
REMARK VINA RESULT:      -8.8     13.087     15.920
REMARK  Name = 3372
REMARK  8 active torsions:
REMARK  status: ('A' for Active; 'I' for Inactive)
REMARK    1  A    between atoms: N_2  and  C_19
REMARK    2  A    between atoms: C_9  and  C_18
REMARK    3  A    between atoms: C_19  and  C_20
REMARK    4  A    between atoms: C_20  and  C_21
REMARK    5  A    between atoms: C_21  and  N_22
REMARK    6  A    between atoms: N_23  and  C_30
REMARK    7  A    between atoms: C_30  and  C_31
REMARK    8  A    between atoms: C_31  and  O_32
REMARK                            x       y       z     vdW  Elec       q    Type
REMARK                         _______ _______ _______ _____ _____    ______ ____
ROOT
ATOM      1  S   UNL     1      33.602 -14.943 -22.984  0.00  0.00    -0.084 S 
ATOM      2  N   UNL     1      33.038 -12.008 -23.837  0.00  0.00    -0.286 N 
ATOM      3  C   UNL     1      32.712 -12.332 -22.496  0.00  0.00    +0.058 C 
ATOM      4  C   UNL     1      33.159 -12.943 -24.896  0.00  0.00    +0.058 C 
ATOM      5  C   UNL     1      32.900 -13.635 -21.998  0.00  0.00    +0.043 C 
ATOM      6  C   UNL     1      33.392 -14.308 -24.635  0.00  0.00    +0.043 C 
ATOM      7  C   UNL     1      32.155 -11.382 -21.612  0.00  0.00    +0.019 C 
ATOM      8  C   UNL     1      33.019 -12.564 -26.249  0.00  0.00    +0.015 C 
ATOM      9  C   UNL     1      31.822 -11.705 -20.293  0.00  0.00    +0.073 C 
ATOM     10  C   UNL     1      32.568 -13.954 -20.669  0.00  0.00    +0.008 C 
ATOM     11  C   UNL     1      33.504 -15.233 -25.689  0.00  0.00    +0.008 C 
ATOM     12  C   UNL     1      32.032 -12.990 -19.820  0.00  0.00    +0.004 C 
ATOM     13  C   UNL     1      33.126 -13.488 -27.291  0.00  0.00    +0.001 C 
ATOM     14  C   UNL     1      33.372 -14.823 -27.011  0.00  0.00    +0.001 C 
ENDROOT
BRANCH   9  18
ATOM     15  F   UNL     1      29.884 -10.580 -19.454  0.00  0.00    -0.166 F 
ATOM     16  F   UNL     1      31.532 -10.865 -18.073  0.00  0.00    -0.166 F 
ATOM     17  F   UNL     1      31.703  -9.411 -19.679  0.00  0.00    -0.166 F 
ATOM     18  C   UNL     1      31.246 -10.663 -19.393  0.00  0.00    +0.419 C 
ENDBRANCH   9  18
BRANCH   2  19
ATOM     19  C   UNL     1      33.196 -10.585 -24.170  0.00  0.00    +0.093 C 
BRANCH  19  20
ATOM     20  C   UNL     1      34.667 -10.178 -24.115  0.00  0.00    -0.001 C 
BRANCH  20  21
ATOM     21  C   UNL     1      34.907  -8.677 -23.921  0.00  0.00    -0.076 C 
BRANCH  21  22
ATOM     22  N   UNL     1      33.662  -7.951 -23.682  0.00  0.00    +0.384 N 
ATOM     23  N   UNL     1      32.153  -5.652 -22.790  0.00  0.00    +0.386 N 
ATOM     24  C   UNL     1      33.622  -6.713 -24.471  0.00  0.00    -0.101 C 
ATOM     25  C   UNL     1      33.497  -7.655 -22.254  0.00  0.00    -0.101 C 
ATOM     26  C   UNL     1      32.317  -5.949 -24.219  0.00  0.00    -0.101 C 
ATOM     27  C   UNL     1      32.193  -6.891 -22.003  0.00  0.00    -0.101 C 
ATOM     28  H   UNL     1      32.889  -8.546 -23.979  0.00  0.00    -0.080 HD
ATOM     29  H   UNL     1      32.928  -5.058 -22.495  0.00  0.00    -0.080 HD
BRANCH  23  30
ATOM     30  C   UNL     1      30.908  -4.924 -22.551  0.00  0.00    -0.045 C 
BRANCH  30  31
ATOM     31  C   UNL     1      31.062  -3.460 -22.931  0.00  0.00    +0.115 C 
BRANCH  31  32
ATOM     32  O   UNL     1      30.058  -2.707 -22.264  0.00  0.00    -0.384 OA
ATOM     33  H   UNL     1      29.187  -3.093 -22.448  0.00  0.00    +0.210 HD
ENDBRANCH  31  32
ENDBRANCH  30  31
ENDBRANCH  23  30
ENDBRANCH  21  22
ENDBRANCH  20  21
ENDBRANCH  19  20
ENDBRANCH   2  19
TORSDOF 8
ENDMDL
