MODEL 1
REMARK VINA RESULT:      -7.5      0.000      0.000
REMARK  Name = 4369579
REMARK  7 active torsions:
REMARK  status: ('A' for Active; 'I' for Inactive)
REMARK    1  A    between atoms: C_1  and  C_15
REMARK    2  A    between atoms: C_4  and  N_7
REMARK    3  A    between atoms: N_7  and  C_10
REMARK    4  A    between atoms: C_15  and  C_17
REMARK    5  A    between atoms: C_15  and  C_20
REMARK    6  A    between atoms: C_17  and  O_18
REMARK    7  A    between atoms: C_20  and  S_21
REMARK                            x       y       z     vdW  Elec       q    Type
REMARK                         _______ _______ _______ _____ _____    ______ ____
ROOT
ATOM      1  C   UNL     1      34.309 -19.605 -20.876  0.00  0.00    -0.010 C 
ATOM      2  C   UNL     1      35.444 -20.192 -20.317  0.00  0.00    +0.015 C 
ATOM      3  C   UNL     1      33.045 -20.127 -20.599  0.00  0.00    -0.004 C 
ATOM      4  C   UNL     1      35.315 -21.301 -19.480  0.00  0.00    +0.084 C 
ATOM      5  C   UNL     1      32.917 -21.236 -19.762  0.00  0.00    +0.001 C 
ATOM      6  C   UNL     1      34.052 -21.823 -19.202  0.00  0.00    +0.019 C 
ENDROOT
BRANCH   4   7
ATOM      7  N   UNL     1      36.454 -21.890 -18.920  0.00  0.00    -0.214 NA
BRANCH   7  10
ATOM      8  N   UNL     1      37.332 -20.593 -17.188  0.00  0.00    -0.370 N 
ATOM      9  N   UNL     1      36.364 -22.578 -16.611  0.00  0.00    -0.370 N 
ATOM     10  C   UNL     1      36.691 -21.721 -17.641  0.00  0.00    +0.193 C 
ATOM     11  H   UNL     1      37.619 -19.900 -17.826  0.00  0.00    +0.159 HD
ATOM     12  H   UNL     1      37.504 -20.477 -16.226  0.00  0.00    +0.159 HD
ATOM     13  H   UNL     1      35.901 -23.424 -16.804  0.00  0.00    +0.159 HD
ATOM     14  H   UNL     1      36.595 -22.343 -15.684  0.00  0.00    +0.159 HD
ENDBRANCH   7  10
ENDBRANCH   4   7
BRANCH   1  15
ATOM     15  C   UNL     1      34.446 -18.420 -21.771  0.00  0.00    +0.132 C 
BRANCH  15  17
ATOM     16  O   UNL     1      34.870 -19.469 -23.937  0.00  0.00    -0.250 OA
ATOM     17  C   UNL     1      35.272 -18.763 -23.022  0.00  0.00    +0.318 C 
BRANCH  17  18
ATOM     18  O   UNL     1      36.510 -18.203 -23.023  0.00  0.00    -0.480 OA
ATOM     19  H   UNL     1      36.604 -17.275 -23.117  0.00  0.00    +0.295 HD
ENDBRANCH  17  18
ENDBRANCH  15  17
BRANCH  15  20
ATOM     20  C   UNL     1      35.061 -17.182 -21.066  0.00  0.00    +0.069 C 
BRANCH  20  21
ATOM     21  S   UNL     1      34.344 -15.598 -21.610  0.00  0.00    -0.167 S 
ATOM     22  H   UNL     1      35.022 -14.570 -21.031  0.00  0.00    +0.102 HD
ENDBRANCH  20  21
ENDBRANCH  15  20
ENDBRANCH   1  15
TORSDOF 7
ENDMDL
MODEL 2
REMARK VINA RESULT:      -7.1      1.604      1.835
REMARK  Name = 4369579
REMARK  7 active torsions:
REMARK  status: ('A' for Active; 'I' for Inactive)
REMARK    1  A    between atoms: C_1  and  C_15
REMARK    2  A    between atoms: C_4  and  N_7
REMARK    3  A    between atoms: N_7  and  C_10
REMARK    4  A    between atoms: C_15  and  C_17
REMARK    5  A    between atoms: C_15  and  C_20
REMARK    6  A    between atoms: C_17  and  O_18
REMARK    7  A    between atoms: C_20  and  S_21
REMARK                            x       y       z     vdW  Elec       q    Type
REMARK                         _______ _______ _______ _____ _____    ______ ____
ROOT
ATOM      1  C   UNL     1      34.681 -19.464 -20.969  0.00  0.00    -0.010 C 
ATOM      2  C   UNL     1      35.709 -20.168 -20.342  0.00  0.00    +0.015 C 
ATOM      3  C   UNL     1      33.352 -19.827 -20.752  0.00  0.00    -0.004 C 
ATOM      4  C   UNL     1      35.407 -21.236 -19.498  0.00  0.00    +0.084 C 
ATOM      5  C   UNL     1      33.051 -20.897 -19.907  0.00  0.00    +0.001 C 
ATOM      6  C   UNL     1      34.079 -21.601 -19.280  0.00  0.00    +0.019 C 
ENDROOT
BRANCH   4   7
ATOM      7  N   UNL     1      36.438 -21.943 -18.869  0.00  0.00    -0.214 NA
BRANCH   7  10
ATOM      8  N   UNL     1      37.292 -20.665 -17.111  0.00  0.00    -0.370 N 
ATOM      9  N   UNL     1      36.233 -22.611 -16.562  0.00  0.00    -0.370 N 
ATOM     10  C   UNL     1      36.631 -21.774 -17.582  0.00  0.00    +0.193 C 
ATOM     11  H   UNL     1      37.630 -19.988 -17.741  0.00  0.00    +0.159 HD
ATOM     12  H   UNL     1      37.430 -20.549 -16.143  0.00  0.00    +0.159 HD
ATOM     13  H   UNL     1      35.747 -23.442 -16.768  0.00  0.00    +0.159 HD
ATOM     14  H   UNL     1      36.434 -22.378 -15.627  0.00  0.00    +0.159 HD
ENDBRANCH   7  10
ENDBRANCH   4   7
BRANCH   1  15
ATOM     15  C   UNL     1      35.003 -18.321 -21.873  0.00  0.00    +0.132 C 
BRANCH  15  17
ATOM     16  O   UNL     1      33.468 -16.429 -21.675  0.00  0.00    -0.250 OA
ATOM     17  C   UNL     1      34.486 -16.994 -21.293  0.00  0.00    +0.318 C 
BRANCH  17  18
ATOM     18  O   UNL     1      35.270 -16.493 -20.303  0.00  0.00    -0.480 OA
ATOM     19  H   UNL     1      35.942 -17.024 -19.925  0.00  0.00    +0.295 HD
ENDBRANCH  17  18
ENDBRANCH  15  17
BRANCH  15  20
ATOM     20  C   UNL     1      34.461 -18.503 -23.315  0.00  0.00    +0.069 C 
BRANCH  20  21
ATOM     21  S   UNL     1      34.907 -17.143 -24.442  0.00  0.00    -0.167 S 
ATOM     22  H   UNL     1      33.774 -16.561 -24.920  0.00  0.00    +0.102 HD
ENDBRANCH  20  21
ENDBRANCH  15  20
ENDBRANCH   1  15
TORSDOF 7
ENDMDL
MODEL 3
REMARK VINA RESULT:      -7.1      6.414      7.942
REMARK  Name = 4369579
REMARK  7 active torsions:
REMARK  status: ('A' for Active; 'I' for Inactive)
REMARK    1  A    between atoms: C_1  and  C_15
REMARK    2  A    between atoms: C_4  and  N_7
REMARK    3  A    between atoms: N_7  and  C_10
REMARK    4  A    between atoms: C_15  and  C_17
REMARK    5  A    between atoms: C_15  and  C_20
REMARK    6  A    between atoms: C_17  and  O_18
REMARK    7  A    between atoms: C_20  and  S_21
REMARK                            x       y       z     vdW  Elec       q    Type
REMARK                         _______ _______ _______ _____ _____    ______ ____
ROOT
ATOM      1  C   UNL     1      31.998 -23.331 -15.526  0.00  0.00    -0.010 C 
ATOM      2  C   UNL     1      32.196 -23.244 -16.904  0.00  0.00    +0.015 C 
ATOM      3  C   UNL     1      33.092 -23.330 -14.662  0.00  0.00    -0.004 C 
ATOM      4  C   UNL     1      33.490 -23.155 -17.418  0.00  0.00    +0.084 C 
ATOM      5  C   UNL     1      34.386 -23.241 -15.176  0.00  0.00    +0.001 C 
ATOM      6  C   UNL     1      34.585 -23.153 -16.554  0.00  0.00    +0.019 C 
ENDROOT
BRANCH   4   7
ATOM      7  N   UNL     1      33.689 -23.068 -18.800  0.00  0.00    -0.214 NA
BRANCH   7  10
ATOM      8  N   UNL     1      35.059 -21.415 -19.718  0.00  0.00    -0.370 N 
ATOM      9  N   UNL     1      32.820 -20.978 -19.629  0.00  0.00    -0.370 N 
ATOM     10  C   UNL     1      33.820 -21.884 -19.349  0.00  0.00    +0.193 C 
ATOM     11  H   UNL     1      35.859 -21.969 -19.571  0.00  0.00    +0.159 HD
ATOM     12  H   UNL     1      35.145 -20.525 -20.129  0.00  0.00    +0.159 HD
ATOM     13  H   UNL     1      31.885 -21.195 -19.412  0.00  0.00    +0.159 HD
ATOM     14  H   UNL     1      33.041 -20.114 -20.046  0.00  0.00    +0.159 HD
ENDBRANCH   7  10
ENDBRANCH   4   7
BRANCH   1  15
ATOM     15  C   UNL     1      30.614 -23.427 -14.976  0.00  0.00    +0.132 C 
BRANCH  15  17
ATOM     16  O   UNL     1      30.576 -24.281 -12.687  0.00  0.00    -0.250 OA
ATOM     17  C   UNL     1      30.523 -24.510 -13.889  0.00  0.00    +0.318 C 
BRANCH  17  18
ATOM     18  O   UNL     1      30.377 -25.766 -14.386  0.00  0.00    -0.480 OA
ATOM     19  H   UNL     1      30.148 -26.472 -13.814  0.00  0.00    +0.295 HD
ENDBRANCH  17  18
ENDBRANCH  15  17
BRANCH  15  20
ATOM     20  C   UNL     1      29.536 -23.690 -16.061  0.00  0.00    +0.069 C 
BRANCH  20  21
ATOM     21  S   UNL     1      28.093 -22.583 -15.943  0.00  0.00    -0.167 S 
ATOM     22  H   UNL     1      28.230 -21.775 -14.857  0.00  0.00    +0.102 HD
ENDBRANCH  20  21
ENDBRANCH  15  20
ENDBRANCH   1  15
TORSDOF 7
ENDMDL
MODEL 4
REMARK VINA RESULT:      -7.1      1.755      2.481
REMARK  Name = 4369579
REMARK  7 active torsions:
REMARK  status: ('A' for Active; 'I' for Inactive)
REMARK    1  A    between atoms: C_1  and  C_15
REMARK    2  A    between atoms: C_4  and  N_7
REMARK    3  A    between atoms: N_7  and  C_10
REMARK    4  A    between atoms: C_15  and  C_17
REMARK    5  A    between atoms: C_15  and  C_20
REMARK    6  A    between atoms: C_17  and  O_18
REMARK    7  A    between atoms: C_20  and  S_21
REMARK                            x       y       z     vdW  Elec       q    Type
REMARK                         _______ _______ _______ _____ _____    ______ ____
ROOT
ATOM      1  C   UNL     1      34.820 -19.375 -20.927  0.00  0.00    -0.010 C 
ATOM      2  C   UNL     1      33.837 -20.284 -20.533  0.00  0.00    +0.015 C 
ATOM      3  C   UNL     1      36.156 -19.611 -20.609  0.00  0.00    -0.004 C 
ATOM      4  C   UNL     1      34.193 -21.430 -19.822  0.00  0.00    +0.084 C 
ATOM      5  C   UNL     1      36.512 -20.758 -19.897  0.00  0.00    +0.001 C 
ATOM      6  C   UNL     1      35.530 -21.667 -19.503  0.00  0.00    +0.019 C 
ENDROOT
BRANCH   4   7
ATOM      7  N   UNL     1      33.208 -22.342 -19.427  0.00  0.00    -0.214 NA
BRANCH   7  10
ATOM      8  N   UNL     1      31.837 -22.395 -17.537  0.00  0.00    -0.370 N 
ATOM      9  N   UNL     1      34.002 -23.065 -17.269  0.00  0.00    -0.370 N 
ATOM     10  C   UNL     1      33.052 -22.594 -18.149  0.00  0.00    +0.193 C 
ATOM     11  H   UNL     1      31.072 -22.058 -18.057  0.00  0.00    +0.159 HD
ATOM     12  H   UNL     1      31.733 -22.588 -16.577  0.00  0.00    +0.159 HD
ATOM     13  H   UNL     1      34.917 -23.249 -17.585  0.00  0.00    +0.159 HD
ATOM     14  H   UNL     1      33.767 -23.218 -16.326  0.00  0.00    +0.159 HD
ENDBRANCH   7  10
ENDBRANCH   4   7
BRANCH   1  15
ATOM     15  C   UNL     1      34.439 -18.149 -21.687  0.00  0.00    +0.132 C 
BRANCH  15  17
ATOM     16  O   UNL     1      34.717 -19.138 -23.904  0.00  0.00    -0.250 OA
ATOM     17  C   UNL     1      34.952 -18.215 -23.135  0.00  0.00    +0.318 C 
BRANCH  17  18
ATOM     18  O   UNL     1      35.700 -17.139 -23.494  0.00  0.00    -0.480 OA
ATOM     19  H   UNL     1      36.485 -16.937 -23.025  0.00  0.00    +0.295 HD
ENDBRANCH  17  18
ENDBRANCH  15  17
BRANCH  15  20
ATOM     20  C   UNL     1      34.928 -16.834 -21.023  0.00  0.00    +0.069 C 
BRANCH  20  21
ATOM     21  S   UNL     1      33.664 -15.522 -20.980  0.00  0.00    -0.167 S 
ATOM     22  H   UNL     1      32.893 -15.599 -22.099  0.00  0.00    +0.102 HD
ENDBRANCH  20  21
ENDBRANCH  15  20
ENDBRANCH   1  15
TORSDOF 7
ENDMDL
MODEL 5
REMARK VINA RESULT:      -6.9      6.737      7.991
REMARK  Name = 4369579
REMARK  7 active torsions:
REMARK  status: ('A' for Active; 'I' for Inactive)
REMARK    1  A    between atoms: C_1  and  C_15
REMARK    2  A    between atoms: C_4  and  N_7
REMARK    3  A    between atoms: N_7  and  C_10
REMARK    4  A    between atoms: C_15  and  C_17
REMARK    5  A    between atoms: C_15  and  C_20
REMARK    6  A    between atoms: C_17  and  O_18
REMARK    7  A    between atoms: C_20  and  S_21
REMARK                            x       y       z     vdW  Elec       q    Type
REMARK                         _______ _______ _______ _____ _____    ______ ____
ROOT
ATOM      1  C   UNL     1      31.845 -23.380 -15.616  0.00  0.00    -0.010 C 
ATOM      2  C   UNL     1      32.990 -23.645 -14.864  0.00  0.00    +0.015 C 
ATOM      3  C   UNL     1      31.959 -23.030 -16.961  0.00  0.00    -0.004 C 
ATOM      4  C   UNL     1      34.249 -23.558 -15.458  0.00  0.00    +0.084 C 
ATOM      5  C   UNL     1      33.219 -22.943 -17.555  0.00  0.00    +0.001 C 
ATOM      6  C   UNL     1      34.364 -23.208 -16.803  0.00  0.00    +0.019 C 
ENDROOT
BRANCH   4   7
ATOM      7  N   UNL     1      35.397 -23.823 -14.704  0.00  0.00    -0.214 NA
BRANCH   7  10
ATOM      8  N   UNL     1      37.464 -24.735 -15.296  0.00  0.00    -0.370 N 
ATOM      9  N   UNL     1      35.714 -26.184 -15.076  0.00  0.00    -0.370 N 
ATOM     10  C   UNL     1      36.127 -24.871 -15.005  0.00  0.00    +0.193 C 
ATOM     11  H   UNL     1      37.884 -23.844 -15.281  0.00  0.00    +0.159 HD
ATOM     12  H   UNL     1      38.001 -25.528 -15.521  0.00  0.00    +0.159 HD
ATOM     13  H   UNL     1      34.776 -26.415 -14.888  0.00  0.00    +0.159 HD
ATOM     14  H   UNL     1      36.357 -26.890 -15.314  0.00  0.00    +0.159 HD
ENDBRANCH   7  10
ENDBRANCH   4   7
BRANCH   1  15
ATOM     15  C   UNL     1      30.498 -23.472 -14.981  0.00  0.00    +0.132 C 
BRANCH  15  17
ATOM     16  O   UNL     1      30.607 -24.309 -12.688  0.00  0.00    -0.250 OA
ATOM     17  C   UNL     1      30.476 -24.547 -13.882  0.00  0.00    +0.318 C 
BRANCH  17  18
ATOM     18  O   UNL     1      30.294 -25.806 -14.360  0.00  0.00    -0.480 OA
ATOM     19  H   UNL     1      29.447 -26.079 -14.651  0.00  0.00    +0.295 HD
ENDBRANCH  17  18
ENDBRANCH  15  17
BRANCH  15  20
ATOM     20  C   UNL     1      29.355 -23.743 -15.996  0.00  0.00    +0.069 C 
BRANCH  20  21
ATOM     21  S   UNL     1      28.002 -22.525 -15.917  0.00  0.00    -0.167 S 
ATOM     22  H   UNL     1      26.810 -23.175 -15.849  0.00  0.00    +0.102 HD
ENDBRANCH  20  21
ENDBRANCH  15  20
ENDBRANCH   1  15
TORSDOF 7
ENDMDL
MODEL 6
REMARK VINA RESULT:      -6.9      5.717      7.327
REMARK  Name = 4369579
REMARK  7 active torsions:
REMARK  status: ('A' for Active; 'I' for Inactive)
REMARK    1  A    between atoms: C_1  and  C_15
REMARK    2  A    between atoms: C_4  and  N_7
REMARK    3  A    between atoms: N_7  and  C_10
REMARK    4  A    between atoms: C_15  and  C_17
REMARK    5  A    between atoms: C_15  and  C_20
REMARK    6  A    between atoms: C_17  and  O_18
REMARK    7  A    between atoms: C_20  and  S_21
REMARK                            x       y       z     vdW  Elec       q    Type
REMARK                         _______ _______ _______ _____ _____    ______ ____
ROOT
ATOM      1  C   UNL     1      34.336 -23.309 -15.410  0.00  0.00    -0.010 C 
ATOM      2  C   UNL     1      34.435 -23.127 -16.789  0.00  0.00    +0.015 C 
ATOM      3  C   UNL     1      33.082 -23.367 -14.802  0.00  0.00    -0.004 C 
ATOM      4  C   UNL     1      33.280 -23.003 -17.561  0.00  0.00    +0.084 C 
ATOM      5  C   UNL     1      31.926 -23.243 -15.575  0.00  0.00    +0.001 C 
ATOM      6  C   UNL     1      32.026 -23.061 -16.954  0.00  0.00    +0.019 C 
ENDROOT
BRANCH   4   7
ATOM      7  N   UNL     1      33.380 -22.819 -18.944  0.00  0.00    -0.214 NA
BRANCH   7  10
ATOM      8  N   UNL     1      32.667 -20.708 -19.644  0.00  0.00    -0.370 N 
ATOM      9  N   UNL     1      34.910 -21.122 -19.711  0.00  0.00    -0.370 N 
ATOM     10  C   UNL     1      33.664 -21.625 -19.407  0.00  0.00    +0.193 C 
ATOM     11  H   UNL     1      31.727 -20.945 -19.468  0.00  0.00    +0.159 HD
ATOM     12  H   UNL     1      32.892 -19.816 -19.991  0.00  0.00    +0.159 HD
ATOM     13  H   UNL     1      35.711 -21.681 -19.584  0.00  0.00    +0.159 HD
ATOM     14  H   UNL     1      35.000 -20.204 -20.054  0.00  0.00    +0.159 HD
ENDBRANCH   7  10
ENDBRANCH   4   7
BRANCH   1  15
ATOM     15  C   UNL     1      35.571 -23.442 -14.584  0.00  0.00    +0.132 C 
BRANCH  15  17
ATOM     16  O   UNL     1      36.338 -25.608 -15.416  0.00  0.00    -0.250 OA
ATOM     17  C   UNL     1      36.567 -24.420 -15.230  0.00  0.00    +0.318 C 
BRANCH  17  18
ATOM     18  O   UNL     1      37.743 -23.839 -15.585  0.00  0.00    -0.480 OA
ATOM     19  H   UNL     1      38.496 -24.371 -15.751  0.00  0.00    +0.295 HD
ENDBRANCH  17  18
ENDBRANCH  15  17
BRANCH  15  20
ATOM     20  C   UNL     1      35.292 -23.877 -13.121  0.00  0.00    +0.069 C 
BRANCH  20  21
ATOM     21  S   UNL     1      36.609 -23.406 -11.953  0.00  0.00    -0.167 S 
ATOM     22  H   UNL     1      37.823 -23.648 -12.518  0.00  0.00    +0.102 HD
ENDBRANCH  20  21
ENDBRANCH  15  20
ENDBRANCH   1  15
TORSDOF 7
ENDMDL
MODEL 7
REMARK VINA RESULT:      -6.9      4.750      6.344
REMARK  Name = 4369579
REMARK  7 active torsions:
REMARK  status: ('A' for Active; 'I' for Inactive)
REMARK    1  A    between atoms: C_1  and  C_15
REMARK    2  A    between atoms: C_4  and  N_7
REMARK    3  A    between atoms: N_7  and  C_10
REMARK    4  A    between atoms: C_15  and  C_17
REMARK    5  A    between atoms: C_15  and  C_20
REMARK    6  A    between atoms: C_17  and  O_18
REMARK    7  A    between atoms: C_20  and  S_21
REMARK                            x       y       z     vdW  Elec       q    Type
REMARK                         _______ _______ _______ _____ _____    ______ ____
ROOT
ATOM      1  C   UNL     1      34.675 -18.775 -22.653  0.00  0.00    -0.010 C 
ATOM      2  C   UNL     1      34.845 -17.433 -22.313  0.00  0.00    +0.015 C 
ATOM      3  C   UNL     1      34.519 -19.142 -23.989  0.00  0.00    -0.004 C 
ATOM      4  C   UNL     1      34.858 -16.458 -23.311  0.00  0.00    +0.084 C 
ATOM      5  C   UNL     1      34.532 -18.166 -24.987  0.00  0.00    +0.001 C 
ATOM      6  C   UNL     1      34.702 -16.824 -24.647  0.00  0.00    +0.019 C 
ENDROOT
BRANCH   4   7
ATOM      7  N   UNL     1      35.028 -15.112 -22.970  0.00  0.00    -0.214 NA
BRANCH   7  10
ATOM      8  N   UNL     1      34.103 -13.111 -23.743  0.00  0.00    -0.370 N 
ATOM      9  N   UNL     1      32.742 -14.484 -22.530  0.00  0.00    -0.370 N 
ATOM     10  C   UNL     1      34.001 -14.300 -23.060  0.00  0.00    +0.193 C 
ATOM     11  H   UNL     1      34.954 -12.860 -24.170  0.00  0.00    +0.159 HD
ATOM     12  H   UNL     1      33.325 -12.511 -23.804  0.00  0.00    +0.159 HD
ATOM     13  H   UNL     1      32.539 -15.299 -22.016  0.00  0.00    +0.159 HD
ATOM     14  H   UNL     1      32.046 -13.801 -22.664  0.00  0.00    +0.159 HD
ENDBRANCH   7  10
ENDBRANCH   4   7
BRANCH   1  15
ATOM     15  C   UNL     1      34.661 -19.818 -21.587  0.00  0.00    +0.132 C 
BRANCH  15  17
ATOM     16  O   UNL     1      32.615 -18.856 -20.659  0.00  0.00    -0.250 OA
ATOM     17  C   UNL     1      33.307 -19.847 -20.858  0.00  0.00    +0.318 C 
BRANCH  17  18
ATOM     18  O   UNL     1      32.939 -21.088 -20.447  0.00  0.00    -0.480 OA
ATOM     19  H   UNL     1      32.166 -21.200 -19.930  0.00  0.00    +0.295 HD
ENDBRANCH  17  18
ENDBRANCH  15  17
BRANCH  15  20
ATOM     20  C   UNL     1      35.805 -19.658 -20.550  0.00  0.00    +0.069 C 
BRANCH  20  21
ATOM     21  S   UNL     1      36.338 -21.230 -19.799  0.00  0.00    -0.167 S 
ATOM     22  H   UNL     1      36.178 -21.164 -18.450  0.00  0.00    +0.102 HD
ENDBRANCH  20  21
ENDBRANCH  15  20
ENDBRANCH   1  15
TORSDOF 7
ENDMDL
MODEL 8
REMARK VINA RESULT:      -6.8      2.950      4.369
REMARK  Name = 4369579
REMARK  7 active torsions:
REMARK  status: ('A' for Active; 'I' for Inactive)
REMARK    1  A    between atoms: C_1  and  C_15
REMARK    2  A    between atoms: C_4  and  N_7
REMARK    3  A    between atoms: N_7  and  C_10
REMARK    4  A    between atoms: C_15  and  C_17
REMARK    5  A    between atoms: C_15  and  C_20
REMARK    6  A    between atoms: C_17  and  O_18
REMARK    7  A    between atoms: C_20  and  S_21
REMARK                            x       y       z     vdW  Elec       q    Type
REMARK                         _______ _______ _______ _____ _____    ______ ____
ROOT
ATOM      1  C   UNL     1      34.668 -16.742 -22.687  0.00  0.00    -0.010 C 
ATOM      2  C   UNL     1      34.716 -17.534 -21.539  0.00  0.00    +0.015 C 
ATOM      3  C   UNL     1      34.780 -17.331 -23.945  0.00  0.00    -0.004 C 
ATOM      4  C   UNL     1      34.875 -18.915 -21.651  0.00  0.00    +0.084 C 
ATOM      5  C   UNL     1      34.939 -18.713 -24.057  0.00  0.00    +0.001 C 
ATOM      6  C   UNL     1      34.987 -19.505 -22.909  0.00  0.00    +0.019 C 
ENDROOT
BRANCH   4   7
ATOM      7  N   UNL     1      34.923 -19.708 -20.500  0.00  0.00    -0.214 NA
BRANCH   7  10
ATOM      8  N   UNL     1      34.092 -21.672 -19.547  0.00  0.00    -0.370 N 
ATOM      9  N   UNL     1      32.582 -20.280 -20.542  0.00  0.00    -0.370 N 
ATOM     10  C   UNL     1      33.906 -20.491 -20.225  0.00  0.00    +0.193 C 
ATOM     11  H   UNL     1      34.995 -21.940 -19.262  0.00  0.00    +0.159 HD
ATOM     12  H   UNL     1      33.321 -22.250 -19.346  0.00  0.00    +0.159 HD
ATOM     13  H   UNL     1      32.316 -19.467 -21.030  0.00  0.00    +0.159 HD
ATOM     14  H   UNL     1      31.902 -20.942 -20.282  0.00  0.00    +0.159 HD
ENDBRANCH   7  10
ENDBRANCH   4   7
BRANCH   1  15
ATOM     15  C   UNL     1      34.498 -15.265 -22.567  0.00  0.00    +0.132 C 
BRANCH  15  17
ATOM     16  O   UNL     1      34.999 -14.658 -20.253  0.00  0.00    -0.250 OA
ATOM     17  C   UNL     1      34.160 -14.861 -21.122  0.00  0.00    +0.318 C 
BRANCH  17  18
ATOM     18  O   UNL     1      32.827 -14.746 -20.890  0.00  0.00    -0.480 OA
ATOM     19  H   UNL     1      32.374 -13.965 -21.141  0.00  0.00    +0.295 HD
ENDBRANCH  17  18
ENDBRANCH  15  17
BRANCH  15  20
ATOM     20  C   UNL     1      33.428 -14.686 -23.531  0.00  0.00    +0.069 C 
BRANCH  20  21
ATOM     21  S   UNL     1      33.660 -12.919 -23.907  0.00  0.00    -0.167 S 
ATOM     22  H   UNL     1      33.017 -12.613 -25.065  0.00  0.00    +0.102 HD
ENDBRANCH  20  21
ENDBRANCH  15  20
ENDBRANCH   1  15
TORSDOF 7
ENDMDL
MODEL 9
REMARK VINA RESULT:      -6.7      6.946      8.381
REMARK  Name = 4369579
REMARK  7 active torsions:
REMARK  status: ('A' for Active; 'I' for Inactive)
REMARK    1  A    between atoms: C_1  and  C_15
REMARK    2  A    between atoms: C_4  and  N_7
REMARK    3  A    between atoms: N_7  and  C_10
REMARK    4  A    between atoms: C_15  and  C_17
REMARK    5  A    between atoms: C_15  and  C_20
REMARK    6  A    between atoms: C_17  and  O_18
REMARK    7  A    between atoms: C_20  and  S_21
REMARK                            x       y       z     vdW  Elec       q    Type
REMARK                         _______ _______ _______ _____ _____    ______ ____
ROOT
ATOM      1  C   UNL     1      34.077 -23.567 -15.288  0.00  0.00    -0.010 C 
ATOM      2  C   UNL     1      32.846 -23.569 -14.631  0.00  0.00    +0.015 C 
ATOM      3  C   UNL     1      34.139 -23.283 -16.652  0.00  0.00    -0.004 C 
ATOM      4  C   UNL     1      31.678 -23.287 -15.339  0.00  0.00    +0.084 C 
ATOM      5  C   UNL     1      32.970 -23.000 -17.360  0.00  0.00    +0.001 C 
ATOM      6  C   UNL     1      31.739 -23.002 -16.703  0.00  0.00    +0.019 C 
ENDROOT
BRANCH   4   7
ATOM      7  N   UNL     1      30.443 -23.289 -14.681  0.00  0.00    -0.214 NA
BRANCH   7  10
ATOM      8  N   UNL     1      28.483 -24.042 -15.703  0.00  0.00    -0.370 N 
ATOM      9  N   UNL     1      29.668 -25.563 -14.482  0.00  0.00    -0.370 N 
ATOM     10  C   UNL     1      29.595 -24.260 -14.925  0.00  0.00    +0.193 C 
ATOM     11  H   UNL     1      28.315 -23.149 -16.082  0.00  0.00    +0.159 HD
ATOM     12  H   UNL     1      27.855 -24.778 -15.880  0.00  0.00    +0.159 HD
ATOM     13  H   UNL     1      30.420 -25.849 -13.914  0.00  0.00    +0.159 HD
ATOM     14  H   UNL     1      28.968 -26.208 -14.732  0.00  0.00    +0.159 HD
ENDBRANCH   7  10
ENDBRANCH   4   7
BRANCH   1  15
ATOM     15  C   UNL     1      35.326 -23.870 -14.531  0.00  0.00    +0.132 C 
BRANCH  15  17
ATOM     16  O   UNL     1      35.723 -26.096 -15.458  0.00  0.00    -0.250 OA
ATOM     17  C   UNL     1      36.144 -24.969 -15.229  0.00  0.00    +0.318 C 
BRANCH  17  18
ATOM     18  O   UNL     1      37.396 -24.574 -15.577  0.00  0.00    -0.480 OA
ATOM     19  H   UNL     1      37.632 -23.668 -15.528  0.00  0.00    +0.295 HD
ENDBRANCH  17  18
ENDBRANCH  15  17
BRANCH  15  20
ATOM     20  C   UNL     1      35.071 -24.272 -13.054  0.00  0.00    +0.069 C 
BRANCH  20  21
ATOM     21  S   UNL     1      36.276 -23.564 -11.884  0.00  0.00    -0.167 S 
ATOM     22  H   UNL     1      35.688 -23.410 -10.667  0.00  0.00    +0.102 HD
ENDBRANCH  20  21
ENDBRANCH  15  20
ENDBRANCH   1  15
TORSDOF 7
ENDMDL
