MODEL 1
REMARK VINA RESULT:      -9.4      0.000      0.000
REMARK  Name = 5289159
REMARK  5 active torsions:
REMARK  status: ('A' for Active; 'I' for Inactive)
REMARK    1  A    between atoms: C_1  and  C_13
REMARK    2  A    between atoms: C_4  and  S_7
REMARK    3  A    between atoms: S_7  and  N_10
REMARK    4  A    between atoms: C_13  and  C_14
REMARK    5  A    between atoms: C_14  and  N_15
REMARK                            x       y       z     vdW  Elec       q    Type
REMARK                         _______ _______ _______ _____ _____    ______ ____
ROOT
ATOM      1  C   UNL     1      35.011 -17.047 -21.585  0.00  0.00    -0.020 C 
ATOM      2  C   UNL     1      34.512 -15.954 -20.877  0.00  0.00    -0.003 C 
ATOM      3  C   UNL     1      34.955 -17.060 -22.978  0.00  0.00    -0.003 C 
ATOM      4  C   UNL     1      33.901 -14.887 -22.956  0.00  0.00    +0.122 C 
ATOM      5  C   UNL     1      33.957 -14.874 -21.563  0.00  0.00    +0.020 C 
ATOM      6  C   UNL     1      34.400 -15.979 -23.664  0.00  0.00    +0.020 C 
ENDROOT
BRANCH   4   7
ATOM      7  S   UNL     1      33.207 -13.534 -23.815  0.00  0.00    +0.057 S 
ATOM      8  O   UNL     1      34.171 -12.443 -23.812  0.00  0.00    -0.153 OA
ATOM      9  O   UNL     1      32.666 -14.016 -25.078  0.00  0.00    -0.153 OA
BRANCH   7  10
ATOM     10  N   UNL     1      31.908 -13.124 -22.783  0.00  0.00    -0.203 NA
ATOM     11  H   UNL     1      31.721 -13.900 -22.147  0.00  0.00    +0.144 HD
ATOM     12  H   UNL     1      31.077 -12.934 -23.342  0.00  0.00    +0.144 HD
ENDBRANCH   7  10
ENDBRANCH   4   7
BRANCH   1  13
ATOM     13  C   UNL     1      35.602 -18.203 -20.851  0.00  0.00    +0.048 C 
BRANCH  13  14
ATOM     14  C   UNL     1      35.287 -19.568 -21.477  0.00  0.00    +0.095 C 
BRANCH  14  15
ATOM     15  N   UNL     1      34.783 -20.507 -20.447  0.00  0.00    -0.308 N 
ATOM     16  C   UNL     1      33.469 -20.565 -20.235  0.00  0.00    +0.095 C 
ATOM     17  C   UNL     1      35.670 -21.246 -19.781  0.00  0.00    +0.025 C 
ATOM     18  C   UNL     1      32.970 -21.434 -19.276  0.00  0.00    -0.011 C 
ATOM     19  C   UNL     1      35.228 -22.132 -18.809  0.00  0.00    +0.006 C 
ATOM     20  C   UNL     1      33.862 -22.224 -18.557  0.00  0.00    -0.024 C 
ATOM     21  C   UNL     1      32.540 -19.704 -21.022  0.00  0.00    +0.026 C 
ATOM     22  C   UNL     1      37.126 -21.123 -20.076  0.00  0.00    +0.047 C 
ATOM     23  C   UNL     1      33.357 -23.167 -17.519  0.00  0.00    +0.031 C 
ENDBRANCH  14  15
ENDBRANCH  13  14
ENDBRANCH   1  13
TORSDOF 5
ENDMDL
MODEL 2
REMARK VINA RESULT:      -9.4      0.021      1.833
REMARK  Name = 5289159
REMARK  5 active torsions:
REMARK  status: ('A' for Active; 'I' for Inactive)
REMARK    1  A    between atoms: C_1  and  C_13
REMARK    2  A    between atoms: C_4  and  S_7
REMARK    3  A    between atoms: S_7  and  N_10
REMARK    4  A    between atoms: C_13  and  C_14
REMARK    5  A    between atoms: C_14  and  N_15
REMARK                            x       y       z     vdW  Elec       q    Type
REMARK                         _______ _______ _______ _____ _____    ______ ____
ROOT
ATOM      1  C   UNL     1      35.003 -17.043 -21.604  0.00  0.00    -0.020 C 
ATOM      2  C   UNL     1      34.517 -15.944 -20.897  0.00  0.00    -0.003 C 
ATOM      3  C   UNL     1      34.936 -17.062 -22.997  0.00  0.00    -0.003 C 
ATOM      4  C   UNL     1      33.897 -14.882 -22.976  0.00  0.00    +0.122 C 
ATOM      5  C   UNL     1      33.963 -14.863 -21.584  0.00  0.00    +0.020 C 
ATOM      6  C   UNL     1      34.383 -15.981 -23.683  0.00  0.00    +0.020 C 
ENDROOT
BRANCH   4   7
ATOM      7  S   UNL     1      33.205 -13.528 -23.836  0.00  0.00    +0.057 S 
ATOM      8  O   UNL     1      34.169 -12.437 -23.827  0.00  0.00    -0.153 OA
ATOM      9  O   UNL     1      32.669 -14.009 -25.102  0.00  0.00    -0.153 OA
BRANCH   7  10
ATOM     10  N   UNL     1      31.902 -13.121 -22.808  0.00  0.00    -0.203 NA
ATOM     11  H   UNL     1      31.463 -12.262 -23.139  0.00  0.00    +0.144 HD
ATOM     12  H   UNL     1      32.248 -12.983 -21.859  0.00  0.00    +0.144 HD
ENDBRANCH   7  10
ENDBRANCH   4   7
BRANCH   1  13
ATOM     13  C   UNL     1      35.593 -18.200 -20.870  0.00  0.00    +0.048 C 
BRANCH  13  14
ATOM     14  C   UNL     1      35.267 -19.565 -21.491  0.00  0.00    +0.095 C 
BRANCH  14  15
ATOM     15  N   UNL     1      34.769 -20.500 -20.455  0.00  0.00    -0.308 N 
ATOM     16  C   UNL     1      35.657 -21.243 -19.796  0.00  0.00    +0.095 C 
ATOM     17  C   UNL     1      33.456 -20.555 -20.235  0.00  0.00    +0.025 C 
ATOM     18  C   UNL     1      35.219 -22.129 -18.822  0.00  0.00    -0.011 C 
ATOM     19  C   UNL     1      32.960 -21.424 -19.273  0.00  0.00    +0.006 C 
ATOM     20  C   UNL     1      33.854 -22.218 -18.561  0.00  0.00    -0.024 C 
ATOM     21  C   UNL     1      37.112 -21.125 -20.101  0.00  0.00    +0.026 C 
ATOM     22  C   UNL     1      32.524 -19.692 -21.015  0.00  0.00    +0.047 C 
ATOM     23  C   UNL     1      33.352 -23.160 -17.521  0.00  0.00    +0.031 C 
ENDBRANCH  14  15
ENDBRANCH  13  14
ENDBRANCH   1  13
TORSDOF 5
ENDMDL
MODEL 3
REMARK VINA RESULT:      -9.4      4.608      7.811
REMARK  Name = 5289159
REMARK  5 active torsions:
REMARK  status: ('A' for Active; 'I' for Inactive)
REMARK    1  A    between atoms: C_1  and  C_13
REMARK    2  A    between atoms: C_4  and  S_7
REMARK    3  A    between atoms: S_7  and  N_10
REMARK    4  A    between atoms: C_13  and  C_14
REMARK    5  A    between atoms: C_14  and  N_15
REMARK                            x       y       z     vdW  Elec       q    Type
REMARK                         _______ _______ _______ _____ _____    ______ ____
ROOT
ATOM      1  C   UNL     1      34.211 -19.605 -21.478  0.00  0.00    -0.020 C 
ATOM      2  C   UNL     1      35.338 -20.259 -20.979  0.00  0.00    -0.003 C 
ATOM      3  C   UNL     1      32.947 -19.912 -20.975  0.00  0.00    -0.003 C 
ATOM      4  C   UNL     1      33.936 -21.525 -19.474  0.00  0.00    +0.122 C 
ATOM      5  C   UNL     1      35.199 -21.219 -19.977  0.00  0.00    +0.020 C 
ATOM      6  C   UNL     1      32.809 -20.872 -19.973  0.00  0.00    +0.020 C 
ENDROOT
BRANCH   4   7
ATOM      7  S   UNL     1      33.762 -22.728 -18.219  0.00  0.00    +0.057 S 
ATOM      8  O   UNL     1      34.953 -22.692 -17.381  0.00  0.00    -0.153 OA
ATOM      9  O   UNL     1      32.447 -22.579 -17.613  0.00  0.00    -0.153 OA
BRANCH   7  10
ATOM     10  N   UNL     1      33.781 -24.166 -19.142  0.00  0.00    -0.203 NA
ATOM     11  H   UNL     1      32.905 -24.670 -19.004  0.00  0.00    +0.144 HD
ATOM     12  H   UNL     1      34.561 -24.751 -18.843  0.00  0.00    +0.144 HD
ENDBRANCH   7  10
ENDBRANCH   4   7
BRANCH   1  13
ATOM     13  C   UNL     1      34.358 -18.580 -22.551  0.00  0.00    +0.048 C 
BRANCH  13  14
ATOM     14  C   UNL     1      35.333 -17.447 -22.203  0.00  0.00    +0.095 C 
BRANCH  14  15
ATOM     15  N   UNL     1      34.740 -16.131 -22.540  0.00  0.00    -0.308 N 
ATOM     16  C   UNL     1      34.566 -15.829 -23.826  0.00  0.00    +0.095 C 
ATOM     17  C   UNL     1      34.414 -15.313 -21.540  0.00  0.00    +0.025 C 
ATOM     18  C   UNL     1      34.015 -14.603 -24.171  0.00  0.00    -0.011 C 
ATOM     19  C   UNL     1      33.860 -14.073 -21.826  0.00  0.00    +0.006 C 
ATOM     20  C   UNL     1      33.660 -13.718 -23.156  0.00  0.00    -0.024 C 
ATOM     21  C   UNL     1      34.958 -16.799 -24.888  0.00  0.00    +0.026 C 
ATOM     22  C   UNL     1      34.641 -15.723 -20.125  0.00  0.00    +0.047 C 
ATOM     23  C   UNL     1      33.066 -12.393 -23.494  0.00  0.00    +0.031 C 
ENDBRANCH  14  15
ENDBRANCH  13  14
ENDBRANCH   1  13
TORSDOF 5
ENDMDL
MODEL 4
REMARK VINA RESULT:      -9.4      4.616      7.833
REMARK  Name = 5289159
REMARK  5 active torsions:
REMARK  status: ('A' for Active; 'I' for Inactive)
REMARK    1  A    between atoms: C_1  and  C_13
REMARK    2  A    between atoms: C_4  and  S_7
REMARK    3  A    between atoms: S_7  and  N_10
REMARK    4  A    between atoms: C_13  and  C_14
REMARK    5  A    between atoms: C_14  and  N_15
REMARK                            x       y       z     vdW  Elec       q    Type
REMARK                         _______ _______ _______ _____ _____    ______ ____
ROOT
ATOM      1  C   UNL     1      34.187 -19.612 -21.462  0.00  0.00    -0.020 C 
ATOM      2  C   UNL     1      35.315 -20.258 -20.959  0.00  0.00    -0.003 C 
ATOM      3  C   UNL     1      32.922 -19.928 -20.966  0.00  0.00    -0.003 C 
ATOM      4  C   UNL     1      33.915 -21.536 -19.461  0.00  0.00    +0.122 C 
ATOM      5  C   UNL     1      35.179 -21.221 -19.958  0.00  0.00    +0.020 C 
ATOM      6  C   UNL     1      32.787 -20.890 -19.964  0.00  0.00    +0.020 C 
ENDROOT
BRANCH   4   7
ATOM      7  S   UNL     1      33.744 -22.741 -18.208  0.00  0.00    +0.057 S 
ATOM      8  O   UNL     1      34.928 -22.695 -17.362  0.00  0.00    -0.153 OA
ATOM      9  O   UNL     1      32.423 -22.604 -17.611  0.00  0.00    -0.153 OA
BRANCH   7  10
ATOM     10  N   UNL     1      33.783 -24.179 -19.131  0.00  0.00    -0.203 NA
ATOM     11  H   UNL     1      32.971 -24.752 -18.902  0.00  0.00    +0.144 HD
ATOM     12  H   UNL     1      34.636 -24.696 -18.920  0.00  0.00    +0.144 HD
ENDBRANCH   7  10
ENDBRANCH   4   7
BRANCH   1  13
ATOM     13  C   UNL     1      34.332 -18.585 -22.533  0.00  0.00    +0.048 C 
BRANCH  13  14
ATOM     14  C   UNL     1      35.316 -17.459 -22.190  0.00  0.00    +0.095 C 
BRANCH  14  15
ATOM     15  N   UNL     1      34.740 -16.140 -22.544  0.00  0.00    -0.308 N 
ATOM     16  C   UNL     1      34.419 -15.307 -21.554  0.00  0.00    +0.095 C 
ATOM     17  C   UNL     1      34.567 -15.853 -23.833  0.00  0.00    +0.025 C 
ATOM     18  C   UNL     1      33.876 -14.067 -21.856  0.00  0.00    -0.011 C 
ATOM     19  C   UNL     1      34.027 -14.627 -24.194  0.00  0.00    +0.006 C 
ATOM     20  C   UNL     1      33.679 -13.727 -23.191  0.00  0.00    -0.024 C 
ATOM     21  C   UNL     1      34.641 -15.702 -20.134  0.00  0.00    +0.026 C 
ATOM     22  C   UNL     1      34.951 -16.840 -24.883  0.00  0.00    +0.047 C 
ATOM     23  C   UNL     1      33.097 -12.401 -23.547  0.00  0.00    +0.031 C 
ENDBRANCH  14  15
ENDBRANCH  13  14
ENDBRANCH   1  13
TORSDOF 5
ENDMDL
MODEL 5
REMARK VINA RESULT:      -9.3      4.644      7.927
REMARK  Name = 5289159
REMARK  5 active torsions:
REMARK  status: ('A' for Active; 'I' for Inactive)
REMARK    1  A    between atoms: C_1  and  C_13
REMARK    2  A    between atoms: C_4  and  S_7
REMARK    3  A    between atoms: S_7  and  N_10
REMARK    4  A    between atoms: C_13  and  C_14
REMARK    5  A    between atoms: C_14  and  N_15
REMARK                            x       y       z     vdW  Elec       q    Type
REMARK                         _______ _______ _______ _____ _____    ______ ____
ROOT
ATOM      1  C   UNL     1      33.861 -18.779 -20.938  0.00  0.00    -0.020 C 
ATOM      2  C   UNL     1      32.709 -19.424 -20.491  0.00  0.00    -0.003 C 
ATOM      3  C   UNL     1      35.109 -19.376 -20.759  0.00  0.00    -0.003 C 
ATOM      4  C   UNL     1      34.051 -21.265 -19.688  0.00  0.00    +0.122 C 
ATOM      5  C   UNL     1      32.804 -20.667 -19.866  0.00  0.00    +0.020 C 
ATOM      6  C   UNL     1      35.204 -20.619 -20.134  0.00  0.00    +0.020 C 
ENDROOT
BRANCH   4   7
ATOM      7  S   UNL     1      34.171 -22.821 -18.905  0.00  0.00    +0.057 S 
ATOM      8  O   UNL     1      34.130 -23.855 -19.930  0.00  0.00    -0.153 OA
ATOM      9  O   UNL     1      35.279 -22.782 -17.962  0.00  0.00    -0.153 OA
BRANCH   7  10
ATOM     10  N   UNL     1      32.705 -22.858 -18.027  0.00  0.00    -0.203 NA
ATOM     11  H   UNL     1      32.771 -23.553 -17.283  0.00  0.00    +0.144 HD
ATOM     12  H   UNL     1      31.939 -23.103 -18.654  0.00  0.00    +0.144 HD
ENDBRANCH   7  10
ENDBRANCH   4   7
BRANCH   1  13
ATOM     13  C   UNL     1      33.760 -17.449 -21.604  0.00  0.00    +0.048 C 
BRANCH  13  14
ATOM     14  C   UNL     1      34.867 -17.179 -22.632  0.00  0.00    +0.095 C 
BRANCH  14  15
ATOM     15  N   UNL     1      34.372 -16.286 -23.706  0.00  0.00    -0.308 N 
ATOM     16  C   UNL     1      34.169 -15.001 -23.415  0.00  0.00    +0.095 C 
ATOM     17  C   UNL     1      34.150 -16.811 -24.910  0.00  0.00    +0.025 C 
ATOM     18  C   UNL     1      33.704 -14.143 -24.400  0.00  0.00    -0.011 C 
ATOM     19  C   UNL     1      33.683 -16.000 -25.934  0.00  0.00    +0.006 C 
ATOM     20  C   UNL     1      33.459 -14.651 -25.672  0.00  0.00    -0.024 C 
ATOM     21  C   UNL     1      34.440 -14.489 -22.041  0.00  0.00    +0.026 C 
ATOM     22  C   UNL     1      34.400 -18.260 -25.158  0.00  0.00    +0.047 C 
ATOM     23  C   UNL     1      32.958 -13.754 -26.752  0.00  0.00    +0.031 C 
ENDBRANCH  14  15
ENDBRANCH  13  14
ENDBRANCH   1  13
TORSDOF 5
ENDMDL
MODEL 6
REMARK VINA RESULT:      -9.3      4.647      7.962
REMARK  Name = 5289159
REMARK  5 active torsions:
REMARK  status: ('A' for Active; 'I' for Inactive)
REMARK    1  A    between atoms: C_1  and  C_13
REMARK    2  A    between atoms: C_4  and  S_7
REMARK    3  A    between atoms: S_7  and  N_10
REMARK    4  A    between atoms: C_13  and  C_14
REMARK    5  A    between atoms: C_14  and  N_15
REMARK                            x       y       z     vdW  Elec       q    Type
REMARK                         _______ _______ _______ _____ _____    ______ ____
ROOT
ATOM      1  C   UNL     1      33.889 -18.776 -20.935  0.00  0.00    -0.020 C 
ATOM      2  C   UNL     1      35.137 -19.369 -20.746  0.00  0.00    -0.003 C 
ATOM      3  C   UNL     1      32.734 -19.427 -20.503  0.00  0.00    -0.003 C 
ATOM      4  C   UNL     1      34.075 -21.265 -19.691  0.00  0.00    +0.122 C 
ATOM      5  C   UNL     1      35.229 -20.615 -20.124  0.00  0.00    +0.020 C 
ATOM      6  C   UNL     1      32.827 -20.672 -19.880  0.00  0.00    +0.020 C 
ENDROOT
BRANCH   4   7
ATOM      7  S   UNL     1      34.190 -22.824 -18.912  0.00  0.00    +0.057 S 
ATOM      8  O   UNL     1      34.152 -23.855 -19.939  0.00  0.00    -0.153 OA
ATOM      9  O   UNL     1      35.294 -22.788 -17.964  0.00  0.00    -0.153 OA
BRANCH   7  10
ATOM     10  N   UNL     1      32.720 -22.862 -18.040  0.00  0.00    -0.203 NA
ATOM     11  H   UNL     1      32.914 -22.783 -17.042  0.00  0.00    +0.144 HD
ATOM     12  H   UNL     1      32.238 -23.741 -18.225  0.00  0.00    +0.144 HD
ENDBRANCH   7  10
ENDBRANCH   4   7
BRANCH   1  13
ATOM     13  C   UNL     1      33.790 -17.446 -21.602  0.00  0.00    +0.048 C 
BRANCH  13  14
ATOM     14  C   UNL     1      34.879 -17.190 -22.652  0.00  0.00    +0.095 C 
BRANCH  14  15
ATOM     15  N   UNL     1      34.369 -16.304 -23.724  0.00  0.00    -0.308 N 
ATOM     16  C   UNL     1      34.138 -16.835 -24.925  0.00  0.00    +0.095 C 
ATOM     17  C   UNL     1      34.168 -15.018 -23.437  0.00  0.00    +0.025 C 
ATOM     18  C   UNL     1      33.662 -16.028 -25.948  0.00  0.00    -0.011 C 
ATOM     19  C   UNL     1      33.693 -14.164 -24.422  0.00  0.00    +0.006 C 
ATOM     20  C   UNL     1      33.439 -14.679 -25.690  0.00  0.00    -0.024 C 
ATOM     21  C   UNL     1      34.389 -18.284 -25.169  0.00  0.00    +0.026 C 
ATOM     22  C   UNL     1      34.450 -14.498 -22.069  0.00  0.00    +0.047 C 
ATOM     23  C   UNL     1      32.927 -13.786 -26.769  0.00  0.00    +0.031 C 
ENDBRANCH  14  15
ENDBRANCH  13  14
ENDBRANCH   1  13
TORSDOF 5
ENDMDL
MODEL 7
REMARK VINA RESULT:      -9.2      3.090      5.005
REMARK  Name = 5289159
REMARK  5 active torsions:
REMARK  status: ('A' for Active; 'I' for Inactive)
REMARK    1  A    between atoms: C_1  and  C_13
REMARK    2  A    between atoms: C_4  and  S_7
REMARK    3  A    between atoms: S_7  and  N_10
REMARK    4  A    between atoms: C_13  and  C_14
REMARK    5  A    between atoms: C_14  and  N_15
REMARK                            x       y       z     vdW  Elec       q    Type
REMARK                         _______ _______ _______ _____ _____    ______ ____
ROOT
ATOM      1  C   UNL     1      32.980 -13.193 -23.476  0.00  0.00    -0.020 C 
ATOM      2  C   UNL     1      32.075 -12.814 -22.486  0.00  0.00    -0.003 C 
ATOM      3  C   UNL     1      33.701 -12.222 -24.172  0.00  0.00    -0.003 C 
ATOM      4  C   UNL     1      32.611 -10.492 -22.885  0.00  0.00    +0.122 C 
ATOM      5  C   UNL     1      31.890 -11.463 -22.191  0.00  0.00    +0.020 C 
ATOM      6  C   UNL     1      33.516 -10.871 -23.875  0.00  0.00    +0.020 C 
ENDROOT
BRANCH   4   7
ATOM      7  S   UNL     1      32.380  -8.801 -22.515  0.00  0.00    +0.057 S 
ATOM      8  O   UNL     1      33.651  -8.114 -22.697  0.00  0.00    -0.153 OA
ATOM      9  O   UNL     1      31.197  -8.330 -23.220  0.00  0.00    -0.153 OA
BRANCH   7  10
ATOM     10  N   UNL     1      32.030  -8.878 -20.844  0.00  0.00    -0.203 NA
ATOM     11  H   UNL     1      31.108  -9.292 -20.708  0.00  0.00    +0.144 HD
ATOM     12  H   UNL     1      32.042  -7.937 -20.451  0.00  0.00    +0.144 HD
ENDBRANCH   7  10
ENDBRANCH   4   7
BRANCH   1  13
ATOM     13  C   UNL     1      33.176 -14.636 -23.794  0.00  0.00    +0.048 C 
BRANCH  13  14
ATOM     14  C   UNL     1      34.624 -15.120 -23.637  0.00  0.00    +0.095 C 
BRANCH  14  15
ATOM     15  N   UNL     1      34.661 -16.427 -22.938  0.00  0.00    -0.308 N 
ATOM     16  C   UNL     1      34.638 -16.430 -21.605  0.00  0.00    +0.095 C 
ATOM     17  C   UNL     1      34.719 -17.535 -23.675  0.00  0.00    +0.025 C 
ATOM     18  C   UNL     1      34.674 -17.638 -20.925  0.00  0.00    -0.011 C 
ATOM     19  C   UNL     1      34.758 -18.772 -23.048  0.00  0.00    +0.006 C 
ATOM     20  C   UNL     1      34.735 -18.820 -21.658  0.00  0.00    -0.024 C 
ATOM     21  C   UNL     1      34.574 -15.146 -20.850  0.00  0.00    +0.026 C 
ATOM     22  C   UNL     1      34.742 -17.449 -25.164  0.00  0.00    +0.047 C 
ATOM     23  C   UNL     1      34.775 -20.134 -20.956  0.00  0.00    +0.031 C 
ENDBRANCH  14  15
ENDBRANCH  13  14
ENDBRANCH   1  13
TORSDOF 5
ENDMDL
MODEL 8
REMARK VINA RESULT:      -9.2      3.121      5.047
REMARK  Name = 5289159
REMARK  5 active torsions:
REMARK  status: ('A' for Active; 'I' for Inactive)
REMARK    1  A    between atoms: C_1  and  C_13
REMARK    2  A    between atoms: C_4  and  S_7
REMARK    3  A    between atoms: S_7  and  N_10
REMARK    4  A    between atoms: C_13  and  C_14
REMARK    5  A    between atoms: C_14  and  N_15
REMARK                            x       y       z     vdW  Elec       q    Type
REMARK                         _______ _______ _______ _____ _____    ______ ____
ROOT
ATOM      1  C   UNL     1      32.987 -13.133 -23.488  0.00  0.00    -0.020 C 
ATOM      2  C   UNL     1      32.081 -12.750 -22.500  0.00  0.00    -0.003 C 
ATOM      3  C   UNL     1      33.692 -12.164 -24.202  0.00  0.00    -0.003 C 
ATOM      4  C   UNL     1      32.585 -10.429 -22.937  0.00  0.00    +0.122 C 
ATOM      5  C   UNL     1      31.879 -11.398 -22.225  0.00  0.00    +0.020 C 
ATOM      6  C   UNL     1      33.491 -10.811 -23.926  0.00  0.00    +0.020 C 
ENDROOT
BRANCH   4   7
ATOM      7  S   UNL     1      32.334  -8.735 -22.593  0.00  0.00    +0.057 S 
ATOM      8  O   UNL     1      33.588  -8.030 -22.816  0.00  0.00    -0.153 OA
ATOM      9  O   UNL     1      31.127  -8.296 -23.280  0.00  0.00    -0.153 OA
BRANCH   7  10
ATOM     10  N   UNL     1      32.021  -8.786 -20.914  0.00  0.00    -0.203 NA
ATOM     11  H   UNL     1      31.131  -8.329 -20.719  0.00  0.00    +0.144 HD
ATOM     12  H   UNL     1      32.768  -8.305 -20.414  0.00  0.00    +0.144 HD
ENDBRANCH   7  10
ENDBRANCH   4   7
BRANCH   1  13
ATOM     13  C   UNL     1      33.200 -14.579 -23.784  0.00  0.00    +0.048 C 
BRANCH  13  14
ATOM     14  C   UNL     1      34.649 -15.048 -23.593  0.00  0.00    +0.095 C 
BRANCH  14  15
ATOM     15  N   UNL     1      34.682 -16.363 -22.911  0.00  0.00    -0.308 N 
ATOM     16  C   UNL     1      34.730 -17.463 -23.662  0.00  0.00    +0.095 C 
ATOM     17  C   UNL     1      34.660 -16.383 -21.578  0.00  0.00    +0.025 C 
ATOM     18  C   UNL     1      34.760 -18.707 -23.050  0.00  0.00    -0.011 C 
ATOM     19  C   UNL     1      34.687 -17.599 -20.912  0.00  0.00    +0.006 C 
ATOM     20  C   UNL     1      34.738 -18.772 -21.660  0.00  0.00    -0.024 C 
ATOM     21  C   UNL     1      34.751 -17.359 -25.149  0.00  0.00    +0.026 C 
ATOM     22  C   UNL     1      34.605 -15.108 -20.807  0.00  0.00    +0.047 C 
ATOM     23  C   UNL     1      34.769 -20.094 -20.972  0.00  0.00    +0.031 C 
ENDBRANCH  14  15
ENDBRANCH  13  14
ENDBRANCH   1  13
TORSDOF 5
ENDMDL
MODEL 9
REMARK VINA RESULT:      -9.2      3.133      5.137
REMARK  Name = 5289159
REMARK  5 active torsions:
REMARK  status: ('A' for Active; 'I' for Inactive)
REMARK    1  A    between atoms: C_1  and  C_13
REMARK    2  A    between atoms: C_4  and  S_7
REMARK    3  A    between atoms: S_7  and  N_10
REMARK    4  A    between atoms: C_13  and  C_14
REMARK    5  A    between atoms: C_14  and  N_15
REMARK                            x       y       z     vdW  Elec       q    Type
REMARK                         _______ _______ _______ _____ _____    ______ ____
ROOT
ATOM      1  C   UNL     1      32.992 -13.109 -23.492  0.00  0.00    -0.020 C 
ATOM      2  C   UNL     1      33.700 -12.147 -24.213  0.00  0.00    -0.003 C 
ATOM      3  C   UNL     1      32.093 -12.717 -22.501  0.00  0.00    -0.003 C 
ATOM      4  C   UNL     1      32.609 -10.400 -22.951  0.00  0.00    +0.122 C 
ATOM      5  C   UNL     1      33.509 -10.793 -23.941  0.00  0.00    +0.020 C 
ATOM      6  C   UNL     1      31.902 -11.362 -22.231  0.00  0.00    +0.020 C 
ENDROOT
BRANCH   4   7
ATOM      7  S   UNL     1      32.369  -8.704 -22.611  0.00  0.00    +0.057 S 
ATOM      8  O   UNL     1      33.611  -7.998 -22.893  0.00  0.00    -0.153 OA
ATOM      9  O   UNL     1      31.133  -8.274 -23.248  0.00  0.00    -0.153 OA
BRANCH   7  10
ATOM     10  N   UNL     1      32.130  -8.741 -20.919  0.00  0.00    -0.203 NA
ATOM     11  H   UNL     1      32.878  -9.280 -20.481  0.00  0.00    +0.144 HD
ATOM     12  H   UNL     1      31.231  -9.177 -20.712  0.00  0.00    +0.144 HD
ENDBRANCH   7  10
ENDBRANCH   4   7
BRANCH   1  13
ATOM     13  C   UNL     1      33.198 -14.557 -23.781  0.00  0.00    +0.048 C 
BRANCH  13  14
ATOM     14  C   UNL     1      34.646 -15.031 -23.598  0.00  0.00    +0.095 C 
BRANCH  14  15
ATOM     15  N   UNL     1      34.679 -16.347 -22.915  0.00  0.00    -0.308 N 
ATOM     16  C   UNL     1      34.658 -16.367 -21.583  0.00  0.00    +0.095 C 
ATOM     17  C   UNL     1      34.731 -17.445 -23.667  0.00  0.00    +0.025 C 
ATOM     18  C   UNL     1      34.691 -17.584 -20.918  0.00  0.00    -0.011 C 
ATOM     19  C   UNL     1      34.766 -18.691 -23.056  0.00  0.00    +0.006 C 
ATOM     20  C   UNL     1      34.746 -18.756 -21.666  0.00  0.00    -0.024 C 
ATOM     21  C   UNL     1      34.601 -15.092 -20.811  0.00  0.00    +0.026 C 
ATOM     22  C   UNL     1      34.752 -17.341 -25.154  0.00  0.00    +0.047 C 
ATOM     23  C   UNL     1      34.781 -20.079 -20.981  0.00  0.00    +0.031 C 
ENDBRANCH  14  15
ENDBRANCH  13  14
ENDBRANCH   1  13
TORSDOF 5
ENDMDL
