MODEL 1
REMARK VINA RESULT:      -7.8      0.000      0.000
REMARK  Name = 448488
REMARK  0 active torsions:
REMARK  status: ('A' for Active; 'I' for Inactive)
REMARK                            x       y       z     vdW  Elec       q    Type
REMARK                         _______ _______ _______ _____ _____    ______ ____
ROOT
ATOM      1  O   UNL     1      34.627 -18.237 -25.818  0.00  0.00    -0.209 OA
ATOM      2  N   UNL     1      33.827 -15.104 -23.451  0.00  0.00    -0.275 N 
ATOM      3  N   UNL     1      33.808 -16.106 -25.612  0.00  0.00    -0.302 NA
ATOM      4  N   UNL     1      33.005 -13.936 -25.245  0.00  0.00    -0.320 N 
ATOM      5  C   UNL     1      34.398 -16.232 -22.858  0.00  0.00    +0.059 C 
ATOM      6  C   UNL     1      34.689 -17.344 -23.659  0.00  0.00    +0.108 C 
ATOM      7  C   UNL     1      34.685 -16.279 -21.491  0.00  0.00    -0.008 C 
ATOM      8  C   UNL     1      35.260 -18.492 -23.104  0.00  0.00    +0.014 C 
ATOM      9  C   UNL     1      35.255 -17.425 -20.934  0.00  0.00    -0.003 C 
ATOM     10  C   UNL     1      34.372 -17.266 -25.111  0.00  0.00    +0.208 C 
ATOM     11  C   UNL     1      35.542 -18.528 -21.738  0.00  0.00    +0.001 C 
ATOM     12  C   UNL     1      34.394 -15.121 -20.592  0.00  0.00    +0.032 C 
ATOM     13  C   UNL     1      33.564 -15.108 -24.802  0.00  0.00    +0.248 C 
ATOM     14  H   UNL     1      33.614 -14.313 -22.906  0.00  0.00    +0.156 HD
ATOM     15  H   UNL     1      32.834 -13.201 -24.611  0.00  0.00    +0.146 HD
ATOM     16  H   UNL     1      32.775 -13.827 -26.197  0.00  0.00    +0.146 HD
ENDROOT
TORSDOF 0
ENDMDL
MODEL 2
REMARK VINA RESULT:      -7.8      1.427      2.101
REMARK  Name = 448488
REMARK  0 active torsions:
REMARK  status: ('A' for Active; 'I' for Inactive)
REMARK                            x       y       z     vdW  Elec       q    Type
REMARK                         _______ _______ _______ _____ _____    ______ ____
ROOT
ATOM      1  O   UNL     1      33.392 -15.310 -26.788  0.00  0.00    -0.209 OA
ATOM      2  N   UNL     1      33.779 -14.465 -22.890  0.00  0.00    -0.275 N 
ATOM      3  N   UNL     1      33.133 -13.800 -25.084  0.00  0.00    -0.302 NA
ATOM      4  N   UNL     1      32.929 -12.365 -23.243  0.00  0.00    -0.320 N 
ATOM      5  C   UNL     1      34.176 -15.734 -23.318  0.00  0.00    +0.059 C 
ATOM      6  C   UNL     1      34.053 -16.060 -24.675  0.00  0.00    +0.108 C 
ATOM      7  C   UNL     1      34.691 -16.683 -22.430  0.00  0.00    -0.008 C 
ATOM      8  C   UNL     1      34.439 -17.319 -25.144  0.00  0.00    +0.014 C 
ATOM      9  C   UNL     1      35.078 -17.940 -22.895  0.00  0.00    -0.003 C 
ATOM     10  C   UNL     1      33.500 -15.031 -25.597  0.00  0.00    +0.208 C 
ATOM     11  C   UNL     1      34.952 -18.258 -24.248  0.00  0.00    +0.001 C 
ATOM     12  C   UNL     1      34.843 -16.386 -20.973  0.00  0.00    +0.032 C 
ATOM     13  C   UNL     1      33.278 -13.567 -23.805  0.00  0.00    +0.248 C 
ATOM     14  H   UNL     1      33.856 -14.216 -21.941  0.00  0.00    +0.156 HD
ATOM     15  H   UNL     1      33.050 -12.220 -22.276  0.00  0.00    +0.146 HD
ATOM     16  H   UNL     1      32.559 -11.646 -23.806  0.00  0.00    +0.146 HD
ENDROOT
TORSDOF 0
ENDMDL
MODEL 3
REMARK VINA RESULT:      -7.8      2.019      3.231
REMARK  Name = 448488
REMARK  0 active torsions:
REMARK  status: ('A' for Active; 'I' for Inactive)
REMARK                            x       y       z     vdW  Elec       q    Type
REMARK                         _______ _______ _______ _____ _____    ______ ____
ROOT
ATOM      1  O   UNL     1      34.892 -14.891 -20.253  0.00  0.00    -0.209 OA
ATOM      2  N   UNL     1      34.112 -15.788 -24.080  0.00  0.00    -0.275 N 
ATOM      3  N   UNL     1      34.229 -14.179 -22.328  0.00  0.00    -0.302 NA
ATOM      4  N   UNL     1      33.566 -13.601 -24.500  0.00  0.00    -0.320 N 
ATOM      5  C   UNL     1      34.530 -16.827 -23.246  0.00  0.00    +0.059 C 
ATOM      6  C   UNL     1      34.811 -16.546 -21.903  0.00  0.00    +0.108 C 
ATOM      7  C   UNL     1      34.675 -18.136 -23.716  0.00  0.00    -0.008 C 
ATOM      8  C   UNL     1      35.233 -17.557 -21.035  0.00  0.00    +0.014 C 
ATOM      9  C   UNL     1      35.096 -19.148 -22.852  0.00  0.00    -0.003 C 
ATOM     10  C   UNL     1      34.649 -15.144 -21.430  0.00  0.00    +0.208 C 
ATOM     11  C   UNL     1      35.374 -18.859 -21.516  0.00  0.00    +0.001 C 
ATOM     12  C   UNL     1      34.388 -18.490 -25.139  0.00  0.00    +0.032 C 
ATOM     13  C   UNL     1      33.985 -14.517 -23.568  0.00  0.00    +0.248 C 
ATOM     14  H   UNL     1      33.910 -15.965 -25.027  0.00  0.00    +0.156 HD
ATOM     15  H   UNL     1      33.391 -13.886 -25.427  0.00  0.00    +0.146 HD
ATOM     16  H   UNL     1      33.441 -12.658 -24.244  0.00  0.00    +0.146 HD
ENDROOT
TORSDOF 0
ENDMDL
MODEL 4
REMARK VINA RESULT:      -7.7      2.161      3.752
REMARK  Name = 448488
REMARK  0 active torsions:
REMARK  status: ('A' for Active; 'I' for Inactive)
REMARK                            x       y       z     vdW  Elec       q    Type
REMARK                         _______ _______ _______ _____ _____    ______ ____
ROOT
ATOM      1  O   UNL     1      35.617 -19.035 -20.587  0.00  0.00    -0.209 OA
ATOM      2  N   UNL     1      34.437 -15.729 -22.520  0.00  0.00    -0.275 N 
ATOM      3  N   UNL     1      35.128 -16.797 -20.507  0.00  0.00    -0.302 NA
ATOM      4  N   UNL     1      34.594 -14.517 -20.579  0.00  0.00    -0.320 N 
ATOM      5  C   UNL     1      34.539 -16.908 -23.261  0.00  0.00    +0.059 C 
ATOM      6  C   UNL     1      34.950 -18.081 -22.614  0.00  0.00    +0.108 C 
ATOM      7  C   UNL     1      34.244 -16.947 -24.627  0.00  0.00    -0.008 C 
ATOM      8  C   UNL     1      35.065 -19.281 -23.320  0.00  0.00    +0.014 C 
ATOM      9  C   UNL     1      34.358 -18.144 -25.334  0.00  0.00    -0.003 C 
ATOM     10  C   UNL     1      35.259 -18.010 -21.160  0.00  0.00    +0.208 C 
ATOM     11  C   UNL     1      34.768 -19.308 -24.683  0.00  0.00    +0.001 C 
ATOM     12  C   UNL     1      33.802 -15.725 -25.364  0.00  0.00    +0.032 C 
ATOM     13  C   UNL     1      34.739 -15.744 -21.177  0.00  0.00    +0.248 C 
ATOM     14  H   UNL     1      34.151 -14.894 -22.955  0.00  0.00    +0.156 HD
ATOM     15  H   UNL     1      34.299 -13.742 -21.111  0.00  0.00    +0.146 HD
ATOM     16  H   UNL     1      34.784 -14.411 -19.619  0.00  0.00    +0.146 HD
ENDROOT
TORSDOF 0
ENDMDL
MODEL 5
REMARK VINA RESULT:      -7.7      5.783      7.302
REMARK  Name = 448488
REMARK  0 active torsions:
REMARK  status: ('A' for Active; 'I' for Inactive)
REMARK                            x       y       z     vdW  Elec       q    Type
REMARK                         _______ _______ _______ _____ _____    ______ ____
ROOT
ATOM      1  O   UNL     1      32.689 -22.579 -18.442  0.00  0.00    -0.209 OA
ATOM      2  N   UNL     1      36.400 -21.147 -18.925  0.00  0.00    -0.275 N 
ATOM      3  N   UNL     1      34.882 -22.580 -17.778  0.00  0.00    -0.302 NA
ATOM      4  N   UNL     1      37.153 -22.471 -17.211  0.00  0.00    -0.320 N 
ATOM      5  C   UNL     1      35.405 -20.659 -19.774  0.00  0.00    +0.059 C 
ATOM      6  C   UNL     1      34.097 -21.140 -19.630  0.00  0.00    +0.108 C 
ATOM      7  C   UNL     1      35.679 -19.706 -20.759  0.00  0.00    -0.008 C 
ATOM      8  C   UNL     1      33.072 -20.678 -20.460  0.00  0.00    +0.014 C 
ATOM      9  C   UNL     1      34.658 -19.242 -21.589  0.00  0.00    -0.003 C 
ATOM     10  C   UNL     1      33.833 -22.155 -18.574  0.00  0.00    +0.208 C 
ATOM     11  C   UNL     1      33.358 -19.726 -21.440  0.00  0.00    +0.001 C 
ATOM     12  C   UNL     1      37.057 -19.160 -20.954  0.00  0.00    +0.032 C 
ATOM     13  C   UNL     1      36.078 -22.085 -17.970  0.00  0.00    +0.248 C 
ATOM     14  H   UNL     1      37.325 -20.822 -19.009  0.00  0.00    +0.156 HD
ATOM     15  H   UNL     1      38.041 -22.080 -17.379  0.00  0.00    +0.146 HD
ATOM     16  H   UNL     1      37.038 -23.139 -16.496  0.00  0.00    +0.146 HD
ENDROOT
TORSDOF 0
ENDMDL
MODEL 6
REMARK VINA RESULT:      -7.6      6.633      8.076
REMARK  Name = 448488
REMARK  0 active torsions:
REMARK  status: ('A' for Active; 'I' for Inactive)
REMARK                            x       y       z     vdW  Elec       q    Type
REMARK                         _______ _______ _______ _____ _____    ______ ____
ROOT
ATOM      1  O   UNL     1      36.037 -23.190 -16.748  0.00  0.00    -0.209 OA
ATOM      2  N   UNL     1      32.723 -21.980 -18.649  0.00  0.00    -0.275 N 
ATOM      3  N   UNL     1      33.751 -23.239 -16.908  0.00  0.00    -0.302 NA
ATOM      4  N   UNL     1      31.426 -23.192 -17.198  0.00  0.00    -0.320 N 
ATOM      5  C   UNL     1      33.949 -21.517 -19.131  0.00  0.00    +0.059 C 
ATOM      6  C   UNL     1      35.126 -21.922 -18.488  0.00  0.00    +0.108 C 
ATOM      7  C   UNL     1      34.032 -20.664 -20.235  0.00  0.00    -0.008 C 
ATOM      8  C   UNL     1      36.373 -21.481 -18.939  0.00  0.00    +0.014 C 
ATOM      9  C   UNL     1      35.275 -20.222 -20.688  0.00  0.00    -0.003 C 
ATOM     10  C   UNL     1      35.009 -22.830 -17.314  0.00  0.00    +0.208 C 
ATOM     11  C   UNL     1      36.443 -20.629 -20.042  0.00  0.00    +0.001 C 
ATOM     12  C   UNL     1      32.807 -20.202 -20.957  0.00  0.00    +0.032 C 
ATOM     13  C   UNL     1      32.697 -22.819 -17.558  0.00  0.00    +0.248 C 
ATOM     14  H   UNL     1      31.885 -21.707 -19.086  0.00  0.00    +0.156 HD
ATOM     15  H   UNL     1      30.652 -22.860 -17.707  0.00  0.00    +0.146 HD
ATOM     16  H   UNL     1      31.288 -23.793 -16.429  0.00  0.00    +0.146 HD
ENDROOT
TORSDOF 0
ENDMDL
MODEL 7
REMARK VINA RESULT:      -7.6      1.932      3.304
REMARK  Name = 448488
REMARK  0 active torsions:
REMARK  status: ('A' for Active; 'I' for Inactive)
REMARK                            x       y       z     vdW  Elec       q    Type
REMARK                         _______ _______ _______ _____ _____    ______ ____
ROOT
ATOM      1  O   UNL     1      33.476 -15.564 -26.627  0.00  0.00    -0.209 OA
ATOM      2  N   UNL     1      34.629 -17.361 -23.236  0.00  0.00    -0.275 N 
ATOM      3  N   UNL     1      34.232 -17.459 -25.582  0.00  0.00    -0.302 NA
ATOM      4  N   UNL     1      35.004 -19.314 -24.377  0.00  0.00    -0.320 N 
ATOM      5  C   UNL     1      34.244 -16.021 -23.158  0.00  0.00    +0.059 C 
ATOM      6  C   UNL     1      33.836 -15.365 -24.326  0.00  0.00    +0.108 C 
ATOM      7  C   UNL     1      34.256 -15.321 -21.948  0.00  0.00    -0.008 C 
ATOM      8  C   UNL     1      33.443 -14.024 -24.291  0.00  0.00    +0.014 C 
ATOM      9  C   UNL     1      33.864 -13.982 -21.909  0.00  0.00    -0.003 C 
ATOM     10  C   UNL     1      33.835 -16.134 -25.600  0.00  0.00    +0.208 C 
ATOM     11  C   UNL     1      33.459 -13.335 -23.077  0.00  0.00    +0.001 C 
ATOM     12  C   UNL     1      34.682 -15.974 -20.673  0.00  0.00    +0.032 C 
ATOM     13  C   UNL     1      34.600 -18.005 -24.452  0.00  0.00    +0.248 C 
ATOM     14  H   UNL     1      34.920 -17.840 -22.427  0.00  0.00    +0.156 HD
ATOM     15  H   UNL     1      35.275 -19.698 -23.511  0.00  0.00    +0.146 HD
ATOM     16  H   UNL     1      35.022 -19.872 -25.189  0.00  0.00    +0.146 HD
ENDROOT
TORSDOF 0
ENDMDL
MODEL 8
REMARK VINA RESULT:      -7.6      2.806      4.759
REMARK  Name = 448488
REMARK  0 active torsions:
REMARK  status: ('A' for Active; 'I' for Inactive)
REMARK                            x       y       z     vdW  Elec       q    Type
REMARK                         _______ _______ _______ _____ _____    ______ ____
ROOT
ATOM      1  O   UNL     1      34.484 -14.553 -20.506  0.00  0.00    -0.209 OA
ATOM      2  N   UNL     1      35.129 -17.965 -22.507  0.00  0.00    -0.275 N 
ATOM      3  N   UNL     1      35.203 -16.729 -20.472  0.00  0.00    -0.302 NA
ATOM      4  N   UNL     1      35.906 -18.961 -20.593  0.00  0.00    -0.320 N 
ATOM      5  C   UNL     1      34.608 -16.886 -23.223  0.00  0.00    +0.059 C 
ATOM      6  C   UNL     1      34.370 -15.679 -22.552  0.00  0.00    +0.108 C 
ATOM      7  C   UNL     1      34.317 -16.979 -24.587  0.00  0.00    -0.008 C 
ATOM      8  C   UNL     1      33.849 -14.575 -23.232  0.00  0.00    +0.014 C 
ATOM      9  C   UNL     1      33.796 -15.878 -25.269  0.00  0.00    -0.003 C 
ATOM     10  C   UNL     1      34.688 -15.609 -21.099  0.00  0.00    +0.208 C 
ATOM     11  C   UNL     1      33.563 -14.680 -24.594  0.00  0.00    +0.001 C 
ATOM     12  C   UNL     1      34.551 -18.242 -25.350  0.00  0.00    +0.032 C 
ATOM     13  C   UNL     1      35.398 -17.822 -21.164  0.00  0.00    +0.248 C 
ATOM     14  H   UNL     1      35.302 -18.822 -22.959  0.00  0.00    +0.156 HD
ATOM     15  H   UNL     1      36.041 -19.769 -21.140  0.00  0.00    +0.146 HD
ATOM     16  H   UNL     1      36.135 -18.973 -19.635  0.00  0.00    +0.146 HD
ENDROOT
TORSDOF 0
ENDMDL
MODEL 9
REMARK VINA RESULT:      -7.5      2.354      3.785
REMARK  Name = 448488
REMARK  0 active torsions:
REMARK  status: ('A' for Active; 'I' for Inactive)
REMARK                            x       y       z     vdW  Elec       q    Type
REMARK                         _______ _______ _______ _____ _____    ______ ____
ROOT
ATOM      1  O   UNL     1      34.804 -15.710 -20.301  0.00  0.00    -0.209 OA
ATOM      2  N   UNL     1      32.773 -14.155 -23.385  0.00  0.00    -0.275 N 
ATOM      3  N   UNL     1      33.307 -14.151 -21.065  0.00  0.00    -0.302 NA
ATOM      4  N   UNL     1      31.795 -12.620 -21.991  0.00  0.00    -0.320 N 
ATOM      5  C   UNL     1      33.623 -15.231 -23.649  0.00  0.00    +0.059 C 
ATOM      6  C   UNL     1      34.348 -15.796 -22.592  0.00  0.00    +0.108 C 
ATOM      7  C   UNL     1      33.769 -15.755 -24.937  0.00  0.00    -0.008 C 
ATOM      8  C   UNL     1      35.210 -16.874 -22.814  0.00  0.00    +0.014 C 
ATOM      9  C   UNL     1      34.629 -16.831 -25.161  0.00  0.00    -0.003 C 
ATOM     10  C   UNL     1      34.173 -15.217 -21.232  0.00  0.00    +0.208 C 
ATOM     11  C   UNL     1      35.347 -17.389 -24.103  0.00  0.00    +0.001 C 
ATOM     12  C   UNL     1      33.020 -15.189 -26.099  0.00  0.00    +0.032 C 
ATOM     13  C   UNL     1      32.664 -13.676 -22.100  0.00  0.00    +0.248 C 
ATOM     14  H   UNL     1      32.255 -13.743 -24.114  0.00  0.00    +0.156 HD
ATOM     15  H   UNL     1      31.325 -12.284 -22.789  0.00  0.00    +0.146 HD
ATOM     16  H   UNL     1      31.640 -12.197 -21.115  0.00  0.00    +0.146 HD
ENDROOT
TORSDOF 0
ENDMDL
