MODEL 1
REMARK VINA RESULT:      -6.9      0.000      0.000
REMARK  Name = 2479
REMARK  3 active torsions:
REMARK  status: ('A' for Active; 'I' for Inactive)
REMARK    1  A    between atoms: C_6  and  C_12
REMARK    2  A    between atoms: C_6  and  C_16
REMARK    3  A    between atoms: C_12  and  C_14
REMARK                            x       y       z     vdW  Elec       q    Type
REMARK                         _______ _______ _______ _____ _____    ______ ____
ROOT
ATOM      1  O   UNL     1      37.610 -22.678 -14.777  0.00  0.00    -0.274 OA
ATOM      2  O   UNL     1      36.386 -25.826 -11.515  0.00  0.00    -0.274 OA
ATOM      3  O   UNL     1      39.215 -26.974 -14.941  0.00  0.00    -0.252 OA
ATOM      4  N   UNL     1      38.332 -24.851 -14.912  0.00  0.00    -0.239 N 
ATOM      5  N   UNL     1      37.720 -26.423 -13.283  0.00  0.00    -0.239 N 
ATOM      6  C   UNL     1      36.460 -24.323 -13.417  0.00  0.00    +0.138 C 
ATOM      7  C   UNL     1      37.521 -23.847 -14.404  0.00  0.00    +0.237 C 
ATOM      8  C   UNL     1      36.853 -25.566 -12.624  0.00  0.00    +0.237 C 
ATOM      9  C   UNL     1      38.461 -26.145 -14.425  0.00  0.00    +0.312 C 
ATOM     10  H   UNL     1      38.874 -24.621 -15.702  0.00  0.00    +0.159 HD
ATOM     11  H   UNL     1      37.822 -27.326 -12.902  0.00  0.00    +0.159 HD
ENDROOT
BRANCH   6  12
ATOM     12  C   UNL     1      35.211 -24.688 -14.238  0.00  0.00    +0.016 C 
ATOM     13  C   UNL     1      35.258 -23.972 -15.586  0.00  0.00    +0.001 C 
BRANCH  12  14
ATOM     14  C   UNL     1      33.945 -24.348 -13.433  0.00  0.00    +0.001 C 
ATOM     15  C   UNL     1      32.855 -23.693 -14.270  0.00  0.00    +0.000 C 
ENDBRANCH  12  14
ENDBRANCH   6  12
BRANCH   6  16
ATOM     16  C   UNL     1      36.114 -23.184 -12.447  0.00  0.00    +0.017 C 
ATOM     17  C   UNL     1      37.308 -22.817 -11.594  0.00  0.00    +0.001 C 
ENDBRANCH   6  16
TORSDOF 3
ENDMDL
MODEL 2
REMARK VINA RESULT:      -6.9      2.466      4.026
REMARK  Name = 2479
REMARK  3 active torsions:
REMARK  status: ('A' for Active; 'I' for Inactive)
REMARK    1  A    between atoms: C_6  and  C_12
REMARK    2  A    between atoms: C_6  and  C_16
REMARK    3  A    between atoms: C_12  and  C_14
REMARK                            x       y       z     vdW  Elec       q    Type
REMARK                         _______ _______ _______ _____ _____    ______ ____
ROOT
ATOM      1  O   UNL     1      38.245 -22.409 -12.167  0.00  0.00    -0.274 OA
ATOM      2  O   UNL     1      34.596 -24.089 -14.598  0.00  0.00    -0.274 OA
ATOM      3  O   UNL     1      35.213 -25.235 -10.198  0.00  0.00    -0.252 OA
ATOM      4  N   UNL     1      36.784 -23.899 -11.214  0.00  0.00    -0.239 N 
ATOM      5  N   UNL     1      34.961 -24.738 -12.428  0.00  0.00    -0.239 N 
ATOM      6  C   UNL     1      36.786 -23.649 -13.655  0.00  0.00    +0.138 C 
ATOM      7  C   UNL     1      37.335 -23.228 -12.295  0.00  0.00    +0.237 C 
ATOM      8  C   UNL     1      35.343 -24.145 -13.622  0.00  0.00    +0.237 C 
ATOM      9  C   UNL     1      35.633 -24.677 -11.214  0.00  0.00    +0.312 C 
ATOM     10  H   UNL     1      37.259 -23.813 -10.355  0.00  0.00    +0.159 HD
ATOM     11  H   UNL     1      34.126 -25.258 -12.443  0.00  0.00    +0.159 HD
ENDROOT
BRANCH   6  12
ATOM     12  C   UNL     1      37.655 -24.819 -14.149  0.00  0.00    +0.016 C 
ATOM     13  C   UNL     1      36.789 -26.065 -14.313  0.00  0.00    +0.001 C 
BRANCH  12  14
ATOM     14  C   UNL     1      38.828 -25.037 -13.178  0.00  0.00    +0.001 C 
ATOM     15  C   UNL     1      40.111 -25.475 -13.870  0.00  0.00    +0.000 C 
ENDBRANCH  12  14
ENDBRANCH   6  12
BRANCH   6  16
ATOM     16  C   UNL     1      36.904 -22.478 -14.641  0.00  0.00    +0.017 C 
ATOM     17  C   UNL     1      37.656 -22.892 -15.886  0.00  0.00    +0.001 C 
ENDBRANCH   6  16
TORSDOF 3
ENDMDL
MODEL 3
REMARK VINA RESULT:      -6.7     17.444     19.056
REMARK  Name = 2479
REMARK  3 active torsions:
REMARK  status: ('A' for Active; 'I' for Inactive)
REMARK    1  A    between atoms: C_6  and  C_12
REMARK    2  A    between atoms: C_6  and  C_16
REMARK    3  A    between atoms: C_12  and  C_14
REMARK                            x       y       z     vdW  Elec       q    Type
REMARK                         _______ _______ _______ _____ _____    ______ ____
ROOT
ATOM      1  O   UNL     1      32.983  -7.472 -19.960  0.00  0.00    -0.274 OA
ATOM      2  O   UNL     1      31.096  -8.091 -24.215  0.00  0.00    -0.274 OA
ATOM      3  O   UNL     1      30.996 -11.450 -21.090  0.00  0.00    -0.252 OA
ATOM      4  N   UNL     1      32.077  -9.491 -20.561  0.00  0.00    -0.239 N 
ATOM      5  N   UNL     1      31.135  -9.801 -22.686  0.00  0.00    -0.239 N 
ATOM      6  C   UNL     1      32.594  -7.862 -22.321  0.00  0.00    +0.138 C 
ATOM      7  C   UNL     1      32.557  -8.220 -20.839  0.00  0.00    +0.237 C 
ATOM      8  C   UNL     1      31.527  -8.559 -23.161  0.00  0.00    +0.237 C 
ATOM      9  C   UNL     1      31.391 -10.332 -21.428  0.00  0.00    +0.312 C 
ATOM     10  H   UNL     1      32.241  -9.834 -19.652  0.00  0.00    +0.159 HD
ATOM     11  H   UNL     1      30.621 -10.367 -23.306  0.00  0.00    +0.159 HD
ENDROOT
BRANCH   6  12
ATOM     12  C   UNL     1      33.961  -8.316 -22.861  0.00  0.00    +0.016 C 
ATOM     13  C   UNL     1      34.610  -7.173 -23.638  0.00  0.00    +0.001 C 
BRANCH  12  14
ATOM     14  C   UNL     1      33.785  -9.584 -23.713  0.00  0.00    +0.001 C 
ATOM     15  C   UNL     1      34.966  -9.864 -24.631  0.00  0.00    +0.000 C 
ENDBRANCH  12  14
ENDBRANCH   6  12
BRANCH   6  16
ATOM     16  C   UNL     1      32.463  -6.341 -22.485  0.00  0.00    +0.017 C 
ATOM     17  C   UNL     1      31.142  -5.849 -21.939  0.00  0.00    +0.001 C 
ENDBRANCH   6  16
TORSDOF 3
ENDMDL
MODEL 4
REMARK VINA RESULT:      -6.6      1.508      3.450
REMARK  Name = 2479
REMARK  3 active torsions:
REMARK  status: ('A' for Active; 'I' for Inactive)
REMARK    1  A    between atoms: C_6  and  C_12
REMARK    2  A    between atoms: C_6  and  C_16
REMARK    3  A    between atoms: C_12  and  C_14
REMARK                            x       y       z     vdW  Elec       q    Type
REMARK                         _______ _______ _______ _____ _____    ______ ____
ROOT
ATOM      1  O   UNL     1      36.990 -26.763 -12.930  0.00  0.00    -0.274 OA
ATOM      2  O   UNL     1      37.260 -23.165 -15.935  0.00  0.00    -0.274 OA
ATOM      3  O   UNL     1      40.951 -25.725 -14.997  0.00  0.00    -0.252 OA
ATOM      4  N   UNL     1      38.990 -26.181 -13.889  0.00  0.00    -0.239 N 
ATOM      5  N   UNL     1      39.125 -24.384 -15.389  0.00  0.00    -0.239 N 
ATOM      6  C   UNL     1      37.136 -24.576 -13.966  0.00  0.00    +0.138 C 
ATOM      7  C   UNL     1      37.663 -25.949 -13.560  0.00  0.00    +0.237 C 
ATOM      8  C   UNL     1      37.811 -23.985 -15.200  0.00  0.00    +0.237 C 
ATOM      9  C   UNL     1      39.775 -25.439 -14.761  0.00  0.00    +0.312 C 
ATOM     10  H   UNL     1      39.421 -26.955 -13.457  0.00  0.00    +0.159 HD
ATOM     11  H   UNL     1      39.654 -23.864 -16.037  0.00  0.00    +0.159 HD
ENDROOT
BRANCH   6  12
ATOM     12  C   UNL     1      37.421 -23.620 -12.794  0.00  0.00    +0.016 C 
ATOM     13  C   UNL     1      38.504 -24.217 -11.899  0.00  0.00    +0.001 C 
BRANCH  12  14
ATOM     14  C   UNL     1      36.116 -23.333 -12.033  0.00  0.00    +0.001 C 
ATOM     15  C   UNL     1      36.003 -24.096 -10.720  0.00  0.00    +0.000 C 
ENDBRANCH  12  14
ENDBRANCH   6  12
BRANCH   6  16
ATOM     16  C   UNL     1      35.620 -24.656 -14.199  0.00  0.00    +0.017 C 
ATOM     17  C   UNL     1      35.301 -25.537 -15.386  0.00  0.00    +0.001 C 
ENDBRANCH   6  16
TORSDOF 3
ENDMDL
MODEL 5
REMARK VINA RESULT:      -6.5      1.948      4.214
REMARK  Name = 2479
REMARK  3 active torsions:
REMARK  status: ('A' for Active; 'I' for Inactive)
REMARK    1  A    between atoms: C_6  and  C_12
REMARK    2  A    between atoms: C_6  and  C_16
REMARK    3  A    between atoms: C_12  and  C_14
REMARK                            x       y       z     vdW  Elec       q    Type
REMARK                         _______ _______ _______ _____ _____    ______ ____
ROOT
ATOM      1  O   UNL     1      36.008 -25.434 -11.486  0.00  0.00    -0.274 OA
ATOM      2  O   UNL     1      37.686 -22.493 -14.739  0.00  0.00    -0.274 OA
ATOM      3  O   UNL     1      33.453 -24.228 -15.101  0.00  0.00    -0.252 OA
ATOM      4  N   UNL     1      34.770 -24.907 -13.344  0.00  0.00    -0.239 N 
ATOM      5  N   UNL     1      35.609 -23.439 -14.969  0.00  0.00    -0.239 N 
ATOM      6  C   UNL     1      37.174 -24.415 -13.351  0.00  0.00    +0.138 C 
ATOM      7  C   UNL     1      35.949 -24.946 -12.613  0.00  0.00    +0.237 C 
ATOM      8  C   UNL     1      36.865 -23.340 -14.390  0.00  0.00    +0.237 C 
ATOM      9  C   UNL     1      34.541 -24.207 -14.521  0.00  0.00    +0.312 C 
ATOM     10  H   UNL     1      34.016 -25.433 -12.989  0.00  0.00    +0.159 HD
ATOM     11  H   UNL     1      35.457 -22.909 -15.785  0.00  0.00    +0.159 HD
ENDROOT
BRANCH   6  12
ATOM     12  C   UNL     1      37.796 -25.604 -14.104  0.00  0.00    +0.016 C 
ATOM     13  C   UNL     1      37.074 -26.891 -13.713  0.00  0.00    +0.001 C 
BRANCH  12  14
ATOM     14  C   UNL     1      39.306 -25.664 -13.818  0.00  0.00    +0.001 C 
ATOM     15  C   UNL     1      40.164 -25.432 -15.053  0.00  0.00    +0.000 C 
ENDBRANCH  12  14
ENDBRANCH   6  12
BRANCH   6  16
ATOM     16  C   UNL     1      38.189 -23.870 -12.336  0.00  0.00    +0.017 C 
ATOM     17  C   UNL     1      37.618 -22.691 -11.580  0.00  0.00    +0.001 C 
ENDBRANCH   6  16
TORSDOF 3
ENDMDL
MODEL 6
REMARK VINA RESULT:      -6.3      1.898      3.657
REMARK  Name = 2479
REMARK  3 active torsions:
REMARK  status: ('A' for Active; 'I' for Inactive)
REMARK    1  A    between atoms: C_6  and  C_12
REMARK    2  A    between atoms: C_6  and  C_16
REMARK    3  A    between atoms: C_12  and  C_14
REMARK                            x       y       z     vdW  Elec       q    Type
REMARK                         _______ _______ _______ _____ _____    ______ ____
ROOT
ATOM      1  O   UNL     1      37.946 -22.552 -15.188  0.00  0.00    -0.274 OA
ATOM      2  O   UNL     1      37.482 -27.224 -15.123  0.00  0.00    -0.274 OA
ATOM      3  O   UNL     1      33.800 -24.495 -14.897  0.00  0.00    -0.252 OA
ATOM      4  N   UNL     1      35.883 -23.524 -14.944  0.00  0.00    -0.239 N 
ATOM      5  N   UNL     1      35.651 -25.858 -14.911  0.00  0.00    -0.239 N 
ATOM      6  C   UNL     1      37.883 -24.896 -14.573  0.00  0.00    +0.138 C 
ATOM      7  C   UNL     1      37.269 -23.553 -14.955  0.00  0.00    +0.237 C 
ATOM      8  C   UNL     1      37.015 -26.103 -14.920  0.00  0.00    +0.237 C 
ATOM      9  C   UNL     1      35.026 -24.617 -14.899  0.00  0.00    +0.312 C 
ATOM     10  H   UNL     1      35.462 -22.634 -14.970  0.00  0.00    +0.159 HD
ATOM     11  H   UNL     1      35.062 -26.647 -14.912  0.00  0.00    +0.159 HD
ENDROOT
BRANCH   6  12
ATOM     12  C   UNL     1      38.061 -24.892 -13.045  0.00  0.00    +0.016 C 
ATOM     13  C   UNL     1      37.306 -26.073 -12.439  0.00  0.00    +0.001 C 
BRANCH  12  14
ATOM     14  C   UNL     1      37.599 -23.541 -12.475  0.00  0.00    +0.001 C 
ATOM     15  C   UNL     1      36.589 -23.675 -11.344  0.00  0.00    +0.000 C 
ENDBRANCH  12  14
ENDBRANCH   6  12
BRANCH   6  16
ATOM     16  C   UNL     1      39.257 -25.043 -15.244  0.00  0.00    +0.017 C 
ATOM     17  C   UNL     1      40.313 -25.431 -14.234  0.00  0.00    +0.001 C 
ENDBRANCH   6  16
TORSDOF 3
ENDMDL
MODEL 7
REMARK VINA RESULT:      -6.2     17.809     19.312
REMARK  Name = 2479
REMARK  3 active torsions:
REMARK  status: ('A' for Active; 'I' for Inactive)
REMARK    1  A    between atoms: C_6  and  C_12
REMARK    2  A    between atoms: C_6  and  C_16
REMARK    3  A    between atoms: C_12  and  C_14
REMARK                            x       y       z     vdW  Elec       q    Type
REMARK                         _______ _______ _______ _____ _____    ______ ____
ROOT
ATOM      1  O   UNL     1      32.662  -9.604 -24.228  0.00  0.00    -0.274 OA
ATOM      2  O   UNL     1      33.074  -6.824 -20.466  0.00  0.00    -0.274 OA
ATOM      3  O   UNL     1      31.222 -11.007 -20.104  0.00  0.00    -0.252 OA
ATOM      4  N   UNL     1      31.854 -10.264 -22.186  0.00  0.00    -0.239 N 
ATOM      5  N   UNL     1      32.059  -8.875 -20.307  0.00  0.00    -0.239 N 
ATOM      6  C   UNL     1      32.386  -7.894 -22.532  0.00  0.00    +0.138 C 
ATOM      7  C   UNL     1      32.347  -9.319 -23.073  0.00  0.00    +0.237 C 
ATOM      8  C   UNL     1      32.572  -7.802 -21.020  0.00  0.00    +0.237 C 
ATOM      9  C   UNL     1      31.664 -10.105 -20.819  0.00  0.00    +0.312 C 
ATOM     10  H   UNL     1      31.612 -11.140 -22.566  0.00  0.00    +0.159 HD
ATOM     11  H   UNL     1      31.964  -8.753 -19.335  0.00  0.00    +0.159 HD
ENDROOT
BRANCH   6  12
ATOM     12  C   UNL     1      31.028  -7.250 -22.859  0.00  0.00    +0.016 C 
ATOM     13  C   UNL     1      30.942  -6.971 -24.358  0.00  0.00    +0.001 C 
BRANCH  12  14
ATOM     14  C   UNL     1      30.839  -5.981 -22.011  0.00  0.00    +0.001 C 
ATOM     15  C   UNL     1      31.044  -4.693 -22.796  0.00  0.00    +0.000 C 
ENDBRANCH  12  14
ENDBRANCH   6  12
BRANCH   6  16
ATOM     16  C   UNL     1      33.503  -7.108 -23.234  0.00  0.00    +0.017 C 
ATOM     17  C   UNL     1      34.808  -7.872 -23.197  0.00  0.00    +0.001 C 
ENDBRANCH   6  16
TORSDOF 3
ENDMDL
MODEL 8
REMARK VINA RESULT:      -6.1     18.736     20.399
REMARK  Name = 2479
REMARK  3 active torsions:
REMARK  status: ('A' for Active; 'I' for Inactive)
REMARK    1  A    between atoms: C_6  and  C_12
REMARK    2  A    between atoms: C_6  and  C_16
REMARK    3  A    between atoms: C_12  and  C_14
REMARK                            x       y       z     vdW  Elec       q    Type
REMARK                         _______ _______ _______ _____ _____    ______ ____
ROOT
ATOM      1  O   UNL     1      30.848  -8.271 -24.033  0.00  0.00    -0.274 OA
ATOM      2  O   UNL     1      32.913  -7.231 -19.946  0.00  0.00    -0.274 OA
ATOM      3  O   UNL     1      29.998  -4.288 -21.921  0.00  0.00    -0.252 OA
ATOM      4  N   UNL     1      30.501  -6.241 -23.025  0.00  0.00    -0.239 N 
ATOM      5  N   UNL     1      31.532  -5.721 -20.984  0.00  0.00    -0.239 N 
ATOM      6  C   UNL     1      32.393  -7.615 -22.284  0.00  0.00    +0.138 C 
ATOM      7  C   UNL     1      31.174  -7.443 -23.184  0.00  0.00    +0.237 C 
ATOM      8  C   UNL     1      32.300  -6.874 -20.953  0.00  0.00    +0.237 C 
ATOM      9  C   UNL     1      30.645  -5.335 -21.981  0.00  0.00    +0.312 C 
ATOM     10  H   UNL     1      29.852  -6.004 -23.727  0.00  0.00    +0.159 HD
ATOM     11  H   UNL     1      31.626  -5.109 -20.218  0.00  0.00    +0.159 HD
ENDROOT
BRANCH   6  12
ATOM     12  C   UNL     1      33.599  -7.031 -23.042  0.00  0.00    +0.016 C 
ATOM     13  C   UNL     1      33.138  -6.482 -24.390  0.00  0.00    +0.001 C 
BRANCH  12  14
ATOM     14  C   UNL     1      34.690  -8.106 -23.183  0.00  0.00    +0.001 C 
ATOM     15  C   UNL     1      34.822  -8.650 -24.598  0.00  0.00    +0.000 C 
ENDBRANCH  12  14
ENDBRANCH   6  12
BRANCH   6  16
ATOM     16  C   UNL     1      32.633  -9.109 -22.024  0.00  0.00    +0.017 C 
ATOM     17  C   UNL     1      31.558  -9.681 -21.126  0.00  0.00    +0.001 C 
ENDBRANCH   6  16
TORSDOF 3
ENDMDL
MODEL 9
REMARK VINA RESULT:      -6.0     18.107     19.524
REMARK  Name = 2479
REMARK  3 active torsions:
REMARK  status: ('A' for Active; 'I' for Inactive)
REMARK    1  A    between atoms: C_6  and  C_12
REMARK    2  A    between atoms: C_6  and  C_16
REMARK    3  A    between atoms: C_12  and  C_14
REMARK                            x       y       z     vdW  Elec       q    Type
REMARK                         _______ _______ _______ _____ _____    ______ ____
ROOT
ATOM      1  O   UNL     1      35.290  -7.358 -23.062  0.00  0.00    -0.274 OA
ATOM      2  O   UNL     1      31.046  -9.304 -22.559  0.00  0.00    -0.274 OA
ATOM      3  O   UNL     1      34.339 -11.434 -24.941  0.00  0.00    -0.252 OA
ATOM      4  N   UNL     1      34.781  -9.348 -24.082  0.00  0.00    -0.239 N 
ATOM      5  N   UNL     1      32.662 -10.320 -23.831  0.00  0.00    -0.239 N 
ATOM      6  C   UNL     1      32.947  -7.957 -23.234  0.00  0.00    +0.138 C 
ATOM      7  C   UNL     1      34.445  -8.180 -23.415  0.00  0.00    +0.237 C 
ATOM      8  C   UNL     1      32.129  -9.242 -23.141  0.00  0.00    +0.237 C 
ATOM      9  C   UNL     1      33.949 -10.430 -24.342  0.00  0.00    +0.312 C 
ATOM     10  H   UNL     1      35.709  -9.418 -24.406  0.00  0.00    +0.159 HD
ATOM     11  H   UNL     1      32.064 -11.089 -23.976  0.00  0.00    +0.159 HD
ENDROOT
BRANCH   6  12
ATOM     12  C   UNL     1      32.451  -7.195 -24.476  0.00  0.00    +0.016 C 
ATOM     13  C   UNL     1      33.522  -6.207 -24.931  0.00  0.00    +0.001 C 
BRANCH  12  14
ATOM     14  C   UNL     1      31.111  -6.510 -24.160  0.00  0.00    +0.001 C 
ATOM     15  C   UNL     1      31.042  -5.068 -24.641  0.00  0.00    +0.000 C 
ENDBRANCH  12  14
ENDBRANCH   6  12
BRANCH   6  16
ATOM     16  C   UNL     1      32.703  -7.102 -21.983  0.00  0.00    +0.017 C 
ATOM     17  C   UNL     1      32.954  -7.901 -20.723  0.00  0.00    +0.001 C 
ENDBRANCH   6  16
TORSDOF 3
ENDMDL
