MODEL 1
REMARK VINA RESULT:     -12.6      0.000      0.000
REMARK  Name = 448407
REMARK  4 active torsions:
REMARK  status: ('A' for Active; 'I' for Inactive)
REMARK    1  A    between atoms: C_1  and  N_8
REMARK    2  A    between atoms: C_2  and  C_23
REMARK    3  A    between atoms: N_22  and  C_25
REMARK    4  A    between atoms: C_25  and  C_28
REMARK                            x       y       z     vdW  Elec       q    Type
REMARK                         _______ _______ _______ _____ _____    ______ ____
ROOT
ATOM      1  C   UNL     1      34.325 -22.118 -18.497  0.00  0.00    +0.090 C 
ATOM      2  C   UNL     1      34.845 -20.671 -20.384  0.00  0.00    +0.055 C 
ATOM      3  C   UNL     1      33.927 -21.427 -19.656  0.00  0.00    +0.023 C 
ATOM      4  C   UNL     1      35.667 -22.027 -18.089  0.00  0.00    +0.018 C 
ATOM      5  C   UNL     1      36.173 -20.592 -19.965  0.00  0.00    +0.005 C 
ATOM      6  C   UNL     1      36.584 -21.270 -18.818  0.00  0.00    +0.002 C 
ENDROOT
BRANCH   1   8
ATOM      7  O   UNL     1      29.330 -22.384 -17.091  0.00  0.00    -0.207 OA
ATOM      8  N   UNL     1      33.410 -22.871 -17.770  0.00  0.00    -0.137 N 
ATOM      9  N   UNL     1      33.685 -23.500 -16.597  0.00  0.00    -0.215 N 
ATOM     10  N   UNL     1      32.059 -22.550 -17.872  0.00  0.00    -0.143 NA
ATOM     11  N   UNL     1      32.156 -24.092 -14.763  0.00  0.00    -0.309 NA
ATOM     12  N   UNL     1      29.852 -23.462 -15.107  0.00  0.00    -0.251 NA
ATOM     13  N   UNL     1      30.487 -24.541 -13.162  0.00  0.00    -0.283 N 
ATOM     14  C   UNL     1      32.532 -23.614 -15.892  0.00  0.00    +0.243 C 
ATOM     15  C   UNL     1      31.533 -22.985 -16.769  0.00  0.00    +0.241 C 
ATOM     16  C   UNL     1      30.131 -22.916 -16.337  0.00  0.00    +0.239 C 
ATOM     17  C   UNL     1      30.814 -24.006 -14.388  0.00  0.00    +0.208 C 
ATOM     18  H   UNL     1      34.570 -23.819 -16.308  0.00  0.00    +0.175 HD
ATOM     19  H   UNL     1      31.185 -24.954 -12.603  0.00  0.00    +0.156 HD
ATOM     20  H   UNL     1      29.556 -24.510 -12.844  0.00  0.00    +0.156 HD
ENDBRANCH   1   8
BRANCH   2  23
ATOM     21  O   UNL     1      33.208 -19.767 -21.799  0.00  0.00    -0.270 OA
ATOM     22  N   UNL     1      35.421 -19.500 -22.439  0.00  0.00    -0.297 N 
ATOM     23  C   UNL     1      34.417 -19.962 -21.580  0.00  0.00    +0.246 C 
ATOM     24  H   UNL     1      36.358 -19.690 -22.204  0.00  0.00    +0.150 HD
BRANCH  22  25
ATOM     25  C   UNL     1      35.156 -18.761 -23.652  0.00  0.00    +0.117 C 
BRANCH  25  28
ATOM     26 CL   UNL     1      33.258 -14.244 -25.393  0.00  0.00    -0.082 Cl
ATOM     27 CL   UNL     1      34.743 -14.858 -20.241  0.00  0.00    -0.082 Cl
ATOM     28  C   UNL     1      34.766 -17.339 -23.369  0.00  0.00    -0.001 C 
ATOM     29  C   UNL     1      34.919 -16.825 -22.087  0.00  0.00    +0.009 C 
ATOM     30  C   UNL     1      34.256 -16.550 -24.394  0.00  0.00    +0.009 C 
ATOM     31  C   UNL     1      33.892 -15.229 -24.132  0.00  0.00    +0.058 C 
ATOM     32  C   UNL     1      34.557 -15.504 -21.825  0.00  0.00    +0.058 C 
ATOM     33  C   UNL     1      34.043 -14.705 -22.847  0.00  0.00    +0.023 C 
ENDBRANCH  25  28
ENDBRANCH  22  25
ENDBRANCH   2  23
TORSDOF 4
ENDMDL
MODEL 2
REMARK VINA RESULT:     -12.5      4.191      9.724
REMARK  Name = 448407
REMARK  4 active torsions:
REMARK  status: ('A' for Active; 'I' for Inactive)
REMARK    1  A    between atoms: C_1  and  N_8
REMARK    2  A    between atoms: C_2  and  C_23
REMARK    3  A    between atoms: N_22  and  C_25
REMARK    4  A    between atoms: C_25  and  C_28
REMARK                            x       y       z     vdW  Elec       q    Type
REMARK                         _______ _______ _______ _____ _____    ______ ____
ROOT
ATOM      1  C   UNL     1      35.754 -18.753 -21.593  0.00  0.00    +0.090 C 
ATOM      2  C   UNL     1      34.844 -20.524 -20.193  0.00  0.00    +0.055 C 
ATOM      3  C   UNL     1      34.657 -19.481 -21.100  0.00  0.00    +0.023 C 
ATOM      4  C   UNL     1      37.043 -19.100 -21.151  0.00  0.00    +0.018 C 
ATOM      5  C   UNL     1      36.129 -20.855 -19.765  0.00  0.00    +0.005 C 
ATOM      6  C   UNL     1      37.229 -20.143 -20.244  0.00  0.00    +0.002 C 
ENDROOT
BRANCH   1   8
ATOM      7  O   UNL     1      33.544 -14.088 -22.185  0.00  0.00    -0.207 OA
ATOM      8  N   UNL     1      35.569 -17.714 -22.498  0.00  0.00    -0.137 N 
ATOM      9  N   UNL     1      35.383 -17.876 -23.834  0.00  0.00    -0.215 N 
ATOM     10  N   UNL     1      34.985 -16.535 -22.042  0.00  0.00    -0.143 NA
ATOM     11  N   UNL     1      34.208 -16.412 -25.423  0.00  0.00    -0.309 NA
ATOM     12  N   UNL     1      33.257 -14.413 -24.462  0.00  0.00    -0.251 NA
ATOM     13  N   UNL     1      33.031 -14.840 -26.724  0.00  0.00    -0.283 N 
ATOM     14  C   UNL     1      34.675 -16.818 -24.300  0.00  0.00    +0.243 C 
ATOM     15  C   UNL     1      34.456 -15.999 -23.098  0.00  0.00    +0.241 C 
ATOM     16  C   UNL     1      33.708 -14.740 -23.206  0.00  0.00    +0.239 C 
ATOM     17  C   UNL     1      33.501 -15.209 -25.484  0.00  0.00    +0.208 C 
ATOM     18  H   UNL     1      35.707 -18.634 -24.373  0.00  0.00    +0.175 HD
ATOM     19  H   UNL     1      33.198 -15.415 -27.506  0.00  0.00    +0.156 HD
ATOM     20  H   UNL     1      32.525 -14.001 -26.829  0.00  0.00    +0.156 HD
ENDBRANCH   1   8
BRANCH   2  23
ATOM     21  O   UNL     1      32.570 -21.095 -20.188  0.00  0.00    -0.270 OA
ATOM     22  N   UNL     1      33.936 -22.188 -18.666  0.00  0.00    -0.297 N 
ATOM     23  C   UNL     1      33.698 -21.268 -19.694  0.00  0.00    +0.246 C 
ATOM     24  H   UNL     1      34.854 -22.273 -18.321  0.00  0.00    +0.150 HD
BRANCH  22  25
ATOM     25  C   UNL     1      32.906 -23.016 -18.082  0.00  0.00    +0.117 C 
BRANCH  25  28
ATOM     26 CL   UNL     1      30.936 -23.863 -13.345  0.00  0.00    -0.082 Cl
ATOM     27 CL   UNL     1      36.265 -23.603 -14.156  0.00  0.00    -0.082 Cl
ATOM     28  C   UNL     1      33.141 -23.258 -16.619  0.00  0.00    -0.001 C 
ATOM     29  C   UNL     1      34.442 -23.312 -16.130  0.00  0.00    +0.009 C 
ATOM     30  C   UNL     1      32.056 -23.427 -15.767  0.00  0.00    +0.009 C 
ATOM     31  C   UNL     1      32.273 -23.652 -14.408  0.00  0.00    +0.058 C 
ATOM     32  C   UNL     1      34.660 -23.536 -14.771  0.00  0.00    +0.058 C 
ATOM     33  C   UNL     1      33.575 -23.707 -13.909  0.00  0.00    +0.023 C 
ENDBRANCH  25  28
ENDBRANCH  22  25
ENDBRANCH   2  23
TORSDOF 4
ENDMDL
MODEL 3
REMARK VINA RESULT:     -12.5      3.366      6.023
REMARK  Name = 448407
REMARK  4 active torsions:
REMARK  status: ('A' for Active; 'I' for Inactive)
REMARK    1  A    between atoms: C_1  and  N_8
REMARK    2  A    between atoms: C_2  and  C_23
REMARK    3  A    between atoms: N_22  and  C_25
REMARK    4  A    between atoms: C_25  and  C_28
REMARK                            x       y       z     vdW  Elec       q    Type
REMARK                         _______ _______ _______ _____ _____    ______ ____
ROOT
ATOM      1  C   UNL     1      35.097 -18.284 -22.248  0.00  0.00    +0.090 C 
ATOM      2  C   UNL     1      34.194 -16.027 -22.369  0.00  0.00    +0.055 C 
ATOM      3  C   UNL     1      34.541 -17.153 -21.624  0.00  0.00    +0.023 C 
ATOM      4  C   UNL     1      35.296 -18.253 -23.639  0.00  0.00    +0.018 C 
ATOM      5  C   UNL     1      34.398 -16.012 -23.748  0.00  0.00    +0.005 C 
ATOM      6  C   UNL     1      34.949 -17.126 -24.383  0.00  0.00    +0.002 C 
ENDROOT
BRANCH   1   8
ATOM      7  O   UNL     1      33.131 -22.316 -19.626  0.00  0.00    -0.207 OA
ATOM      8  N   UNL     1      35.444 -19.407 -21.505  0.00  0.00    -0.137 N 
ATOM      9  N   UNL     1      36.496 -19.471 -20.647  0.00  0.00    -0.215 N 
ATOM     10  N   UNL     1      34.439 -20.300 -21.146  0.00  0.00    -0.143 NA
ATOM     11  N   UNL     1      36.792 -20.900 -18.666  0.00  0.00    -0.309 NA
ATOM     12  N   UNL     1      34.952 -22.388 -18.192  0.00  0.00    -0.251 NA
ATOM     13  N   UNL     1      36.820 -22.373 -16.829  0.00  0.00    -0.283 N 
ATOM     14  C   UNL     1      36.221 -20.403 -19.700  0.00  0.00    +0.243 C 
ATOM     15  C   UNL     1      34.887 -20.893 -20.084  0.00  0.00    +0.241 C 
ATOM     16  C   UNL     1      34.240 -21.935 -19.277  0.00  0.00    +0.239 C 
ATOM     17  C   UNL     1      36.143 -21.889 -17.925  0.00  0.00    +0.208 C 
ATOM     18  H   UNL     1      37.319 -18.933 -20.702  0.00  0.00    +0.175 HD
ATOM     19  H   UNL     1      37.711 -22.020 -16.604  0.00  0.00    +0.156 HD
ATOM     20  H   UNL     1      36.412 -23.072 -16.268  0.00  0.00    +0.156 HD
ENDBRANCH   1   8
BRANCH   2  23
ATOM     21  O   UNL     1      34.036 -14.507 -20.591  0.00  0.00    -0.270 OA
ATOM     22  N   UNL     1      32.615 -14.174 -22.394  0.00  0.00    -0.297 N 
ATOM     23  C   UNL     1      33.621 -14.865 -21.707  0.00  0.00    +0.246 C 
ATOM     24  H   UNL     1      32.335 -14.514 -23.273  0.00  0.00    +0.150 HD
BRANCH  22  25
ATOM     25  C   UNL     1      31.966 -12.991 -21.878  0.00  0.00    +0.117 C 
BRANCH  25  28
ATOM     26 CL   UNL     1      31.791  -7.812 -22.315  0.00  0.00    -0.082 Cl
ATOM     27 CL   UNL     1      34.957 -10.787 -25.516  0.00  0.00    -0.082 Cl
ATOM     28  C   UNL     1      32.442 -11.744 -22.567  0.00  0.00    -0.001 C 
ATOM     29  C   UNL     1      33.369 -11.839 -23.598  0.00  0.00    +0.009 C 
ATOM     30  C   UNL     1      31.950 -10.507 -22.166  0.00  0.00    +0.009 C 
ATOM     31  C   UNL     1      32.392  -9.348 -22.804  0.00  0.00    +0.058 C 
ATOM     32  C   UNL     1      33.811 -10.681 -24.238  0.00  0.00    +0.058 C 
ATOM     33  C   UNL     1      33.323  -9.435 -23.841  0.00  0.00    +0.023 C 
ENDBRANCH  25  28
ENDBRANCH  22  25
ENDBRANCH   2  23
TORSDOF 4
ENDMDL
MODEL 4
REMARK VINA RESULT:     -12.5      3.336      5.900
REMARK  Name = 448407
REMARK  4 active torsions:
REMARK  status: ('A' for Active; 'I' for Inactive)
REMARK    1  A    between atoms: C_1  and  N_8
REMARK    2  A    between atoms: C_2  and  C_23
REMARK    3  A    between atoms: N_22  and  C_25
REMARK    4  A    between atoms: C_25  and  C_28
REMARK                            x       y       z     vdW  Elec       q    Type
REMARK                         _______ _______ _______ _____ _____    ______ ____
ROOT
ATOM      1  C   UNL     1      35.097 -18.328 -22.203  0.00  0.00    +0.090 C 
ATOM      2  C   UNL     1      34.213 -16.063 -22.325  0.00  0.00    +0.055 C 
ATOM      3  C   UNL     1      34.552 -17.192 -21.580  0.00  0.00    +0.023 C 
ATOM      4  C   UNL     1      35.294 -18.300 -23.595  0.00  0.00    +0.018 C 
ATOM      5  C   UNL     1      34.415 -16.052 -23.705  0.00  0.00    +0.005 C 
ATOM      6  C   UNL     1      34.955 -17.171 -24.340  0.00  0.00    +0.002 C 
ENDROOT
BRANCH   1   8
ATOM      7  O   UNL     1      33.102 -22.345 -19.581  0.00  0.00    -0.207 OA
ATOM      8  N   UNL     1      35.437 -19.453 -21.460  0.00  0.00    -0.137 N 
ATOM      9  N   UNL     1      36.488 -19.525 -20.601  0.00  0.00    -0.215 N 
ATOM     10  N   UNL     1      34.424 -20.339 -21.101  0.00  0.00    -0.143 NA
ATOM     11  N   UNL     1      36.772 -20.954 -18.620  0.00  0.00    -0.309 NA
ATOM     12  N   UNL     1      34.922 -22.429 -18.146  0.00  0.00    -0.251 NA
ATOM     13  N   UNL     1      36.789 -22.427 -16.782  0.00  0.00    -0.283 N 
ATOM     14  C   UNL     1      36.205 -20.454 -19.655  0.00  0.00    +0.243 C 
ATOM     15  C   UNL     1      34.869 -20.935 -20.038  0.00  0.00    +0.241 C 
ATOM     16  C   UNL     1      34.213 -21.972 -19.232  0.00  0.00    +0.239 C 
ATOM     17  C   UNL     1      36.116 -21.939 -17.878  0.00  0.00    +0.208 C 
ATOM     18  H   UNL     1      37.314 -18.992 -20.656  0.00  0.00    +0.175 HD
ATOM     19  H   UNL     1      37.683 -22.080 -16.557  0.00  0.00    +0.156 HD
ATOM     20  H   UNL     1      36.376 -23.123 -16.221  0.00  0.00    +0.156 HD
ENDBRANCH   1   8
BRANCH   2  23
ATOM     21  O   UNL     1      34.092 -14.521 -20.563  0.00  0.00    -0.270 OA
ATOM     22  N   UNL     1      32.623 -14.220 -22.333  0.00  0.00    -0.297 N 
ATOM     23  C   UNL     1      33.651 -14.896 -21.664  0.00  0.00    +0.246 C 
ATOM     24  H   UNL     1      32.322 -14.572 -23.200  0.00  0.00    +0.150 HD
BRANCH  22  25
ATOM     25  C   UNL     1      31.981 -13.033 -21.816  0.00  0.00    +0.117 C 
BRANCH  25  28
ATOM     26 CL   UNL     1      34.892 -10.858 -25.535  0.00  0.00    -0.082 Cl
ATOM     27 CL   UNL     1      31.538  -7.900 -22.516  0.00  0.00    -0.082 Cl
ATOM     28  C   UNL     1      32.398 -11.798 -22.562  0.00  0.00    -0.001 C 
ATOM     29  C   UNL     1      31.838 -10.571 -22.228  0.00  0.00    +0.009 C 
ATOM     30  C   UNL     1      33.340 -11.896 -23.579  0.00  0.00    +0.009 C 
ATOM     31  C   UNL     1      33.727 -10.749 -24.273  0.00  0.00    +0.058 C 
ATOM     32  C   UNL     1      32.225  -9.424 -22.921  0.00  0.00    +0.058 C 
ATOM     33  C   UNL     1      33.170  -9.513 -23.945  0.00  0.00    +0.023 C 
ENDBRANCH  25  28
ENDBRANCH  22  25
ENDBRANCH   2  23
TORSDOF 4
ENDMDL
MODEL 5
REMARK VINA RESULT:     -12.4      3.007      4.073
REMARK  Name = 448407
REMARK  4 active torsions:
REMARK  status: ('A' for Active; 'I' for Inactive)
REMARK    1  A    between atoms: C_1  and  N_8
REMARK    2  A    between atoms: C_2  and  C_23
REMARK    3  A    between atoms: N_22  and  C_25
REMARK    4  A    between atoms: C_25  and  C_28
REMARK                            x       y       z     vdW  Elec       q    Type
REMARK                         _______ _______ _______ _____ _____    ______ ____
ROOT
ATOM      1  C   UNL     1      34.975 -22.535 -17.661  0.00  0.00    +0.090 C 
ATOM      2  C   UNL     1      35.190 -21.024 -19.558  0.00  0.00    +0.055 C 
ATOM      3  C   UNL     1      35.750 -21.675 -18.459  0.00  0.00    +0.023 C 
ATOM      4  C   UNL     1      33.623 -22.725 -17.998  0.00  0.00    +0.018 C 
ATOM      5  C   UNL     1      33.848 -21.224 -19.878  0.00  0.00    +0.005 C 
ATOM      6  C   UNL     1      33.064 -22.074 -19.097  0.00  0.00    +0.002 C 
ENDROOT
BRANCH   1   8
ATOM      7  O   UNL     1      33.951 -24.228 -12.857  0.00  0.00    -0.207 OA
ATOM      8  N   UNL     1      35.532 -23.184 -16.566  0.00  0.00    -0.137 N 
ATOM      9  N   UNL     1      36.816 -23.030 -16.146  0.00  0.00    -0.215 N 
ATOM     10  N   UNL     1      34.694 -23.553 -15.517  0.00  0.00    -0.143 NA
ATOM     11  N   UNL     1      37.749 -23.312 -13.888  0.00  0.00    -0.309 NA
ATOM     12  N   UNL     1      36.155 -23.952 -12.193  0.00  0.00    -0.251 NA
ATOM     13  N   UNL     1      38.381 -23.648 -11.643  0.00  0.00    -0.283 N 
ATOM     14  C   UNL     1      36.865 -23.289 -14.815  0.00  0.00    +0.243 C 
ATOM     15  C   UNL     1      35.471 -23.617 -14.481  0.00  0.00    +0.241 C 
ATOM     16  C   UNL     1      35.120 -23.963 -13.097  0.00  0.00    +0.239 C 
ATOM     17  C   UNL     1      37.376 -23.644 -12.584  0.00  0.00    +0.208 C 
ATOM     18  H   UNL     1      37.580 -22.772 -16.710  0.00  0.00    +0.175 HD
ATOM     19  H   UNL     1      39.303 -23.422 -11.906  0.00  0.00    +0.156 HD
ATOM     20  H   UNL     1      38.178 -23.875 -10.707  0.00  0.00    +0.156 HD
ENDBRANCH   1   8
BRANCH   2  23
ATOM     21  O   UNL     1      37.249 -20.190 -20.310  0.00  0.00    -0.270 OA
ATOM     22  N   UNL     1      35.333 -19.263 -21.232  0.00  0.00    -0.297 N 
ATOM     23  C   UNL     1      36.007 -20.140 -20.373  0.00  0.00    +0.246 C 
ATOM     24  H   UNL     1      34.349 -19.275 -21.230  0.00  0.00    +0.150 HD
BRANCH  22  25
ATOM     25  C   UNL     1      36.005 -18.340 -22.118  0.00  0.00    +0.117 C 
BRANCH  25  28
ATOM     26 CL   UNL     1      33.111 -14.278 -20.646  0.00  0.00    -0.082 Cl
ATOM     27 CL   UNL     1      33.681 -15.569 -25.855  0.00  0.00    -0.082 Cl
ATOM     28  C   UNL     1      35.123 -17.186 -22.501  0.00  0.00    -0.001 C 
ATOM     29  C   UNL     1      34.847 -16.946 -23.842  0.00  0.00    +0.009 C 
ATOM     30  C   UNL     1      34.592 -16.369 -21.510  0.00  0.00    +0.009 C 
ATOM     31  C   UNL     1      33.774 -15.297 -21.865  0.00  0.00    +0.058 C 
ATOM     32  C   UNL     1      34.029 -15.875 -24.198  0.00  0.00    +0.058 C 
ATOM     33  C   UNL     1      33.492 -15.049 -23.209  0.00  0.00    +0.023 C 
ENDBRANCH  25  28
ENDBRANCH  22  25
ENDBRANCH   2  23
TORSDOF 4
ENDMDL
MODEL 6
REMARK VINA RESULT:     -12.2      2.620      3.485
REMARK  Name = 448407
REMARK  4 active torsions:
REMARK  status: ('A' for Active; 'I' for Inactive)
REMARK    1  A    between atoms: C_1  and  N_8
REMARK    2  A    between atoms: C_2  and  C_23
REMARK    3  A    between atoms: N_22  and  C_25
REMARK    4  A    between atoms: C_25  and  C_28
REMARK                            x       y       z     vdW  Elec       q    Type
REMARK                         _______ _______ _______ _____ _____    ______ ____
ROOT
ATOM      1  C   UNL     1      34.754 -21.860 -18.654  0.00  0.00    +0.090 C 
ATOM      2  C   UNL     1      34.797 -20.254 -20.483  0.00  0.00    +0.055 C 
ATOM      3  C   UNL     1      35.456 -20.965 -19.481  0.00  0.00    +0.023 C 
ATOM      4  C   UNL     1      33.373 -22.021 -18.861  0.00  0.00    +0.018 C 
ATOM      5  C   UNL     1      33.426 -20.426 -20.675  0.00  0.00    +0.005 C 
ATOM      6  C   UNL     1      32.714 -21.310 -19.863  0.00  0.00    +0.002 C 
ENDROOT
BRANCH   1   8
ATOM      7  O   UNL     1      33.986 -24.802 -14.442  0.00  0.00    -0.207 OA
ATOM      8  N   UNL     1      35.411 -22.570 -17.656  0.00  0.00    -0.137 N 
ATOM      9  N   UNL     1      36.574 -22.183 -17.068  0.00  0.00    -0.215 N 
ATOM     10  N   UNL     1      34.653 -23.373 -16.807  0.00  0.00    -0.143 NA
ATOM     11  N   UNL     1      37.423 -22.712 -14.821  0.00  0.00    -0.309 NA
ATOM     12  N   UNL     1      35.983 -24.115 -13.486  0.00  0.00    -0.251 NA
ATOM     13  N   UNL     1      37.999 -23.369 -12.633  0.00  0.00    -0.283 N 
ATOM     14  C   UNL     1      36.621 -22.713 -15.821  0.00  0.00    +0.243 C 
ATOM     15  C   UNL     1      35.359 -23.463 -15.722  0.00  0.00    +0.241 C 
ATOM     16  C   UNL     1      35.044 -24.192 -14.487  0.00  0.00    +0.239 C 
ATOM     17  C   UNL     1      37.087 -23.417 -13.663  0.00  0.00    +0.208 C 
ATOM     18  H   UNL     1      37.264 -21.613 -17.477  0.00  0.00    +0.175 HD
ATOM     19  H   UNL     1      38.833 -22.855 -12.737  0.00  0.00    +0.156 HD
ATOM     20  H   UNL     1      37.817 -23.846 -11.792  0.00  0.00    +0.156 HD
ENDBRANCH   1   8
BRANCH   2  23
ATOM     21  O   UNL     1      36.687 -18.974 -21.017  0.00  0.00    -0.270 OA
ATOM     22  N   UNL     1      34.910 -18.905 -22.506  0.00  0.00    -0.297 N 
ATOM     23  C   UNL     1      35.539 -19.334 -21.331  0.00  0.00    +0.246 C 
ATOM     24  H   UNL     1      34.000 -19.229 -22.692  0.00  0.00    +0.150 HD
BRANCH  22  25
ATOM     25  C   UNL     1      35.526 -18.011 -23.459  0.00  0.00    +0.117 C 
BRANCH  25  28
ATOM     26 CL   UNL     1      33.180 -14.693 -26.704  0.00  0.00    -0.082 Cl
ATOM     27 CL   UNL     1      33.120 -13.904 -21.366  0.00  0.00    -0.082 Cl
ATOM     28  C   UNL     1      34.724 -16.756 -23.653  0.00  0.00    -0.001 C 
ATOM     29  C   UNL     1      34.342 -16.006 -22.548  0.00  0.00    +0.009 C 
ATOM     30  C   UNL     1      34.370 -16.359 -24.938  0.00  0.00    +0.009 C 
ATOM     31  C   UNL     1      33.624 -15.194 -25.119  0.00  0.00    +0.058 C 
ATOM     32  C   UNL     1      33.597 -14.841 -22.728  0.00  0.00    +0.058 C 
ATOM     33  C   UNL     1      33.237 -14.435 -24.014  0.00  0.00    +0.023 C 
ENDBRANCH  25  28
ENDBRANCH  22  25
ENDBRANCH   2  23
TORSDOF 4
ENDMDL
MODEL 7
REMARK VINA RESULT:     -12.2      4.143      5.834
REMARK  Name = 448407
REMARK  4 active torsions:
REMARK  status: ('A' for Active; 'I' for Inactive)
REMARK    1  A    between atoms: C_1  and  N_8
REMARK    2  A    between atoms: C_2  and  C_23
REMARK    3  A    between atoms: N_22  and  C_25
REMARK    4  A    between atoms: C_25  and  C_28
REMARK                            x       y       z     vdW  Elec       q    Type
REMARK                         _______ _______ _______ _____ _____    ______ ____
ROOT
ATOM      1  C   UNL     1      34.216 -23.975 -15.398  0.00  0.00    +0.090 C 
ATOM      2  C   UNL     1      33.229 -23.008 -17.403  0.00  0.00    +0.055 C 
ATOM      3  C   UNL     1      34.304 -23.616 -16.755  0.00  0.00    +0.023 C 
ATOM      4  C   UNL     1      33.019 -23.708 -14.710  0.00  0.00    +0.018 C 
ATOM      5  C   UNL     1      32.049 -22.751 -16.705  0.00  0.00    +0.005 C 
ATOM      6  C   UNL     1      31.945 -23.101 -15.359  0.00  0.00    +0.002 C 
ENDROOT
BRANCH   1   8
ATOM      7  O   UNL     1      38.209 -23.066 -12.201  0.00  0.00    -0.207 OA
ATOM      8  N   UNL     1      35.287 -24.582 -14.752  0.00  0.00    -0.137 N 
ATOM      9  N   UNL     1      36.049 -25.574 -15.283  0.00  0.00    -0.215 N 
ATOM     10  N   UNL     1      35.998 -23.842 -13.811  0.00  0.00    -0.143 NA
ATOM     11  N   UNL     1      38.386 -26.161 -14.792  0.00  0.00    -0.309 NA
ATOM     12  N   UNL     1      39.465 -24.776 -13.137  0.00  0.00    -0.251 NA
ATOM     13  N   UNL     1      40.623 -26.510 -14.138  0.00  0.00    -0.283 N 
ATOM     14  C   UNL     1      37.279 -25.521 -14.714  0.00  0.00    +0.243 C 
ATOM     15  C   UNL     1      37.174 -24.389 -13.781  0.00  0.00    +0.241 C 
ATOM     16  C   UNL     1      38.334 -24.014 -12.963  0.00  0.00    +0.239 C 
ATOM     17  C   UNL     1      39.468 -25.774 -13.998  0.00  0.00    +0.208 C 
ATOM     18  H   UNL     1      35.758 -26.221 -15.966  0.00  0.00    +0.175 HD
ATOM     19  H   UNL     1      40.654 -27.261 -14.774  0.00  0.00    +0.156 HD
ATOM     20  H   UNL     1      41.418 -26.283 -13.604  0.00  0.00    +0.156 HD
ENDBRANCH   1   8
BRANCH   2  23
ATOM     21  O   UNL     1      33.946 -23.380 -19.604  0.00  0.00    -0.270 OA
ATOM     22  N   UNL     1      32.711 -21.458 -19.206  0.00  0.00    -0.297 N 
ATOM     23  C   UNL     1      33.337 -22.644 -18.807  0.00  0.00    +0.246 C 
ATOM     24  H   UNL     1      32.247 -20.924 -18.522  0.00  0.00    +0.150 HD
BRANCH  22  25
ATOM     25  C   UNL     1      32.710 -20.975 -20.568  0.00  0.00    +0.117 C 
BRANCH  25  28
ATOM     26 CL   UNL     1      33.468 -15.881 -21.282  0.00  0.00    -0.082 Cl
ATOM     27 CL   UNL     1      37.620 -19.316 -20.994  0.00  0.00    -0.082 Cl
ATOM     28  C   UNL     1      33.668 -19.835 -20.761  0.00  0.00    -0.001 C 
ATOM     29  C   UNL     1      35.036 -20.081 -20.784  0.00  0.00    +0.009 C 
ATOM     30  C   UNL     1      33.176 -18.544 -20.914  0.00  0.00    +0.009 C 
ATOM     31  C   UNL     1      34.065 -17.483 -21.092  0.00  0.00    +0.058 C 
ATOM     32  C   UNL     1      35.925 -19.022 -20.963  0.00  0.00    +0.058 C 
ATOM     33  C   UNL     1      35.440 -17.722 -21.117  0.00  0.00    +0.023 C 
ENDBRANCH  25  28
ENDBRANCH  22  25
ENDBRANCH   2  23
TORSDOF 4
ENDMDL
MODEL 8
REMARK VINA RESULT:     -12.0      4.933     10.057
REMARK  Name = 448407
REMARK  4 active torsions:
REMARK  status: ('A' for Active; 'I' for Inactive)
REMARK    1  A    between atoms: C_1  and  N_8
REMARK    2  A    between atoms: C_2  and  C_23
REMARK    3  A    between atoms: N_22  and  C_25
REMARK    4  A    between atoms: C_25  and  C_28
REMARK                            x       y       z     vdW  Elec       q    Type
REMARK                         _______ _______ _______ _____ _____    ______ ____
ROOT
ATOM      1  C   UNL     1      34.379 -19.043 -21.566  0.00  0.00    +0.090 C 
ATOM      2  C   UNL     1      35.229 -20.678 -19.976  0.00  0.00    +0.055 C 
ATOM      3  C   UNL     1      35.454 -19.660 -20.902  0.00  0.00    +0.023 C 
ATOM      4  C   UNL     1      33.073 -19.475 -21.275  0.00  0.00    +0.018 C 
ATOM      5  C   UNL     1      33.928 -21.094 -19.698  0.00  0.00    +0.005 C 
ATOM      6  C   UNL     1      32.850 -20.492 -20.348  0.00  0.00    +0.002 C 
ENDROOT
BRANCH   1   8
ATOM      7  O   UNL     1      33.922 -13.922 -22.316  0.00  0.00    -0.207 OA
ATOM      8  N   UNL     1      34.602 -18.028 -22.489  0.00  0.00    -0.137 N 
ATOM      9  N   UNL     1      34.436 -18.152 -23.832  0.00  0.00    -0.215 N 
ATOM     10  N   UNL     1      34.434 -16.708 -22.075  0.00  0.00    -0.143 NA
ATOM     11  N   UNL     1      33.908 -16.418 -25.494  0.00  0.00    -0.309 NA
ATOM     12  N   UNL     1      33.651 -14.190 -24.603  0.00  0.00    -0.251 NA
ATOM     13  N   UNL     1      33.400 -14.574 -26.870  0.00  0.00    -0.283 N 
ATOM     14  C   UNL     1      34.155 -16.928 -24.345  0.00  0.00    +0.243 C 
ATOM     15  C   UNL     1      34.170 -16.053 -23.163  0.00  0.00    +0.241 C 
ATOM     16  C   UNL     1      33.903 -14.617 -23.321  0.00  0.00    +0.239 C 
ATOM     17  C   UNL     1      33.657 -15.048 -25.604  0.00  0.00    +0.208 C 
ATOM     18  H   UNL     1      34.507 -18.989 -24.346  0.00  0.00    +0.175 HD
ATOM     19  H   UNL     1      33.398 -15.192 -27.637  0.00  0.00    +0.156 HD
ATOM     20  H   UNL     1      33.217 -13.616 -27.009  0.00  0.00    +0.156 HD
ENDBRANCH   1   8
BRANCH   2  23
ATOM     21  O   UNL     1      37.340 -21.699 -19.943  0.00  0.00    -0.270 OA
ATOM     22  N   UNL     1      36.272 -21.415 -17.903  0.00  0.00    -0.297 N 
ATOM     23  C   UNL     1      36.353 -21.304 -19.297  0.00  0.00    +0.246 C 
ATOM     24  H   UNL     1      35.461 -21.082 -17.457  0.00  0.00    +0.150 HD
BRANCH  22  25
ATOM     25  C   UNL     1      37.315 -21.991 -17.087  0.00  0.00    +0.117 C 
BRANCH  25  28
ATOM     26 CL   UNL     1      38.184 -25.453 -13.305  0.00  0.00    -0.082 Cl
ATOM     27 CL   UNL     1      33.175 -23.921 -14.602  0.00  0.00    -0.082 Cl
ATOM     28  C   UNL     1      36.762 -22.902 -16.029  0.00  0.00    -0.001 C 
ATOM     29  C   UNL     1      35.388 -22.975 -15.834  0.00  0.00    +0.009 C 
ATOM     30  C   UNL     1      37.631 -23.662 -15.254  0.00  0.00    +0.009 C 
ATOM     31  C   UNL     1      37.118 -24.508 -14.270  0.00  0.00    +0.058 C 
ATOM     32  C   UNL     1      34.874 -23.821 -14.851  0.00  0.00    +0.058 C 
ATOM     33  C   UNL     1      35.739 -24.588 -14.068  0.00  0.00    +0.023 C 
ENDBRANCH  25  28
ENDBRANCH  22  25
ENDBRANCH   2  23
TORSDOF 4
ENDMDL
MODEL 9
REMARK VINA RESULT:     -11.9      4.313      9.857
REMARK  Name = 448407
REMARK  4 active torsions:
REMARK  status: ('A' for Active; 'I' for Inactive)
REMARK    1  A    between atoms: C_1  and  N_8
REMARK    2  A    between atoms: C_2  and  C_23
REMARK    3  A    between atoms: N_22  and  C_25
REMARK    4  A    between atoms: C_25  and  C_28
REMARK                            x       y       z     vdW  Elec       q    Type
REMARK                         _______ _______ _______ _____ _____    ______ ____
ROOT
ATOM      1  C   UNL     1      34.796 -18.379 -21.358  0.00  0.00    +0.090 C 
ATOM      2  C   UNL     1      34.595 -20.526 -20.229  0.00  0.00    +0.055 C 
ATOM      3  C   UNL     1      34.005 -19.418 -20.837  0.00  0.00    +0.023 C 
ATOM      4  C   UNL     1      36.194 -18.482 -21.253  0.00  0.00    +0.018 C 
ATOM      5  C   UNL     1      35.984 -20.613 -20.134  0.00  0.00    +0.005 C 
ATOM      6  C   UNL     1      36.783 -19.590 -20.646  0.00  0.00    +0.002 C 
ENDROOT
BRANCH   1   8
ATOM      7  O   UNL     1      33.888 -16.149 -25.962  0.00  0.00    -0.207 OA
ATOM      8  N   UNL     1      34.208 -17.275 -21.965  0.00  0.00    -0.137 N 
ATOM      9  N   UNL     1      34.214 -16.016 -21.453  0.00  0.00    -0.215 N 
ATOM     10  N   UNL     1      34.106 -17.259 -23.354  0.00  0.00    -0.143 NA
ATOM     11  N   UNL     1      34.072 -13.864 -22.635  0.00  0.00    -0.309 NA
ATOM     12  N   UNL     1      33.900 -14.023 -25.037  0.00  0.00    -0.251 NA
ATOM     13  N   UNL     1      33.923 -11.953 -24.005  0.00  0.00    -0.283 N 
ATOM     14  C   UNL     1      34.117 -15.135 -22.480  0.00  0.00    +0.243 C 
ATOM     15  C   UNL     1      34.051 -16.002 -23.667  0.00  0.00    +0.241 C 
ATOM     16  C   UNL     1      33.938 -15.396 -25.000  0.00  0.00    +0.239 C 
ATOM     17  C   UNL     1      33.965 -13.326 -23.920  0.00  0.00    +0.208 C 
ATOM     18  H   UNL     1      34.278 -15.782 -20.499  0.00  0.00    +0.175 HD
ATOM     19  H   UNL     1      33.969 -11.406 -23.188  0.00  0.00    +0.156 HD
ATOM     20  H   UNL     1      33.847 -11.517 -24.885  0.00  0.00    +0.156 HD
ENDBRANCH   1   8
BRANCH   2  23
ATOM     21  O   UNL     1      32.627 -21.800 -20.162  0.00  0.00    -0.270 OA
ATOM     22  N   UNL     1      34.307 -22.372 -18.669  0.00  0.00    -0.297 N 
ATOM     23  C   UNL     1      33.762 -21.593 -19.697  0.00  0.00    +0.246 C 
ATOM     24  H   UNL     1      35.211 -22.153 -18.349  0.00  0.00    +0.150 HD
BRANCH  22  25
ATOM     25  C   UNL     1      33.614 -23.481 -18.055  0.00  0.00    +0.117 C 
BRANCH  25  28
ATOM     26 CL   UNL     1      36.659 -23.410 -13.840  0.00  0.00    -0.082 Cl
ATOM     27 CL   UNL     1      31.280 -23.417 -13.408  0.00  0.00    -0.082 Cl
ATOM     28  C   UNL     1      33.733 -23.458 -16.558  0.00  0.00    -0.001 C 
ATOM     29  C   UNL     1      32.584 -23.449 -15.776  0.00  0.00    +0.009 C 
ATOM     30  C   UNL     1      34.993 -23.447 -15.969  0.00  0.00    +0.009 C 
ATOM     31  C   UNL     1      35.105 -23.425 -14.579  0.00  0.00    +0.058 C 
ATOM     32  C   UNL     1      32.696 -23.428 -14.386  0.00  0.00    +0.058 C 
ATOM     33  C   UNL     1      33.956 -23.416 -13.787  0.00  0.00    +0.023 C 
ENDBRANCH  25  28
ENDBRANCH  22  25
ENDBRANCH   2  23
TORSDOF 4
ENDMDL
