MODEL 1
REMARK VINA RESULT:      -8.7      0.000      0.000
REMARK  Name = 221493
REMARK  8 active torsions:
REMARK  status: ('A' for Active; 'I' for Inactive)
REMARK    1  A    between atoms: C_6  and  C_26
REMARK    2  A    between atoms: C_7  and  O_20
REMARK    3  A    between atoms: C_11  and  O_22
REMARK    4  A    between atoms: C_19  and  O_24
REMARK    5  A    between atoms: C_26  and  C_28
REMARK    6  A    between atoms: C_28  and  C_29
REMARK    7  A    between atoms: C_29  and  C_31
REMARK    8  A    between atoms: C_31  and  O_32
REMARK                            x       y       z     vdW  Elec       q    Type
REMARK                         _______ _______ _______ _____ _____    ______ ____
ROOT
ATOM      1  C   UNL     1      32.143 -23.520 -14.545  0.00  0.00    +0.025 C 
ATOM      2  C   UNL     1      33.293 -23.384 -15.571  0.00  0.00    +0.005 C 
ATOM      3  C   UNL     1      34.651 -23.084 -14.919  0.00  0.00    +0.027 C 
ATOM      4  C   UNL     1      35.005 -24.244 -13.928  0.00  0.00    +0.005 C 
ATOM      5  C   UNL     1      36.393 -24.000 -13.217  0.00  0.00    +0.000 C 
ATOM      6  C   UNL     1      30.964 -23.729 -15.533  0.00  0.00    +0.002 C 
ATOM      7  C   UNL     1      32.453 -24.699 -13.600  0.00  0.00    +0.110 C 
ATOM      8  C   UNL     1      33.839 -24.545 -12.938  0.00  0.00    +0.029 C 
ATOM      9  C   UNL     1      37.504 -23.812 -14.303  0.00  0.00    +0.005 C 
ATOM     10  C   UNL     1      32.745 -22.395 -16.599  0.00  0.00    +0.000 C 
ATOM     11  C   UNL     1      35.763 -22.860 -15.963  0.00  0.00    +0.110 C 
ATOM     12  C   UNL     1      31.237 -22.702 -16.656  0.00  0.00    +0.000 C 
ATOM     13  C   UNL     1      37.146 -22.712 -15.323  0.00  0.00    +0.029 C 
ATOM     14  C   UNL     1      36.804 -25.179 -12.284  0.00  0.00    +0.002 C 
ATOM     15  C   UNL     1      31.924 -22.241 -13.690  0.00  0.00    +0.002 C 
ATOM     16  C   UNL     1      37.880 -25.129 -15.013  0.00  0.00    +0.029 C 
ATOM     17  C   UNL     1      36.346 -22.741 -12.310  0.00  0.00    +0.000 C 
ATOM     18  C   UNL     1      37.140 -26.467 -13.021  0.00  0.00    +0.029 C 
ATOM     19  C   UNL     1      38.254 -26.235 -14.031  0.00  0.00    +0.111 C 
ENDROOT
BRANCH   7  20
ATOM     20  O   UNL     1      32.387 -25.957 -14.271  0.00  0.00    -0.384 OA
ATOM     21  H   UNL     1      31.485 -26.308 -14.212  0.00  0.00    +0.210 HD
ENDBRANCH   7  20
BRANCH  11  22
ATOM     22  O   UNL     1      35.771 -23.920 -16.914  0.00  0.00    -0.384 OA
ATOM     23  H   UNL     1      34.941 -24.417 -16.852  0.00  0.00    +0.210 HD
ENDBRANCH  11  22
BRANCH  19  24
ATOM     24  O   UNL     1      38.485 -27.448 -14.740  0.00  0.00    -0.384 OA
ATOM     25  H   UNL     1      39.213 -27.322 -15.368  0.00  0.00    +0.210 HD
ENDBRANCH  19  24
BRANCH   6  26
ATOM     26  C   UNL     1      29.563 -23.610 -14.949  0.00  0.00    +0.001 C 
ATOM     27  C   UNL     1      28.821 -24.944 -15.089  0.00  0.00    +0.000 C 
BRANCH  26  28
ATOM     28  C   UNL     1      28.803 -22.451 -15.627  0.00  0.00    +0.012 C 
BRANCH  28  29
ATOM     29  C   UNL     1      27.703 -22.913 -16.586  0.00  0.00    +0.109 C 
BRANCH  29  31
ATOM     30  O   UNL     1      25.569 -22.022 -15.823  0.00  0.00    -0.250 OA
ATOM     31  C   UNL     1      26.524 -21.968 -16.586  0.00  0.00    +0.314 C 
BRANCH  31  32
ATOM     32  O   UNL     1      26.641 -21.027 -17.561  0.00  0.00    -0.480 OA
ATOM     33  H   UNL     1      26.203 -20.204 -17.471  0.00  0.00    +0.295 HD
ENDBRANCH  31  32
ENDBRANCH  29  31
ENDBRANCH  28  29
ENDBRANCH  26  28
ENDBRANCH   6  26
TORSDOF 8
ENDMDL
MODEL 2
REMARK VINA RESULT:      -6.0      4.074      6.342
REMARK  Name = 221493
REMARK  8 active torsions:
REMARK  status: ('A' for Active; 'I' for Inactive)
REMARK    1  A    between atoms: C_6  and  C_26
REMARK    2  A    between atoms: C_7  and  O_20
REMARK    3  A    between atoms: C_11  and  O_22
REMARK    4  A    between atoms: C_19  and  O_24
REMARK    5  A    between atoms: C_26  and  C_28
REMARK    6  A    between atoms: C_28  and  C_29
REMARK    7  A    between atoms: C_29  and  C_31
REMARK    8  A    between atoms: C_31  and  O_32
REMARK                            x       y       z     vdW  Elec       q    Type
REMARK                         _______ _______ _______ _____ _____    ______ ____
ROOT
ATOM      1  C   UNL     1      35.242 -22.166 -18.398  0.00  0.00    +0.025 C 
ATOM      2  C   UNL     1      34.229 -22.318 -17.239  0.00  0.00    +0.005 C 
ATOM      3  C   UNL     1      34.534 -23.514 -16.325  0.00  0.00    +0.027 C 
ATOM      4  C   UNL     1      35.964 -23.333 -15.713  0.00  0.00    +0.005 C 
ATOM      5  C   UNL     1      36.346 -24.532 -14.760  0.00  0.00    +0.000 C 
ATOM      6  C   UNL     1      34.594 -20.957 -19.125  0.00  0.00    +0.002 C 
ATOM      7  C   UNL     1      36.647 -21.928 -17.806  0.00  0.00    +0.110 C 
ATOM      8  C   UNL     1      37.035 -23.036 -16.805  0.00  0.00    +0.029 C 
ATOM      9  C   UNL     1      35.257 -24.675 -13.646  0.00  0.00    +0.005 C 
ATOM     10  C   UNL     1      32.871 -22.263 -17.937  0.00  0.00    +0.000 C 
ATOM     11  C   UNL     1      33.461 -23.704 -15.235  0.00  0.00    +0.110 C 
ATOM     12  C   UNL     1      33.083 -21.282 -19.104  0.00  0.00    +0.000 C 
ATOM     13  C   UNL     1      33.834 -24.797 -14.228  0.00  0.00    +0.029 C 
ATOM     14  C   UNL     1      37.734 -24.338 -14.078  0.00  0.00    +0.002 C 
ATOM     15  C   UNL     1      35.301 -23.404 -19.334  0.00  0.00    +0.002 C 
ATOM     16  C   UNL     1      35.331 -23.556 -12.586  0.00  0.00    +0.029 C 
ATOM     17  C   UNL     1      36.448 -25.866 -15.548  0.00  0.00    +0.000 C 
ATOM     18  C   UNL     1      37.773 -23.207 -13.060  0.00  0.00    +0.029 C 
ATOM     19  C   UNL     1      36.724 -23.419 -11.978  0.00  0.00    +0.111 C 
ENDROOT
BRANCH   7  20
ATOM     20  O   UNL     1      36.751 -20.656 -17.166  0.00  0.00    -0.384 OA
ATOM     21  H   UNL     1      37.646 -20.304 -17.290  0.00  0.00    +0.210 HD
ENDBRANCH   7  20
BRANCH  11  22
ATOM     22  O   UNL     1      33.219 -22.474 -14.558  0.00  0.00    -0.384 OA
ATOM     23  H   UNL     1      34.030 -22.185 -14.112  0.00  0.00    +0.210 HD
ENDBRANCH  11  22
BRANCH  19  24
ATOM     24  O   UNL     1      36.753 -22.306 -11.091  0.00  0.00    -0.384 OA
ATOM     25  H   UNL     1      37.658 -22.170 -10.772  0.00  0.00    +0.210 HD
ENDBRANCH  19  24
BRANCH   6  26
ATOM     26  C   UNL     1      35.115 -20.650 -20.523  0.00  0.00    +0.001 C 
ATOM     27  C   UNL     1      36.472 -19.943 -20.434  0.00  0.00    +0.000 C 
BRANCH  26  28
ATOM     28  C   UNL     1      34.078 -19.817 -21.304  0.00  0.00    +0.012 C 
BRANCH  28  29
ATOM     29  C   UNL     1      34.572 -18.418 -21.683  0.00  0.00    +0.109 C 
BRANCH  29  31
ATOM     30  O   UNL     1      34.543 -19.105 -24.020  0.00  0.00    -0.250 OA
ATOM     31  C   UNL     1      34.905 -18.320 -23.154  0.00  0.00    +0.314 C 
BRANCH  31  32
ATOM     32  O   UNL     1      35.681 -17.234 -23.416  0.00  0.00    -0.480 OA
ATOM     33  H   UNL     1      36.344 -16.975 -22.806  0.00  0.00    +0.295 HD
ENDBRANCH  31  32
ENDBRANCH  29  31
ENDBRANCH  28  29
ENDBRANCH  26  28
ENDBRANCH   6  26
TORSDOF 8
ENDMDL
MODEL 3
REMARK VINA RESULT:      -5.8     14.030     17.060
REMARK  Name = 221493
REMARK  8 active torsions:
REMARK  status: ('A' for Active; 'I' for Inactive)
REMARK    1  A    between atoms: C_6  and  C_26
REMARK    2  A    between atoms: C_7  and  O_20
REMARK    3  A    between atoms: C_11  and  O_22
REMARK    4  A    between atoms: C_19  and  O_24
REMARK    5  A    between atoms: C_26  and  C_28
REMARK    6  A    between atoms: C_28  and  C_29
REMARK    7  A    between atoms: C_29  and  C_31
REMARK    8  A    between atoms: C_31  and  O_32
REMARK                            x       y       z     vdW  Elec       q    Type
REMARK                         _______ _______ _______ _____ _____    ______ ____
ROOT
ATOM      1  C   UNL     1      33.637 -12.011 -23.752  0.00  0.00    +0.025 C 
ATOM      2  C   UNL     1      32.457 -11.157 -23.233  0.00  0.00    +0.005 C 
ATOM      3  C   UNL     1      32.890  -9.772 -22.728  0.00  0.00    +0.027 C 
ATOM      4  C   UNL     1      33.584  -8.999 -23.900  0.00  0.00    +0.005 C 
ATOM      5  C   UNL     1      34.059  -7.563 -23.450  0.00  0.00    +0.000 C 
ATOM      6  C   UNL     1      32.862 -13.313 -24.087  0.00  0.00    +0.002 C 
ATOM      7  C   UNL     1      34.291 -11.286 -24.946  0.00  0.00    +0.110 C 
ATOM      8  C   UNL     1      34.704  -9.845 -24.578  0.00  0.00    +0.029 C 
ATOM      9  C   UNL     1      32.836  -6.769 -22.880  0.00  0.00    +0.005 C 
ATOM     10  C   UNL     1      31.733 -12.091 -22.264  0.00  0.00    +0.000 C 
ATOM     11  C   UNL     1      31.715  -8.976 -22.129  0.00  0.00    +0.110 C 
ATOM     12  C   UNL     1      31.903 -13.489 -22.887  0.00  0.00    +0.000 C 
ATOM     13  C   UNL     1      32.105  -7.540 -21.763  0.00  0.00    +0.029 C 
ATOM     14  C   UNL     1      34.683  -6.744 -24.620  0.00  0.00    +0.002 C 
ATOM     15  C   UNL     1      34.726 -12.279 -22.677  0.00  0.00    +0.002 C 
ATOM     16  C   UNL     1      31.853  -6.311 -23.977  0.00  0.00    +0.029 C 
ATOM     17  C   UNL     1      35.162  -7.651 -22.361  0.00  0.00    +0.000 C 
ATOM     18  C   UNL     1      33.685  -6.336 -25.694  0.00  0.00    +0.029 C 
ATOM     19  C   UNL     1      32.543  -5.531 -25.092  0.00  0.00    +0.111 C 
ENDROOT
BRANCH   7  20
ATOM     20  O   UNL     1      33.436 -11.255 -26.089  0.00  0.00    -0.384 OA
ATOM     21  H   UNL     1      33.354 -10.341 -26.406  0.00  0.00    +0.210 HD
ENDBRANCH   7  20
BRANCH  11  22
ATOM     22  O   UNL     1      30.610  -8.971 -23.027  0.00  0.00    -0.384 OA
ATOM     23  H   UNL     1      30.740  -8.282 -23.697  0.00  0.00    +0.210 HD
ENDBRANCH  11  22
BRANCH  19  24
ATOM     24  O   UNL     1      31.605  -5.232 -26.120  0.00  0.00    -0.384 OA
ATOM     25  H   UNL     1      31.984  -5.463 -26.982  0.00  0.00    +0.210 HD
ENDBRANCH  19  24
BRANCH   6  26
ATOM     26  C   UNL     1      33.705 -14.552 -24.358  0.00  0.00    +0.001 C 
ATOM     27  C   UNL     1      33.331 -15.154 -25.716  0.00  0.00    +0.000 C 
BRANCH  26  28
ATOM     28  C   UNL     1      33.539 -15.568 -23.208  0.00  0.00    +0.012 C 
BRANCH  28  29
ATOM     29  C   UNL     1      34.862 -16.157 -22.712  0.00  0.00    +0.109 C 
BRANCH  29  31
ATOM     30  O   UNL     1      34.751 -15.240 -20.458  0.00  0.00    -0.250 OA
ATOM     31  C   UNL     1      34.929 -16.195 -21.202  0.00  0.00    +0.314 C 
BRANCH  31  32
ATOM     32  O   UNL     1      35.224 -17.443 -20.750  0.00  0.00    -0.480 OA
ATOM     33  H   UNL     1      34.535 -18.057 -20.588  0.00  0.00    +0.295 HD
ENDBRANCH  31  32
ENDBRANCH  29  31
ENDBRANCH  28  29
ENDBRANCH  26  28
ENDBRANCH   6  26
TORSDOF 8
ENDMDL
