MODEL 1
REMARK VINA RESULT:      -8.8      0.000      0.000
REMARK  Name = 54677470
REMARK  2 active torsions:
REMARK  status: ('A' for Active; 'I' for Inactive)
REMARK    1  A    between atoms: C_7  and  C_18
REMARK    2  A    between atoms: C_8  and  O_24
REMARK                            x       y       z     vdW  Elec       q    Type
REMARK                         _______ _______ _______ _____ _____    ______ ____
ROOT
ATOM      1  S   UNL     1      36.835 -25.344 -15.170  0.00  0.00    +0.077 S 
ATOM      2  O   UNL     1      35.987 -26.458 -15.550  0.00  0.00    -0.150 OA
ATOM      3  O   UNL     1      38.276 -25.422 -15.295  0.00  0.00    -0.150 OA
ATOM      4  N   UNL     1      36.272 -23.894 -15.923  0.00  0.00    -0.181 N 
ATOM      5  C   UNL     1      36.452 -24.988 -13.492  0.00  0.00    +0.128 C 
ATOM      6  C   UNL     1      35.311 -24.218 -13.239  0.00  0.00    +0.054 C 
ATOM      7  C   UNL     1      34.899 -23.584 -15.611  0.00  0.00    +0.156 C 
ATOM      8  C   UNL     1      34.452 -23.735 -14.349  0.00  0.00    +0.154 C 
ATOM      9  C   UNL     1      37.286 -25.454 -12.478  0.00  0.00    +0.020 C 
ATOM     10  C   UNL     1      37.198 -22.724 -15.900  0.00  0.00    +0.139 C 
ATOM     11  C   UNL     1      35.011 -23.933 -11.899  0.00  0.00    +0.004 C 
ATOM     12  C   UNL     1      36.970 -25.155 -11.157  0.00  0.00    +0.001 C 
ATOM     13  C   UNL     1      35.836 -24.398 -10.867  0.00  0.00    +0.000 C 
ENDROOT
BRANCH   7  18
ATOM     14  S   UNL     1      35.701 -20.896 -19.705  0.00  0.00    -0.056 S 
ATOM     15  O   UNL     1      32.904 -23.268 -16.774  0.00  0.00    -0.268 OA
ATOM     16  N   UNL     1      34.894 -22.342 -17.625  0.00  0.00    -0.259 N 
ATOM     17  N   UNL     1      33.257 -21.634 -19.306  0.00  0.00    -0.223 NA
ATOM     18  C   UNL     1      34.111 -23.053 -16.728  0.00  0.00    +0.269 C 
ATOM     19  C   UNL     1      34.473 -21.694 -18.811  0.00  0.00    +0.166 C 
ATOM     20  C   UNL     1      34.523 -20.425 -20.858  0.00  0.00    +0.029 C 
ATOM     21  C   UNL     1      33.286 -20.906 -20.479  0.00  0.00    +0.103 C 
ATOM     22  C   UNL     1      34.904 -19.625 -22.039  0.00  0.00    +0.040 C 
ATOM     23  H   UNL     1      35.854 -22.280 -17.412  0.00  0.00    +0.157 HD
ENDBRANCH   7  18
BRANCH   8  24
ATOM     24  O   UNL     1      33.161 -23.443 -13.954  0.00  0.00    -0.504 OA
ATOM     25  H   UNL     1      32.551 -24.137 -13.792  0.00  0.00    +0.292 HD
ENDBRANCH   8  24
TORSDOF 2
ENDMDL
MODEL 2
REMARK VINA RESULT:      -8.6      9.867     12.978
REMARK  Name = 54677470
REMARK  2 active torsions:
REMARK  status: ('A' for Active; 'I' for Inactive)
REMARK    1  A    between atoms: C_7  and  C_18
REMARK    2  A    between atoms: C_8  and  O_24
REMARK                            x       y       z     vdW  Elec       q    Type
REMARK                         _______ _______ _______ _____ _____    ______ ____
ROOT
ATOM      1  S   UNL     1      34.643 -15.200 -21.051  0.00  0.00    +0.077 S 
ATOM      2  O   UNL     1      35.693 -14.207 -21.184  0.00  0.00    -0.150 OA
ATOM      3  O   UNL     1      34.627 -16.130 -19.940  0.00  0.00    -0.150 OA
ATOM      4  N   UNL     1      33.097 -14.442 -21.188  0.00  0.00    -0.181 N 
ATOM      5  C   UNL     1      34.662 -16.133 -22.541  0.00  0.00    +0.128 C 
ATOM      6  C   UNL     1      34.015 -15.585 -23.654  0.00  0.00    +0.054 C 
ATOM      7  C   UNL     1      32.922 -13.718 -22.422  0.00  0.00    +0.156 C 
ATOM      8  C   UNL     1      33.353 -14.259 -23.579  0.00  0.00    +0.154 C 
ATOM      9  C   UNL     1      35.289 -17.377 -22.570  0.00  0.00    +0.020 C 
ATOM     10  C   UNL     1      31.916 -15.249 -20.764  0.00  0.00    +0.139 C 
ATOM     11  C   UNL     1      34.029 -16.334 -24.839  0.00  0.00    +0.004 C 
ATOM     12  C   UNL     1      35.285 -18.103 -23.757  0.00  0.00    +0.001 C 
ATOM     13  C   UNL     1      34.658 -17.584 -24.889  0.00  0.00    +0.000 C 
ENDROOT
BRANCH   7  18
ATOM     14  S   UNL     1      33.579  -9.006 -23.835  0.00  0.00    -0.056 S 
ATOM     15  O   UNL     1      31.136 -12.403 -21.704  0.00  0.00    -0.268 OA
ATOM     16  N   UNL     1      32.891 -11.404 -22.915  0.00  0.00    -0.259 N 
ATOM     17  N   UNL     1      31.416  -9.490 -22.505  0.00  0.00    -0.223 NA
ATOM     18  C   UNL     1      32.208 -12.443 -22.300  0.00  0.00    +0.269 C 
ATOM     19  C   UNL     1      32.502 -10.045 -22.996  0.00  0.00    +0.166 C 
ATOM     20  C   UNL     1      32.516  -7.696 -23.527  0.00  0.00    +0.029 C 
ATOM     21  C   UNL     1      31.426  -8.143 -22.810  0.00  0.00    +0.103 C 
ATOM     22  C   UNL     1      32.836  -6.339 -24.014  0.00  0.00    +0.040 C 
ATOM     23  H   UNL     1      33.746 -11.639 -23.346  0.00  0.00    +0.157 HD
ENDBRANCH   7  18
BRANCH   8  24
ATOM     24  O   UNL     1      33.209 -13.648 -24.809  0.00  0.00    -0.504 OA
ATOM     25  H   UNL     1      33.588 -14.038 -25.574  0.00  0.00    +0.292 HD
ENDBRANCH   8  24
TORSDOF 2
ENDMDL
MODEL 3
REMARK VINA RESULT:      -8.5      3.128      3.848
REMARK  Name = 54677470
REMARK  2 active torsions:
REMARK  status: ('A' for Active; 'I' for Inactive)
REMARK    1  A    between atoms: C_7  and  C_18
REMARK    2  A    between atoms: C_8  and  O_24
REMARK                            x       y       z     vdW  Elec       q    Type
REMARK                         _______ _______ _______ _____ _____    ______ ____
ROOT
ATOM      1  S   UNL     1      36.947 -24.512 -15.263  0.00  0.00    +0.077 S 
ATOM      2  O   UNL     1      36.506 -25.876 -15.487  0.00  0.00    -0.150 OA
ATOM      3  O   UNL     1      38.245 -24.059 -15.723  0.00  0.00    -0.150 OA
ATOM      4  N   UNL     1      35.732 -23.406 -15.799  0.00  0.00    -0.181 N 
ATOM      5  C   UNL     1      36.861 -24.248 -13.528  0.00  0.00    +0.128 C 
ATOM      6  C   UNL     1      35.609 -23.941 -12.983  0.00  0.00    +0.054 C 
ATOM      7  C   UNL     1      34.454 -23.609 -15.163  0.00  0.00    +0.156 C 
ATOM      8  C   UNL     1      34.401 -23.858 -13.839  0.00  0.00    +0.154 C 
ATOM      9  C   UNL     1      38.020 -24.329 -12.757  0.00  0.00    +0.020 C 
ATOM     10  C   UNL     1      36.141 -21.978 -15.938  0.00  0.00    +0.139 C 
ATOM     11  C   UNL     1      35.546 -23.728 -11.598  0.00  0.00    +0.004 C 
ATOM     12  C   UNL     1      37.931 -24.109 -11.387  0.00  0.00    +0.001 C 
ATOM     13  C   UNL     1      36.699 -23.810 -10.807  0.00  0.00    +0.000 C 
ENDROOT
BRANCH   7  18
ATOM     14  S   UNL     1      29.600 -22.700 -14.681  0.00  0.00    -0.056 S 
ATOM     15  O   UNL     1      33.430 -23.560 -17.256  0.00  0.00    -0.268 OA
ATOM     16  N   UNL     1      32.130 -23.200 -15.326  0.00  0.00    -0.259 N 
ATOM     17  N   UNL     1      30.450 -23.011 -17.101  0.00  0.00    -0.223 NA
ATOM     18  C   UNL     1      33.290 -23.456 -16.041  0.00  0.00    +0.269 C 
ATOM     19  C   UNL     1      30.827 -22.998 -15.842  0.00  0.00    +0.166 C 
ATOM     20  C   UNL     1      28.459 -22.574 -15.954  0.00  0.00    +0.029 C 
ATOM     21  C   UNL     1      29.092 -22.768 -17.164  0.00  0.00    +0.103 C 
ATOM     22  C   UNL     1      27.038 -22.293 -15.665  0.00  0.00    +0.040 C 
ATOM     23  H   UNL     1      32.223 -23.154 -14.347  0.00  0.00    +0.157 HD
ENDBRANCH   7  18
BRANCH   8  24
ATOM     24  O   UNL     1      33.222 -24.045 -13.143  0.00  0.00    -0.504 OA
ATOM     25  H   UNL     1      32.714 -23.304 -12.875  0.00  0.00    +0.292 HD
ENDBRANCH   8  24
TORSDOF 2
ENDMDL
MODEL 4
REMARK VINA RESULT:      -8.1      3.534      4.576
REMARK  Name = 54677470
REMARK  2 active torsions:
REMARK  status: ('A' for Active; 'I' for Inactive)
REMARK    1  A    between atoms: C_7  and  C_18
REMARK    2  A    between atoms: C_8  and  O_24
REMARK                            x       y       z     vdW  Elec       q    Type
REMARK                         _______ _______ _______ _____ _____    ______ ____
ROOT
ATOM      1  S   UNL     1      36.340 -24.486 -12.904  0.00  0.00    +0.077 S 
ATOM      2  O   UNL     1      36.237 -23.102 -12.478  0.00  0.00    -0.150 OA
ATOM      3  O   UNL     1      36.180 -25.574 -11.961  0.00  0.00    -0.150 OA
ATOM      4  N   UNL     1      35.319 -24.756 -14.271  0.00  0.00    -0.181 N 
ATOM      5  C   UNL     1      37.917 -24.648 -13.661  0.00  0.00    +0.128 C 
ATOM      6  C   UNL     1      38.045 -24.222 -14.988  0.00  0.00    +0.054 C 
ATOM      7  C   UNL     1      35.610 -23.887 -15.384  0.00  0.00    +0.156 C 
ATOM      8  C   UNL     1      36.892 -23.640 -15.719  0.00  0.00    +0.154 C 
ATOM      9  C   UNL     1      38.975 -25.205 -12.944  0.00  0.00    +0.020 C 
ATOM     10  C   UNL     1      35.058 -26.178 -14.641  0.00  0.00    +0.139 C 
ATOM     11  C   UNL     1      39.305 -24.357 -15.588  0.00  0.00    +0.004 C 
ATOM     12  C   UNL     1      40.213 -25.333 -13.563  0.00  0.00    +0.001 C 
ATOM     13  C   UNL     1      40.380 -24.909 -14.882  0.00  0.00    +0.000 C 
ENDROOT
BRANCH   7  18
ATOM     14  S   UNL     1      30.703 -23.651 -14.684  0.00  0.00    -0.056 S 
ATOM     15  O   UNL     1      34.582 -22.862 -17.208  0.00  0.00    -0.268 OA
ATOM     16  N   UNL     1      33.262 -23.599 -15.403  0.00  0.00    -0.259 N 
ATOM     17  N   UNL     1      31.571 -22.654 -16.905  0.00  0.00    -0.223 NA
ATOM     18  C   UNL     1      34.437 -23.389 -16.109  0.00  0.00    +0.269 C 
ATOM     19  C   UNL     1      31.947 -23.249 -15.795  0.00  0.00    +0.166 C 
ATOM     20  C   UNL     1      29.554 -22.977 -15.764  0.00  0.00    +0.029 C 
ATOM     21  C   UNL     1      30.199 -22.499 -16.886  0.00  0.00    +0.103 C 
ATOM     22  C   UNL     1      28.117 -22.969 -15.424  0.00  0.00    +0.040 C 
ATOM     23  H   UNL     1      33.352 -24.043 -14.528  0.00  0.00    +0.157 HD
ENDBRANCH   7  18
BRANCH   8  24
ATOM     24  O   UNL     1      37.265 -22.838 -16.780  0.00  0.00    -0.504 OA
ATOM     25  H   UNL     1      37.970 -23.099 -17.339  0.00  0.00    +0.292 HD
ENDBRANCH   8  24
TORSDOF 2
ENDMDL
MODEL 5
REMARK VINA RESULT:      -8.0      2.463      3.360
REMARK  Name = 54677470
REMARK  2 active torsions:
REMARK  status: ('A' for Active; 'I' for Inactive)
REMARK    1  A    between atoms: C_7  and  C_18
REMARK    2  A    between atoms: C_8  and  O_24
REMARK                            x       y       z     vdW  Elec       q    Type
REMARK                         _______ _______ _______ _____ _____    ______ ____
ROOT
ATOM      1  S   UNL     1      35.050 -24.742 -15.013  0.00  0.00    +0.077 S 
ATOM      2  O   UNL     1      35.189 -25.787 -16.011  0.00  0.00    -0.150 OA
ATOM      3  O   UNL     1      35.645 -24.877 -13.699  0.00  0.00    -0.150 OA
ATOM      4  N   UNL     1      35.499 -23.218 -15.693  0.00  0.00    -0.181 N 
ATOM      5  C   UNL     1      33.323 -24.491 -14.807  0.00  0.00    +0.128 C 
ATOM      6  C   UNL     1      32.669 -23.690 -15.750  0.00  0.00    +0.054 C 
ATOM      7  C   UNL     1      34.737 -22.869 -16.866  0.00  0.00    +0.156 C 
ATOM      8  C   UNL     1      33.408 -23.090 -16.888  0.00  0.00    +0.154 C 
ATOM      9  C   UNL     1      32.665 -25.067 -13.721  0.00  0.00    +0.020 C 
ATOM     10  C   UNL     1      35.719 -22.096 -14.733  0.00  0.00    +0.139 C 
ATOM     11  C   UNL     1      31.292 -23.489 -15.579  0.00  0.00    +0.004 C 
ATOM     12  C   UNL     1      31.300 -24.849 -13.571  0.00  0.00    +0.001 C 
ATOM     13  C   UNL     1      30.613 -24.064 -14.497  0.00  0.00    +0.000 C 
ENDROOT
BRANCH   7  18
ATOM     14  S   UNL     1      33.818 -19.999 -20.809  0.00  0.00    -0.056 S 
ATOM     15  O   UNL     1      36.724 -22.357 -17.974  0.00  0.00    -0.268 OA
ATOM     16  N   UNL     1      34.688 -21.512 -18.803  0.00  0.00    -0.259 N 
ATOM     17  N   UNL     1      36.299 -20.602 -20.412  0.00  0.00    -0.223 NA
ATOM     18  C   UNL     1      35.504 -22.223 -17.936  0.00  0.00    +0.269 C 
ATOM     19  C   UNL     1      35.083 -20.770 -19.943  0.00  0.00    +0.166 C 
ATOM     20  C   UNL     1      34.979 -19.382 -21.909  0.00  0.00    +0.029 C 
ATOM     21  C   UNL     1      36.238 -19.807 -21.539  0.00  0.00    +0.103 C 
ATOM     22  C   UNL     1      34.563 -18.532 -23.042  0.00  0.00    +0.040 C 
ATOM     23  H   UNL     1      33.724 -21.525 -18.604  0.00  0.00    +0.157 HD
ENDBRANCH   7  18
BRANCH   8  24
ATOM     24  O   UNL     1      32.597 -22.768 -17.959  0.00  0.00    -0.504 OA
ATOM     25  H   UNL     1      32.896 -22.161 -18.608  0.00  0.00    +0.292 HD
ENDBRANCH   8  24
TORSDOF 2
ENDMDL
MODEL 6
REMARK VINA RESULT:      -8.0      3.780      6.786
REMARK  Name = 54677470
REMARK  2 active torsions:
REMARK  status: ('A' for Active; 'I' for Inactive)
REMARK    1  A    between atoms: C_7  and  C_18
REMARK    2  A    between atoms: C_8  and  O_24
REMARK                            x       y       z     vdW  Elec       q    Type
REMARK                         _______ _______ _______ _____ _____    ______ ____
ROOT
ATOM      1  S   UNL     1      31.033 -24.678 -14.117  0.00  0.00    +0.077 S 
ATOM      2  O   UNL     1      31.296 -25.938 -14.788  0.00  0.00    -0.150 OA
ATOM      3  O   UNL     1      30.530 -24.643 -12.759  0.00  0.00    -0.150 OA
ATOM      4  N   UNL     1      32.413 -23.646 -14.245  0.00  0.00    -0.181 N 
ATOM      5  C   UNL     1      29.901 -23.807 -15.140  0.00  0.00    +0.128 C 
ATOM      6  C   UNL     1      30.422 -23.121 -16.242  0.00  0.00    +0.054 C 
ATOM      7  C   UNL     1      32.813 -23.392 -15.606  0.00  0.00    +0.156 C 
ATOM      8  C   UNL     1      31.875 -23.144 -16.541  0.00  0.00    +0.154 C 
ATOM      9  C   UNL     1      28.543 -23.804 -14.823  0.00  0.00    +0.020 C 
ATOM     10  C   UNL     1      32.438 -22.450 -13.352  0.00  0.00    +0.139 C 
ATOM     11  C   UNL     1      29.515 -22.424 -17.054  0.00  0.00    +0.004 C 
ATOM     12  C   UNL     1      27.664 -23.102 -15.641  0.00  0.00    +0.001 C 
ATOM     13  C   UNL     1      28.147 -22.414 -16.754  0.00  0.00    +0.000 C 
ENDROOT
BRANCH   7  18
ATOM     14  S   UNL     1      36.870 -25.456 -13.628  0.00  0.00    -0.056 S 
ATOM     15  O   UNL     1      34.719 -22.676 -16.740  0.00  0.00    -0.268 OA
ATOM     16  N   UNL     1      34.944 -24.173 -14.937  0.00  0.00    -0.259 N 
ATOM     17  N   UNL     1      37.276 -23.868 -15.626  0.00  0.00    -0.223 NA
ATOM     18  C   UNL     1      34.261 -23.365 -15.834  0.00  0.00    +0.269 C 
ATOM     19  C   UNL     1      36.341 -24.388 -14.863  0.00  0.00    +0.166 C 
ATOM     20  C   UNL     1      38.487 -25.216 -14.145  0.00  0.00    +0.029 C 
ATOM     21  C   UNL     1      38.506 -24.343 -15.214  0.00  0.00    +0.103 C 
ATOM     22  C   UNL     1      39.603 -25.902 -13.465  0.00  0.00    +0.040 C 
ATOM     23  H   UNL     1      34.393 -24.652 -14.276  0.00  0.00    +0.157 HD
ENDBRANCH   7  18
BRANCH   8  24
ATOM     24  O   UNL     1      32.167 -22.870 -17.864  0.00  0.00    -0.504 OA
ATOM     25  H   UNL     1      31.476 -22.819 -18.495  0.00  0.00    +0.292 HD
ENDBRANCH   8  24
TORSDOF 2
ENDMDL
MODEL 7
REMARK VINA RESULT:      -7.9      1.978      2.962
REMARK  Name = 54677470
REMARK  2 active torsions:
REMARK  status: ('A' for Active; 'I' for Inactive)
REMARK    1  A    between atoms: C_7  and  C_18
REMARK    2  A    between atoms: C_8  and  O_24
REMARK                            x       y       z     vdW  Elec       q    Type
REMARK                         _______ _______ _______ _____ _____    ______ ____
ROOT
ATOM      1  S   UNL     1      36.200 -24.251 -13.152  0.00  0.00    +0.077 S 
ATOM      2  O   UNL     1      36.217 -22.857 -12.747  0.00  0.00    -0.150 OA
ATOM      3  O   UNL     1      35.790 -25.294 -12.233  0.00  0.00    -0.150 OA
ATOM      4  N   UNL     1      35.332 -24.421 -14.636  0.00  0.00    -0.181 N 
ATOM      5  C   UNL     1      37.828 -24.620 -13.703  0.00  0.00    +0.128 C 
ATOM      6  C   UNL     1      38.172 -24.237 -15.004  0.00  0.00    +0.054 C 
ATOM      7  C   UNL     1      35.865 -23.615 -15.706  0.00  0.00    +0.156 C 
ATOM      8  C   UNL     1      37.200 -23.533 -15.877  0.00  0.00    +0.154 C 
ATOM      9  C   UNL     1      38.710 -25.288 -12.856  0.00  0.00    +0.020 C 
ATOM     10  C   UNL     1      34.946 -25.807 -15.031  0.00  0.00    +0.139 C 
ATOM     11  C   UNL     1      39.470 -24.537 -15.441  0.00  0.00    +0.004 C 
ATOM     12  C   UNL     1      39.991 -25.578 -13.314  0.00  0.00    +0.001 C 
ATOM     13  C   UNL     1      40.372 -25.203 -14.602  0.00  0.00    +0.000 C 
ENDROOT
BRANCH   7  18
ATOM     14  S   UNL     1      35.795 -21.006 -19.927  0.00  0.00    -0.056 S 
ATOM     15  O   UNL     1      33.673 -23.068 -16.281  0.00  0.00    -0.268 OA
ATOM     16  N   UNL     1      35.441 -22.366 -17.670  0.00  0.00    -0.259 N 
ATOM     17  N   UNL     1      33.490 -21.467 -18.851  0.00  0.00    -0.223 NA
ATOM     18  C   UNL     1      34.863 -22.991 -16.575  0.00  0.00    +0.269 C 
ATOM     19  C   UNL     1      34.782 -21.667 -18.710  0.00  0.00    +0.166 C 
ATOM     20  C   UNL     1      34.403 -20.397 -20.721  0.00  0.00    +0.029 C 
ATOM     21  C   UNL     1      33.274 -20.738 -20.004  0.00  0.00    +0.103 C 
ATOM     22  C   UNL     1      34.529 -19.637 -21.981  0.00  0.00    +0.040 C 
ATOM     23  H   UNL     1      36.423 -22.414 -17.731  0.00  0.00    +0.157 HD
ENDBRANCH   7  18
BRANCH   8  24
ATOM     24  O   UNL     1      37.798 -22.803 -16.886  0.00  0.00    -0.504 OA
ATOM     25  H   UNL     1      38.699 -22.950 -17.100  0.00  0.00    +0.292 HD
ENDBRANCH   8  24
TORSDOF 2
ENDMDL
MODEL 8
REMARK VINA RESULT:      -7.9     10.811     14.415
REMARK  Name = 54677470
REMARK  2 active torsions:
REMARK  status: ('A' for Active; 'I' for Inactive)
REMARK    1  A    between atoms: C_7  and  C_18
REMARK    2  A    between atoms: C_8  and  O_24
REMARK                            x       y       z     vdW  Elec       q    Type
REMARK                         _______ _______ _______ _____ _____    ______ ____
ROOT
ATOM      1  S   UNL     1      31.326 -11.228 -21.877  0.00  0.00    +0.077 S 
ATOM      2  O   UNL     1      30.276 -11.160 -22.878  0.00  0.00    -0.150 OA
ATOM      3  O   UNL     1      31.011 -11.304 -20.465  0.00  0.00    -0.150 OA
ATOM      4  N   UNL     1      32.445 -12.480 -22.285  0.00  0.00    -0.181 N 
ATOM      5  C   UNL     1      32.338  -9.814 -22.135  0.00  0.00    +0.128 C 
ATOM      6  C   UNL     1      33.293  -9.881 -23.155  0.00  0.00    +0.054 C 
ATOM      7  C   UNL     1      33.033 -12.318 -23.591  0.00  0.00    +0.156 C 
ATOM      8  C   UNL     1      33.433 -11.096 -23.995  0.00  0.00    +0.154 C 
ATOM      9  C   UNL     1      32.181  -8.693 -21.321  0.00  0.00    +0.020 C 
ATOM     10  C   UNL     1      33.399 -12.898 -21.216  0.00  0.00    +0.139 C 
ATOM     11  C   UNL     1      34.101  -8.752 -23.354  0.00  0.00    +0.004 C 
ATOM     12  C   UNL     1      32.997  -7.588 -21.536  0.00  0.00    +0.001 C 
ATOM     13  C   UNL     1      33.954  -7.615 -22.550  0.00  0.00    +0.000 C 
ENDROOT
BRANCH   7  18
ATOM     14  S   UNL     1      34.742 -16.907 -22.786  0.00  0.00    -0.056 S 
ATOM     15  O   UNL     1      32.866 -13.595 -25.534  0.00  0.00    -0.268 OA
ATOM     16  N   UNL     1      33.757 -14.570 -23.585  0.00  0.00    -0.259 N 
ATOM     17  N   UNL     1      33.881 -16.431 -25.175  0.00  0.00    -0.223 NA
ATOM     18  C   UNL     1      33.204 -13.558 -24.354  0.00  0.00    +0.269 C 
ATOM     19  C   UNL     1      34.060 -15.893 -23.990  0.00  0.00    +0.166 C 
ATOM     20  C   UNL     1      34.808 -18.182 -23.931  0.00  0.00    +0.029 C 
ATOM     21  C   UNL     1      34.311 -17.743 -25.140  0.00  0.00    +0.103 C 
ATOM     22  C   UNL     1      35.339 -19.506 -23.551  0.00  0.00    +0.040 C 
ATOM     23  H   UNL     1      33.962 -14.343 -22.648  0.00  0.00    +0.157 HD
ENDBRANCH   7  18
BRANCH   8  24
ATOM     24  O   UNL     1      34.025 -10.851 -25.219  0.00  0.00    -0.504 OA
ATOM     25  H   UNL     1      34.121  -9.970 -25.525  0.00  0.00    +0.292 HD
ENDBRANCH   8  24
TORSDOF 2
ENDMDL
MODEL 9
REMARK VINA RESULT:      -7.8     11.416     16.267
REMARK  Name = 54677470
REMARK  2 active torsions:
REMARK  status: ('A' for Active; 'I' for Inactive)
REMARK    1  A    between atoms: C_7  and  C_18
REMARK    2  A    between atoms: C_8  and  O_24
REMARK                            x       y       z     vdW  Elec       q    Type
REMARK                         _______ _______ _______ _____ _____    ______ ____
ROOT
ATOM      1  S   UNL     1      31.122  -7.749 -22.884  0.00  0.00    +0.077 S 
ATOM      2  O   UNL     1      30.164  -8.285 -23.834  0.00  0.00    -0.150 OA
ATOM      3  O   UNL     1      30.827  -6.559 -22.112  0.00  0.00    -0.150 OA
ATOM      4  N   UNL     1      31.660  -9.002 -21.823  0.00  0.00    -0.181 N 
ATOM      5  C   UNL     1      32.599  -7.459 -23.791  0.00  0.00    +0.128 C 
ATOM      6  C   UNL     1      33.436  -8.554 -24.031  0.00  0.00    +0.054 C 
ATOM      7  C   UNL     1      32.242 -10.125 -22.513  0.00  0.00    +0.156 C 
ATOM      8  C   UNL     1      33.078  -9.911 -23.549  0.00  0.00    +0.154 C 
ATOM      9  C   UNL     1      32.903  -6.168 -24.222  0.00  0.00    +0.020 C 
ATOM     10  C   UNL     1      32.395  -8.572 -20.598  0.00  0.00    +0.139 C 
ATOM     11  C   UNL     1      34.615  -8.316 -24.752  0.00  0.00    +0.004 C 
ATOM     12  C   UNL     1      34.081  -5.958 -24.931  0.00  0.00    +0.001 C 
ATOM     13  C   UNL     1      34.935  -7.028 -25.197  0.00  0.00    +0.000 C 
ENDROOT
BRANCH   7  18
ATOM     14  S   UNL     1      34.303 -14.633 -22.270  0.00  0.00    -0.056 S 
ATOM     15  O   UNL     1      30.841 -11.593 -21.366  0.00  0.00    -0.268 OA
ATOM     16  N   UNL     1      32.899 -12.376 -22.201  0.00  0.00    -0.259 N 
ATOM     17  N   UNL     1      31.988 -14.393 -21.146  0.00  0.00    -0.223 NA
ATOM     18  C   UNL     1      31.905 -11.440 -21.959  0.00  0.00    +0.269 C 
ATOM     19  C   UNL     1      32.912 -13.738 -21.813  0.00  0.00    +0.166 C 
ATOM     20  C   UNL     1      33.629 -16.019 -21.519  0.00  0.00    +0.029 C 
ATOM     21  C   UNL     1      32.400 -15.701 -20.979  0.00  0.00    +0.103 C 
ATOM     22  C   UNL     1      34.359 -17.302 -21.517  0.00  0.00    +0.040 C 
ATOM     23  H   UNL     1      33.686 -12.057 -22.699  0.00  0.00    +0.157 HD
ENDBRANCH   7  18
BRANCH   8  24
ATOM     24  O   UNL     1      33.698 -10.924 -24.255  0.00  0.00    -0.504 OA
ATOM     25  H   UNL     1      33.194 -11.645 -24.579  0.00  0.00    +0.292 HD
ENDBRANCH   8  24
TORSDOF 2
ENDMDL
