MODEL 1
REMARK VINA RESULT:      -8.2      0.000      0.000
REMARK  Name = 4236
REMARK  5 active torsions:
REMARK  status: ('A' for Active; 'I' for Inactive)
REMARK    1  A    between atoms: C_1  and  C_2
REMARK    2  A    between atoms: C_1  and  C_8
REMARK    3  A    between atoms: C_1  and  S_14
REMARK    4  A    between atoms: S_14  and  C_16
REMARK    5  A    between atoms: C_16  and  C_19
REMARK                            x       y       z     vdW  Elec       q    Type
REMARK                         _______ _______ _______ _____ _____    ______ ____
ROOT
ATOM      1  C   UNL     1      33.992 -18.678 -22.010  0.00  0.00    +0.124 C 
ENDROOT
BRANCH   1   2
ATOM      2  C   UNL     1      33.793 -17.326 -21.413  0.00  0.00    -0.006 C 
ATOM      3  C   UNL     1      34.896 -16.546 -21.069  0.00  0.00    -0.003 C 
ATOM      4  C   UNL     1      32.503 -16.842 -21.198  0.00  0.00    -0.003 C 
ATOM      5  C   UNL     1      34.711 -15.281 -20.511  0.00  0.00    -0.000 C 
ATOM      6  C   UNL     1      32.316 -15.578 -20.641  0.00  0.00    -0.000 C 
ATOM      7  C   UNL     1      33.420 -14.797 -20.297  0.00  0.00    -0.000 C 
ENDBRANCH   1   2
BRANCH   1   8
ATOM      8  C   UNL     1      34.330 -19.769 -20.995  0.00  0.00    -0.006 C 
ATOM      9  C   UNL     1      35.653 -20.017 -20.707  0.00  0.00    -0.003 C 
ATOM     10  C   UNL     1      33.299 -20.465 -20.405  0.00  0.00    -0.003 C 
ATOM     11  C   UNL     1      35.962 -21.014 -19.781  0.00  0.00    -0.000 C 
ATOM     12  C   UNL     1      33.607 -21.461 -19.478  0.00  0.00    -0.000 C 
ATOM     13  C   UNL     1      34.939 -21.735 -19.167  0.00  0.00    -0.000 C 
ENDBRANCH   1   8
BRANCH   1  14
ATOM     14  S   UNL     1      35.179 -18.684 -23.431  0.00  0.00    +0.058 S 
ATOM     15  O   UNL     1      35.363 -20.111 -23.807  0.00  0.00    -0.255 OA
BRANCH  14  16
ATOM     16  C   UNL     1      34.011 -17.938 -24.590  0.00  0.00    +0.177 C 
BRANCH  16  19
ATOM     17  O   UNL     1      34.086 -16.062 -26.091  0.00  0.00    -0.274 OA
ATOM     18  N   UNL     1      35.556 -16.104 -24.327  0.00  0.00    -0.328 N 
ATOM     19  C   UNL     1      34.537 -16.619 -25.094  0.00  0.00    +0.233 C 
ATOM     20  H   UNL     1      35.970 -15.245 -24.570  0.00  0.00    +0.145 HD
ATOM     21  H   UNL     1      35.873 -16.596 -23.534  0.00  0.00    +0.145 HD
ENDBRANCH  16  19
ENDBRANCH  14  16
ENDBRANCH   1  14
TORSDOF 5
ENDMDL
MODEL 2
REMARK VINA RESULT:      -8.0      7.601     10.276
REMARK  Name = 4236
REMARK  5 active torsions:
REMARK  status: ('A' for Active; 'I' for Inactive)
REMARK    1  A    between atoms: C_1  and  C_2
REMARK    2  A    between atoms: C_1  and  C_8
REMARK    3  A    between atoms: C_1  and  S_14
REMARK    4  A    between atoms: S_14  and  C_16
REMARK    5  A    between atoms: C_16  and  C_19
REMARK                            x       y       z     vdW  Elec       q    Type
REMARK                         _______ _______ _______ _____ _____    ______ ____
ROOT
ATOM      1  C   UNL     1      34.325 -23.495 -14.920  0.00  0.00    +0.124 C 
ENDROOT
BRANCH   1   2
ATOM      2  C   UNL     1      32.871 -23.683 -14.648  0.00  0.00    -0.006 C 
ATOM      3  C   UNL     1      32.408 -24.895 -14.136  0.00  0.00    -0.003 C 
ATOM      4  C   UNL     1      31.973 -22.648 -14.906  0.00  0.00    -0.003 C 
ATOM      5  C   UNL     1      31.048 -25.072 -13.881  0.00  0.00    -0.000 C 
ATOM      6  C   UNL     1      30.614 -22.823 -14.651  0.00  0.00    -0.000 C 
ATOM      7  C   UNL     1      30.151 -24.035 -14.139  0.00  0.00    -0.000 C 
ENDBRANCH   1   2
BRANCH   1   8
ATOM      8  C   UNL     1      34.641 -22.999 -16.330  0.00  0.00    -0.006 C 
ATOM      9  C   UNL     1      33.723 -23.223 -17.332  0.00  0.00    -0.003 C 
ATOM     10  C   UNL     1      35.833 -22.346 -16.549  0.00  0.00    -0.003 C 
ATOM     11  C   UNL     1      34.012 -22.771 -18.618  0.00  0.00    -0.000 C 
ATOM     12  C   UNL     1      36.123 -21.893 -17.837  0.00  0.00    -0.000 C 
ATOM     13  C   UNL     1      35.211 -22.106 -18.871  0.00  0.00    -0.000 C 
ENDBRANCH   1   8
BRANCH   1  14
ATOM     14  S   UNL     1      35.350 -24.972 -14.476  0.00  0.00    +0.058 S 
ATOM     15  O   UNL     1      36.176 -25.274 -15.676  0.00  0.00    -0.255 OA
BRANCH  14  16
ATOM     16  C   UNL     1      36.378 -24.076 -13.291  0.00  0.00    +0.177 C 
BRANCH  16  19
ATOM     17  O   UNL     1      37.553 -24.678 -11.282  0.00  0.00    -0.274 OA
ATOM     18  N   UNL     1      37.044 -26.339 -12.786  0.00  0.00    -0.328 N 
ATOM     19  C   UNL     1      37.052 -25.036 -12.345  0.00  0.00    +0.233 C 
ATOM     20  H   UNL     1      37.460 -27.045 -12.241  0.00  0.00    +0.145 HD
ATOM     21  H   UNL     1      36.623 -26.565 -13.647  0.00  0.00    +0.145 HD
ENDBRANCH  16  19
ENDBRANCH  14  16
ENDBRANCH   1  14
TORSDOF 5
ENDMDL
MODEL 3
REMARK VINA RESULT:      -8.0      7.980     10.313
REMARK  Name = 4236
REMARK  5 active torsions:
REMARK  status: ('A' for Active; 'I' for Inactive)
REMARK    1  A    between atoms: C_1  and  C_2
REMARK    2  A    between atoms: C_1  and  C_8
REMARK    3  A    between atoms: C_1  and  S_14
REMARK    4  A    between atoms: S_14  and  C_16
REMARK    5  A    between atoms: C_16  and  C_19
REMARK                            x       y       z     vdW  Elec       q    Type
REMARK                         _______ _______ _______ _____ _____    ______ ____
ROOT
ATOM      1  C   UNL     1      34.383 -24.031 -14.956  0.00  0.00    +0.124 C 
ENDROOT
BRANCH   1   2
ATOM      2  C   UNL     1      34.760 -23.297 -16.198  0.00  0.00    -0.006 C 
ATOM      3  C   UNL     1      35.994 -22.652 -16.280  0.00  0.00    -0.003 C 
ATOM      4  C   UNL     1      33.879 -23.255 -17.277  0.00  0.00    -0.003 C 
ATOM      5  C   UNL     1      36.348 -21.966 -17.441  0.00  0.00    -0.000 C 
ATOM      6  C   UNL     1      34.231 -22.569 -18.439  0.00  0.00    -0.000 C 
ATOM      7  C   UNL     1      35.466 -21.924 -18.521  0.00  0.00    -0.000 C 
ENDBRANCH   1   2
BRANCH   1   8
ATOM      8  C   UNL     1      32.895 -23.966 -14.615  0.00  0.00    -0.006 C 
ATOM      9  C   UNL     1      32.233 -22.769 -14.770  0.00  0.00    -0.003 C 
ATOM     10  C   UNL     1      32.270 -25.107 -14.164  0.00  0.00    -0.003 C 
ATOM     11  C   UNL     1      30.875 -22.709 -14.458  0.00  0.00    -0.000 C 
ATOM     12  C   UNL     1      30.911 -25.048 -13.852  0.00  0.00    -0.000 C 
ATOM     13  C   UNL     1      30.214 -23.848 -13.999  0.00  0.00    -0.000 C 
ENDBRANCH   1   8
BRANCH   1  14
ATOM     14  S   UNL     1      35.433 -23.588 -13.496  0.00  0.00    +0.058 S 
ATOM     15  O   UNL     1      34.562 -23.748 -12.300  0.00  0.00    -0.255 OA
BRANCH  14  16
ATOM     16  C   UNL     1      36.484 -25.050 -13.632  0.00  0.00    +0.177 C 
BRANCH  16  19
ATOM     17  O   UNL     1      37.077 -26.530 -11.832  0.00  0.00    -0.274 OA
ATOM     18  N   UNL     1      37.657 -24.313 -11.656  0.00  0.00    -0.328 N 
ATOM     19  C   UNL     1      37.090 -25.392 -12.295  0.00  0.00    +0.233 C 
ATOM     20  H   UNL     1      38.080 -24.430 -10.776  0.00  0.00    +0.145 HD
ATOM     21  H   UNL     1      37.639 -23.425 -12.081  0.00  0.00    +0.145 HD
ENDBRANCH  16  19
ENDBRANCH  14  16
ENDBRANCH   1  14
TORSDOF 5
ENDMDL
MODEL 4
REMARK VINA RESULT:      -8.0      7.988     10.381
REMARK  Name = 4236
REMARK  5 active torsions:
REMARK  status: ('A' for Active; 'I' for Inactive)
REMARK    1  A    between atoms: C_1  and  C_2
REMARK    2  A    between atoms: C_1  and  C_8
REMARK    3  A    between atoms: C_1  and  S_14
REMARK    4  A    between atoms: S_14  and  C_16
REMARK    5  A    between atoms: C_16  and  C_19
REMARK                            x       y       z     vdW  Elec       q    Type
REMARK                         _______ _______ _______ _____ _____    ______ ____
ROOT
ATOM      1  C   UNL     1      34.322 -24.036 -14.954  0.00  0.00    +0.124 C 
ENDROOT
BRANCH   1   2
ATOM      2  C   UNL     1      34.709 -23.307 -16.197  0.00  0.00    -0.006 C 
ATOM      3  C   UNL     1      33.842 -23.280 -17.289  0.00  0.00    -0.003 C 
ATOM      4  C   UNL     1      35.939 -22.653 -16.266  0.00  0.00    -0.003 C 
ATOM      5  C   UNL     1      34.204 -22.599 -18.450  0.00  0.00    -0.000 C 
ATOM      6  C   UNL     1      36.301 -21.971 -17.427  0.00  0.00    -0.000 C 
ATOM      7  C   UNL     1      35.434 -21.945 -18.520  0.00  0.00    -0.000 C 
ENDBRANCH   1   2
BRANCH   1   8
ATOM      8  C   UNL     1      32.831 -23.968 -14.626  0.00  0.00    -0.006 C 
ATOM      9  C   UNL     1      32.204 -25.102 -14.160  0.00  0.00    -0.003 C 
ATOM     10  C   UNL     1      32.168 -22.775 -14.809  0.00  0.00    -0.003 C 
ATOM     11  C   UNL     1      30.843 -25.040 -13.862  0.00  0.00    -0.000 C 
ATOM     12  C   UNL     1      30.806 -22.713 -14.510  0.00  0.00    -0.000 C 
ATOM     13  C   UNL     1      30.144 -23.846 -14.037  0.00  0.00    -0.000 C 
ENDBRANCH   1   8
BRANCH   1  14
ATOM     14  S   UNL     1      35.359 -23.588 -13.488  0.00  0.00    +0.058 S 
ATOM     15  O   UNL     1      34.487 -23.768 -12.297  0.00  0.00    -0.255 OA
BRANCH  14  16
ATOM     16  C   UNL     1      36.432 -25.034 -13.629  0.00  0.00    +0.177 C 
BRANCH  16  19
ATOM     17  O   UNL     1      37.063 -26.534 -11.860  0.00  0.00    -0.274 OA
ATOM     18  N   UNL     1      37.521 -24.297 -11.606  0.00  0.00    -0.328 N 
ATOM     19  C   UNL     1      37.026 -25.384 -12.289  0.00  0.00    +0.233 C 
ATOM     20  H   UNL     1      37.931 -24.418 -10.720  0.00  0.00    +0.145 HD
ATOM     21  H   UNL     1      37.465 -23.398 -12.005  0.00  0.00    +0.145 HD
ENDBRANCH  16  19
ENDBRANCH  14  16
ENDBRANCH   1  14
TORSDOF 5
ENDMDL
MODEL 5
REMARK VINA RESULT:      -7.8      7.407      9.552
REMARK  Name = 4236
REMARK  5 active torsions:
REMARK  status: ('A' for Active; 'I' for Inactive)
REMARK    1  A    between atoms: C_1  and  C_2
REMARK    2  A    between atoms: C_1  and  C_8
REMARK    3  A    between atoms: C_1  and  S_14
REMARK    4  A    between atoms: S_14  and  C_16
REMARK    5  A    between atoms: C_16  and  C_19
REMARK                            x       y       z     vdW  Elec       q    Type
REMARK                         _______ _______ _______ _____ _____    ______ ____
ROOT
ATOM      1  C   UNL     1      34.586 -23.886 -15.538  0.00  0.00    +0.124 C 
ENDROOT
BRANCH   1   2
ATOM      2  C   UNL     1      34.683 -23.154 -16.834  0.00  0.00    -0.006 C 
ATOM      3  C   UNL     1      35.816 -22.395 -17.123  0.00  0.00    -0.003 C 
ATOM      4  C   UNL     1      33.640 -23.228 -17.756  0.00  0.00    -0.003 C 
ATOM      5  C   UNL     1      35.908 -21.710 -18.334  0.00  0.00    -0.000 C 
ATOM      6  C   UNL     1      33.730 -22.544 -18.968  0.00  0.00    -0.000 C 
ATOM      7  C   UNL     1      34.864 -21.784 -19.256  0.00  0.00    -0.000 C 
ENDBRANCH   1   2
BRANCH   1   8
ATOM      8  C   UNL     1      33.197 -23.855 -14.901  0.00  0.00    -0.006 C 
ATOM      9  C   UNL     1      32.466 -22.690 -14.965  0.00  0.00    -0.003 C 
ATOM     10  C   UNL     1      32.728 -24.994 -14.285  0.00  0.00    -0.003 C 
ATOM     11  C   UNL     1      31.200 -22.662 -14.383  0.00  0.00    -0.000 C 
ATOM     12  C   UNL     1      31.460 -24.966 -13.703  0.00  0.00    -0.000 C 
ATOM     13  C   UNL     1      30.696 -23.799 -13.752  0.00  0.00    -0.000 C 
ENDBRANCH   1   8
BRANCH   1  14
ATOM     14  S   UNL     1      35.899 -23.404 -14.324  0.00  0.00    +0.058 S 
ATOM     15  O   UNL     1      35.430 -23.888 -12.998  0.00  0.00    -0.255 OA
BRANCH  14  16
ATOM     16  C   UNL     1      37.114 -24.580 -14.960  0.00  0.00    +0.177 C 
BRANCH  16  19
ATOM     17  O   UNL     1      36.217 -26.669 -15.740  0.00  0.00    -0.274 OA
ATOM     18  N   UNL     1      36.665 -26.446 -13.498  0.00  0.00    -0.328 N 
ATOM     19  C   UNL     1      36.618 -25.993 -14.796  0.00  0.00    +0.233 C 
ATOM     20  H   UNL     1      36.364 -27.357 -13.283  0.00  0.00    +0.145 HD
ATOM     21  H   UNL     1      37.002 -25.857 -12.783  0.00  0.00    +0.145 HD
ENDBRANCH  16  19
ENDBRANCH  14  16
ENDBRANCH   1  14
TORSDOF 5
ENDMDL
MODEL 6
REMARK VINA RESULT:      -7.8      1.003      4.203
REMARK  Name = 4236
REMARK  5 active torsions:
REMARK  status: ('A' for Active; 'I' for Inactive)
REMARK    1  A    between atoms: C_1  and  C_2
REMARK    2  A    between atoms: C_1  and  C_8
REMARK    3  A    between atoms: C_1  and  S_14
REMARK    4  A    between atoms: S_14  and  C_16
REMARK    5  A    between atoms: C_16  and  C_19
REMARK                            x       y       z     vdW  Elec       q    Type
REMARK                         _______ _______ _______ _____ _____    ______ ____
ROOT
ATOM      1  C   UNL     1      35.283 -18.236 -21.475  0.00  0.00    +0.124 C 
ENDROOT
BRANCH   1   2
ATOM      2  C   UNL     1      34.943 -19.506 -20.770  0.00  0.00    -0.006 C 
ATOM      3  C   UNL     1      35.959 -20.331 -20.290  0.00  0.00    -0.003 C 
ATOM      4  C   UNL     1      33.608 -19.869 -20.592  0.00  0.00    -0.003 C 
ATOM      5  C   UNL     1      35.643 -21.518 -19.631  0.00  0.00    -0.000 C 
ATOM      6  C   UNL     1      33.290 -21.055 -19.932  0.00  0.00    -0.000 C 
ATOM      7  C   UNL     1      34.308 -21.880 -19.452  0.00  0.00    -0.000 C 
ENDBRANCH   1   2
BRANCH   1   8
ATOM      8  C   UNL     1      34.381 -17.057 -21.114  0.00  0.00    -0.006 C 
ATOM      9  C   UNL     1      34.965 -15.865 -20.751  0.00  0.00    -0.003 C 
ATOM     10  C   UNL     1      33.015 -17.230 -21.165  0.00  0.00    -0.003 C 
ATOM     11  C   UNL     1      34.141 -14.789 -20.420  0.00  0.00    -0.000 C 
ATOM     12  C   UNL     1      32.191 -16.153 -20.835  0.00  0.00    -0.000 C 
ATOM     13  C   UNL     1      32.755 -14.933 -20.462  0.00  0.00    -0.000 C 
ENDBRANCH   1   8
BRANCH   1  14
ATOM     14  S   UNL     1      35.436 -18.435 -23.310  0.00  0.00    +0.058 S 
ATOM     15  O   UNL     1      34.146 -19.017 -23.769  0.00  0.00    -0.255 OA
BRANCH  14  16
ATOM     16  C   UNL     1      35.408 -16.661 -23.645  0.00  0.00    +0.177 C 
BRANCH  16  19
ATOM     17  O   UNL     1      34.703 -16.883 -25.932  0.00  0.00    -0.274 OA
ATOM     18  N   UNL     1      33.529 -15.458 -24.564  0.00  0.00    -0.328 N 
ATOM     19  C   UNL     1      34.532 -16.361 -24.834  0.00  0.00    +0.233 C 
ATOM     20  H   UNL     1      32.901 -15.194 -25.274  0.00  0.00    +0.145 HD
ATOM     21  H   UNL     1      33.440 -15.076 -23.660  0.00  0.00    +0.145 HD
ENDBRANCH  16  19
ENDBRANCH  14  16
ENDBRANCH   1  14
TORSDOF 5
ENDMDL
MODEL 7
REMARK VINA RESULT:      -7.6      7.031     10.228
REMARK  Name = 4236
REMARK  5 active torsions:
REMARK  status: ('A' for Active; 'I' for Inactive)
REMARK    1  A    between atoms: C_1  and  C_2
REMARK    2  A    between atoms: C_1  and  C_8
REMARK    3  A    between atoms: C_1  and  S_14
REMARK    4  A    between atoms: S_14  and  C_16
REMARK    5  A    between atoms: C_16  and  C_19
REMARK                            x       y       z     vdW  Elec       q    Type
REMARK                         _______ _______ _______ _____ _____    ______ ____
ROOT
ATOM      1  C   UNL     1      34.219 -23.955 -15.726  0.00  0.00    +0.124 C 
ENDROOT
BRANCH   1   2
ATOM      2  C   UNL     1      35.352 -24.314 -14.825  0.00  0.00    -0.006 C 
ATOM      3  C   UNL     1      35.733 -23.445 -13.803  0.00  0.00    -0.003 C 
ATOM      4  C   UNL     1      36.030 -25.519 -15.004  0.00  0.00    -0.003 C 
ATOM      5  C   UNL     1      36.792 -23.780 -12.959  0.00  0.00    -0.000 C 
ATOM      6  C   UNL     1      37.089 -25.856 -14.161  0.00  0.00    -0.000 C 
ATOM      7  C   UNL     1      37.470 -24.986 -13.139  0.00  0.00    -0.000 C 
ENDBRANCH   1   2
BRANCH   1   8
ATOM      8  C   UNL     1      34.623 -23.113 -16.935  0.00  0.00    -0.006 C 
ATOM      9  C   UNL     1      33.737 -22.991 -17.982  0.00  0.00    -0.003 C 
ATOM     10  C   UNL     1      35.859 -22.506 -16.935  0.00  0.00    -0.003 C 
ATOM     11  C   UNL     1      34.106 -22.224 -19.086  0.00  0.00    -0.000 C 
ATOM     12  C   UNL     1      36.228 -21.737 -18.040  0.00  0.00    -0.000 C 
ATOM     13  C   UNL     1      35.351 -21.596 -19.115  0.00  0.00    -0.000 C 
ENDBRANCH   1   8
BRANCH   1  14
ATOM     14  S   UNL     1      32.780 -23.210 -14.832  0.00  0.00    +0.058 S 
ATOM     15  O   UNL     1      31.720 -23.006 -15.856  0.00  0.00    -0.255 OA
BRANCH  14  16
ATOM     16  C   UNL     1      32.395 -24.714 -13.909  0.00  0.00    +0.177 C 
BRANCH  16  19
ATOM     17  O   UNL     1      30.500 -24.203 -12.521  0.00  0.00    -0.274 OA
ATOM     18  N   UNL     1      30.151 -25.429 -14.432  0.00  0.00    -0.328 N 
ATOM     19  C   UNL     1      30.936 -24.745 -13.533  0.00  0.00    +0.233 C 
ATOM     20  H   UNL     1      29.182 -25.508 -14.278  0.00  0.00    +0.145 HD
ATOM     21  H   UNL     1      30.558 -25.840 -15.229  0.00  0.00    +0.145 HD
ENDBRANCH  16  19
ENDBRANCH  14  16
ENDBRANCH   1  14
TORSDOF 5
ENDMDL
MODEL 8
REMARK VINA RESULT:      -7.6      2.502      3.802
REMARK  Name = 4236
REMARK  5 active torsions:
REMARK  status: ('A' for Active; 'I' for Inactive)
REMARK    1  A    between atoms: C_1  and  C_2
REMARK    2  A    between atoms: C_1  and  C_8
REMARK    3  A    between atoms: C_1  and  S_14
REMARK    4  A    between atoms: S_14  and  C_16
REMARK    5  A    between atoms: C_16  and  C_19
REMARK                            x       y       z     vdW  Elec       q    Type
REMARK                         _______ _______ _______ _____ _____    ______ ____
ROOT
ATOM      1  C   UNL     1      35.325 -17.443 -21.502  0.00  0.00    +0.124 C 
ENDROOT
BRANCH   1   2
ATOM      2  C   UNL     1      34.984 -17.384 -22.953  0.00  0.00    -0.006 C 
ATOM      3  C   UNL     1      35.022 -16.164 -23.629  0.00  0.00    -0.003 C 
ATOM      4  C   UNL     1      34.626 -18.547 -23.633  0.00  0.00    -0.003 C 
ATOM      5  C   UNL     1      34.703 -16.107 -24.985  0.00  0.00    -0.000 C 
ATOM      6  C   UNL     1      34.307 -18.491 -24.990  0.00  0.00    -0.000 C 
ATOM      7  C   UNL     1      34.345 -17.271 -25.666  0.00  0.00    -0.000 C 
ENDBRANCH   1   2
BRANCH   1   8
ATOM      8  C   UNL     1      35.238 -18.843 -20.894  0.00  0.00    -0.006 C 
ATOM      9  C   UNL     1      33.995 -19.400 -20.692  0.00  0.00    -0.003 C 
ATOM     10  C   UNL     1      36.406 -19.495 -20.569  0.00  0.00    -0.003 C 
ATOM     11  C   UNL     1      33.916 -20.676 -20.136  0.00  0.00    -0.000 C 
ATOM     12  C   UNL     1      36.327 -20.773 -20.013  0.00  0.00    -0.000 C 
ATOM     13  C   UNL     1      35.081 -21.363 -19.797  0.00  0.00    -0.000 C 
ENDBRANCH   1   8
BRANCH   1  14
ATOM     14  S   UNL     1      34.407 -16.202 -20.481  0.00  0.00    +0.058 S 
ATOM     15  O   UNL     1      35.180 -14.935 -20.580  0.00  0.00    -0.255 OA
BRANCH  14  16
ATOM     16  C   UNL     1      33.004 -16.101 -21.615  0.00  0.00    +0.177 C 
BRANCH  16  19
ATOM     17  O   UNL     1      32.184 -14.186 -22.815  0.00  0.00    -0.274 OA
ATOM     18  N   UNL     1      32.521 -13.990 -20.550  0.00  0.00    -0.328 N 
ATOM     19  C   UNL     1      32.531 -14.676 -21.743  0.00  0.00    +0.233 C 
ATOM     20  H   UNL     1      32.227 -13.051 -20.525  0.00  0.00    +0.145 HD
ATOM     21  H   UNL     1      32.807 -14.439 -19.721  0.00  0.00    +0.145 HD
ENDBRANCH  16  19
ENDBRANCH  14  16
ENDBRANCH   1  14
TORSDOF 5
ENDMDL
MODEL 9
REMARK VINA RESULT:      -7.5      7.504      9.589
REMARK  Name = 4236
REMARK  5 active torsions:
REMARK  status: ('A' for Active; 'I' for Inactive)
REMARK    1  A    between atoms: C_1  and  C_2
REMARK    2  A    between atoms: C_1  and  C_8
REMARK    3  A    between atoms: C_1  and  S_14
REMARK    4  A    between atoms: S_14  and  C_16
REMARK    5  A    between atoms: C_16  and  C_19
REMARK                            x       y       z     vdW  Elec       q    Type
REMARK                         _______ _______ _______ _____ _____    ______ ____
ROOT
ATOM      1  C   UNL     1      34.521 -23.404 -14.853  0.00  0.00    +0.124 C 
ENDROOT
BRANCH   1   2
ATOM      2  C   UNL     1      34.656 -22.984 -16.277  0.00  0.00    -0.006 C 
ATOM      3  C   UNL     1      35.823 -22.357 -16.712  0.00  0.00    -0.003 C 
ATOM      4  C   UNL     1      33.615 -23.219 -17.175  0.00  0.00    -0.003 C 
ATOM      5  C   UNL     1      35.950 -21.964 -18.044  0.00  0.00    -0.000 C 
ATOM      6  C   UNL     1      33.741 -22.828 -18.507  0.00  0.00    -0.000 C 
ATOM      7  C   UNL     1      34.908 -22.199 -18.942  0.00  0.00    -0.000 C 
ENDBRANCH   1   2
BRANCH   1   8
ATOM      8  C   UNL     1      35.732 -24.155 -14.302  0.00  0.00    -0.006 C 
ATOM      9  C   UNL     1      36.076 -25.362 -14.868  0.00  0.00    -0.003 C 
ATOM     10  C   UNL     1      36.437 -23.597 -13.258  0.00  0.00    -0.003 C 
ATOM     11  C   UNL     1      37.181 -26.048 -14.365  0.00  0.00    -0.000 C 
ATOM     12  C   UNL     1      37.543 -24.283 -12.755  0.00  0.00    -0.000 C 
ATOM     13  C   UNL     1      37.914 -25.508 -13.309  0.00  0.00    -0.000 C 
ENDBRANCH   1   8
BRANCH   1  14
ATOM     14  S   UNL     1      32.945 -24.311 -14.502  0.00  0.00    +0.058 S 
ATOM     15  O   UNL     1      33.057 -24.802 -13.102  0.00  0.00    -0.255 OA
BRANCH  14  16
ATOM     16  C   UNL     1      31.925 -22.821 -14.500  0.00  0.00    +0.177 C 
BRANCH  16  19
ATOM     17  O   UNL     1      29.588 -22.405 -14.880  0.00  0.00    -0.274 OA
ATOM     18  N   UNL     1      30.209 -24.458 -14.057  0.00  0.00    -0.328 N 
ATOM     19  C   UNL     1      30.462 -23.182 -14.505  0.00  0.00    +0.233 C 
ATOM     20  H   UNL     1      29.284 -24.793 -14.021  0.00  0.00    +0.145 HD
ATOM     21  H   UNL     1      30.954 -25.037 -13.772  0.00  0.00    +0.145 HD
ENDBRANCH  16  19
ENDBRANCH  14  16
ENDBRANCH   1  14
TORSDOF 5
ENDMDL
