MODEL 1
REMARK VINA RESULT:      -9.6      0.000      0.000
REMARK  Name = 3085218
REMARK  0 active torsions:
REMARK  status: ('A' for Active; 'I' for Inactive)
REMARK                            x       y       z     vdW  Elec       q    Type
REMARK                         _______ _______ _______ _____ _____    ______ ____
ROOT
ATOM      1  N   UNL     1      31.939  -7.792 -21.679  0.00  0.00    -0.296 N 
ATOM      2  N   UNL     1      32.115  -5.292 -23.041  0.00  0.00    +0.388 N 
ATOM      3  N   UNL     1      32.006  -8.852 -19.528  0.00  0.00    -0.229 NA
ATOM      4  C   UNL     1      33.000  -7.602 -22.695  0.00  0.00    +0.076 C 
ATOM      5  C   UNL     1      32.505  -6.542 -23.713  0.00  0.00    -0.053 C 
ATOM      6  C   UNL     1      31.485  -6.561 -21.022  0.00  0.00    +0.070 C 
ATOM      7  C   UNL     1      31.042  -5.545 -22.075  0.00  0.00    -0.056 C 
ATOM      8  C   UNL     1      33.522  -8.812 -23.470  0.00  0.00    -0.010 C 
ATOM      9  C   UNL     1      31.892  -8.944 -20.882  0.00  0.00    +0.128 C 
ATOM     10  C   UNL     1      32.819 -10.016 -23.663  0.00  0.00    -0.020 C 
ATOM     11  C   UNL     1      31.499 -10.268 -22.990  0.00  0.00    +0.055 C 
ATOM     12  C   UNL     1      31.652 -10.182 -21.496  0.00  0.00    +0.014 C 
ATOM     13  C   UNL     1      31.698  -4.291 -24.021  0.00  0.00    -0.101 C 
ATOM     14  C   UNL     1      34.792  -8.684 -24.073  0.00  0.00    -0.003 C 
ATOM     15  C   UNL     1      33.381 -11.038 -24.451  0.00  0.00    -0.004 C 
ATOM     16  C   UNL     1      31.574 -11.332 -20.703  0.00  0.00    +0.000 C 
ATOM     17  C   UNL     1      35.341  -9.705 -24.850  0.00  0.00    -0.000 C 
ATOM     18  C   UNL     1      34.632 -10.881 -25.042  0.00  0.00    -0.000 C 
ATOM     19  C   UNL     1      31.712 -11.237 -19.327  0.00  0.00    +0.020 C 
ATOM     20  C   UNL     1      31.921  -9.983 -18.793  0.00  0.00    +0.100 C 
ATOM     21  H   UNL     1      32.926  -4.931 -22.538  0.00  0.00    -0.080 HD
ENDROOT
TORSDOF 0
ENDMDL
MODEL 2
REMARK VINA RESULT:      -9.3     14.220     17.173
REMARK  Name = 3085218
REMARK  0 active torsions:
REMARK  status: ('A' for Active; 'I' for Inactive)
REMARK                            x       y       z     vdW  Elec       q    Type
REMARK                         _______ _______ _______ _____ _____    ______ ____
ROOT
ATOM      1  N   UNL     1      33.931 -23.291 -16.337  0.00  0.00    -0.296 N 
ATOM      2  N   UNL     1      32.051 -24.510 -14.573  0.00  0.00    +0.388 N 
ATOM      3  N   UNL     1      34.320 -22.604 -18.603  0.00  0.00    -0.229 NA
ATOM      4  C   UNL     1      34.316 -24.531 -15.625  0.00  0.00    +0.076 C 
ATOM      5  C   UNL     1      33.496 -24.603 -14.311  0.00  0.00    -0.053 C 
ATOM      6  C   UNL     1      32.491 -23.134 -16.572  0.00  0.00    +0.070 C 
ATOM      7  C   UNL     1      31.735 -23.247 -15.248  0.00  0.00    -0.056 C 
ATOM      8  C   UNL     1      35.788 -24.780 -15.293  0.00  0.00    -0.010 C 
ATOM      9  C   UNL     1      34.759 -22.729 -17.319  0.00  0.00    +0.128 C 
ATOM     10  C   UNL     1      36.773 -23.781 -15.181  0.00  0.00    -0.020 C 
ATOM     11  C   UNL     1      36.476 -22.346 -15.515  0.00  0.00    +0.055 C 
ATOM     12  C   UNL     1      36.014 -22.230 -16.942  0.00  0.00    +0.014 C 
ATOM     13  C   UNL     1      31.294 -24.628 -13.327  0.00  0.00    -0.101 C 
ATOM     14  C   UNL     1      36.167 -26.115 -15.037  0.00  0.00    -0.003 C 
ATOM     15  C   UNL     1      38.085 -24.130 -14.806  0.00  0.00    -0.004 C 
ATOM     16  C   UNL     1      36.833 -21.641 -17.911  0.00  0.00    +0.000 C 
ATOM     17  C   UNL     1      37.471 -26.450 -14.671  0.00  0.00    -0.000 C 
ATOM     18  C   UNL     1      38.430 -25.454 -14.551  0.00  0.00    -0.000 C 
ATOM     19  C   UNL     1      36.392 -21.535 -19.221  0.00  0.00    +0.020 C 
ATOM     20  C   UNL     1      35.137 -22.026 -19.512  0.00  0.00    +0.100 C 
ATOM     21  H   UNL     1      31.784 -25.281 -15.185  0.00  0.00    -0.080 HD
ENDROOT
TORSDOF 0
ENDMDL
MODEL 3
REMARK VINA RESULT:      -9.2      3.942      6.574
REMARK  Name = 3085218
REMARK  0 active torsions:
REMARK  status: ('A' for Active; 'I' for Inactive)
REMARK                            x       y       z     vdW  Elec       q    Type
REMARK                         _______ _______ _______ _____ _____    ______ ____
ROOT
ATOM      1  N   UNL     1      33.128 -13.746 -22.108  0.00  0.00    -0.296 N 
ATOM      2  N   UNL     1      34.312 -16.329 -21.874  0.00  0.00    +0.388 N 
ATOM      3  N   UNL     1      31.384 -12.316 -21.289  0.00  0.00    -0.229 NA
ATOM      4  C   UNL     1      33.176 -14.623 -23.300  0.00  0.00    +0.076 C 
ATOM      5  C   UNL     1      34.383 -15.583 -23.140  0.00  0.00    -0.053 C 
ATOM      6  C   UNL     1      33.108 -14.451 -20.822  0.00  0.00    +0.070 C 
ATOM      7  C   UNL     1      34.300 -15.404 -20.736  0.00  0.00    -0.056 C 
ATOM      8  C   UNL     1      33.238 -13.994 -24.693  0.00  0.00    -0.010 C 
ATOM      9  C   UNL     1      32.435 -12.527 -22.129  0.00  0.00    +0.128 C 
ATOM     10  C   UNL     1      33.702 -12.696 -24.976  0.00  0.00    -0.020 C 
ATOM     11  C   UNL     1      34.071 -11.739 -23.876  0.00  0.00    +0.055 C 
ATOM     12  C   UNL     1      32.889 -11.504 -22.975  0.00  0.00    +0.014 C 
ATOM     13  C   UNL     1      35.432 -17.263 -21.763  0.00  0.00    -0.101 C 
ATOM     14  C   UNL     1      32.838 -14.804 -25.777  0.00  0.00    -0.003 C 
ATOM     15  C   UNL     1      33.771 -12.251 -26.310  0.00  0.00    -0.004 C 
ATOM     16  C   UNL     1      32.221 -10.275 -22.978  0.00  0.00    +0.000 C 
ATOM     17  C   UNL     1      32.907 -14.351 -27.095  0.00  0.00    -0.000 C 
ATOM     18  C   UNL     1      33.378 -13.074 -27.361  0.00  0.00    -0.000 C 
ATOM     19  C   UNL     1      31.138 -10.071 -22.138  0.00  0.00    +0.020 C 
ATOM     20  C   UNL     1      30.764 -11.115 -21.317  0.00  0.00    +0.100 C 
ATOM     21  H   UNL     1      33.444 -16.866 -21.865  0.00  0.00    -0.080 HD
ENDROOT
TORSDOF 0
ENDMDL
MODEL 4
REMARK VINA RESULT:      -8.8      1.926      5.012
REMARK  Name = 3085218
REMARK  0 active torsions:
REMARK  status: ('A' for Active; 'I' for Inactive)
REMARK                            x       y       z     vdW  Elec       q    Type
REMARK                         _______ _______ _______ _____ _____    ______ ____
ROOT
ATOM      1  N   UNL     1      32.319 -10.358 -22.930  0.00  0.00    -0.296 N 
ATOM      2  N   UNL     1      32.048 -13.085 -22.138  0.00  0.00    +0.388 N 
ATOM      3  N   UNL     1      31.141  -8.294 -23.255  0.00  0.00    -0.229 NA
ATOM      4  C   UNL     1      32.683 -11.424 -23.892  0.00  0.00    +0.076 C 
ATOM      5  C   UNL     1      33.101 -12.678 -23.082  0.00  0.00    -0.053 C 
ATOM      6  C   UNL     1      31.308 -10.740 -21.937  0.00  0.00    +0.070 C 
ATOM      7  C   UNL     1      31.760 -11.999 -21.195  0.00  0.00    -0.056 C 
ATOM      8  C   UNL     1      33.754 -11.148 -24.947  0.00  0.00    -0.010 C 
ATOM      9  C   UNL     1      32.298  -9.010 -23.311  0.00  0.00    +0.128 C 
ATOM     10  C   UNL     1      34.757 -10.166 -24.846  0.00  0.00    -0.020 C 
ATOM     11  C   UNL     1      34.781  -9.185 -23.707  0.00  0.00    +0.055 C 
ATOM     12  C   UNL     1      33.503  -8.391 -23.679  0.00  0.00    +0.014 C 
ATOM     13  C   UNL     1      32.441 -14.295 -21.419  0.00  0.00    -0.101 C 
ATOM     14  C   UNL     1      33.756 -11.980 -26.087  0.00  0.00    -0.003 C 
ATOM     15  C   UNL     1      35.729 -10.049 -25.858  0.00  0.00    -0.004 C 
ATOM     16  C   UNL     1      33.494  -7.038 -24.031  0.00  0.00    +0.000 C 
ATOM     17  C   UNL     1      34.722 -11.854 -27.086  0.00  0.00    -0.000 C 
ATOM     18  C   UNL     1      35.712 -10.890 -26.968  0.00  0.00    -0.000 C 
ATOM     19  C   UNL     1      32.310  -6.318 -23.994  0.00  0.00    +0.020 C 
ATOM     20  C   UNL     1      31.171  -6.987 -23.599  0.00  0.00    +0.100 C 
ATOM     21  H   UNL     1      31.200 -13.287 -22.668  0.00  0.00    -0.080 HD
ENDROOT
TORSDOF 0
ENDMDL
MODEL 5
REMARK VINA RESULT:      -8.6      1.227      4.633
REMARK  Name = 3085218
REMARK  0 active torsions:
REMARK  status: ('A' for Active; 'I' for Inactive)
REMARK                            x       y       z     vdW  Elec       q    Type
REMARK                         _______ _______ _______ _____ _____    ______ ____
ROOT
ATOM      1  N   UNL     1      32.475  -7.519 -22.657  0.00  0.00    -0.296 N 
ATOM      2  N   UNL     1      31.747  -9.119 -20.411  0.00  0.00    +0.388 N 
ATOM      3  N   UNL     1      31.743  -5.772 -24.129  0.00  0.00    -0.229 NA
ATOM      4  C   UNL     1      32.430  -8.992 -22.810  0.00  0.00    +0.076 C 
ATOM      5  C   UNL     1      32.691  -9.626 -21.419  0.00  0.00    -0.053 C 
ATOM      6  C   UNL     1      31.585  -6.977 -21.625  0.00  0.00    +0.070 C 
ATOM      7  C   UNL     1      31.866  -7.662 -20.287  0.00  0.00    -0.056 C 
ATOM      8  C   UNL     1      33.345  -9.669 -23.831  0.00  0.00    -0.010 C 
ATOM      9  C   UNL     1      32.689  -6.680 -23.759  0.00  0.00    +0.128 C 
ATOM     10  C   UNL     1      34.542  -9.124 -24.333  0.00  0.00    -0.020 C 
ATOM     11  C   UNL     1      34.970  -7.725 -23.990  0.00  0.00    +0.055 C 
ATOM     12  C   UNL     1      33.921  -6.739 -24.427  0.00  0.00    +0.014 C 
ATOM     13  C   UNL     1      31.978  -9.764 -19.119  0.00  0.00    -0.101 C 
ATOM     14  C   UNL     1      32.974 -10.960 -24.263  0.00  0.00    -0.003 C 
ATOM     15  C   UNL     1      35.333  -9.873 -25.225  0.00  0.00    -0.004 C 
ATOM     16  C   UNL     1      34.152  -5.882 -25.508  0.00  0.00    +0.000 C 
ATOM     17  C   UNL     1      33.764 -11.692 -25.150  0.00  0.00    -0.000 C 
ATOM     18  C   UNL     1      34.947 -11.149 -25.628  0.00  0.00    -0.000 C 
ATOM     19  C   UNL     1      33.179  -4.974 -25.895  0.00  0.00    +0.020 C 
ATOM     20  C   UNL     1      32.002  -4.958 -25.176  0.00  0.00    +0.100 C 
ATOM     21  H   UNL     1      30.799  -9.342 -20.716  0.00  0.00    -0.080 HD
ENDROOT
TORSDOF 0
ENDMDL
MODEL 6
REMARK VINA RESULT:      -8.4     13.481     16.711
REMARK  Name = 3085218
REMARK  0 active torsions:
REMARK  status: ('A' for Active; 'I' for Inactive)
REMARK                            x       y       z     vdW  Elec       q    Type
REMARK                         _______ _______ _______ _____ _____    ______ ____
ROOT
ATOM      1  N   UNL     1      35.974 -23.155 -16.140  0.00  0.00    -0.296 N 
ATOM      2  N   UNL     1      36.631 -24.454 -13.688  0.00  0.00    +0.388 N 
ATOM      3  N   UNL     1      36.637 -21.434 -17.675  0.00  0.00    -0.229 NA
ATOM      4  C   UNL     1      34.992 -23.134 -15.032  0.00  0.00    +0.076 C 
ATOM      5  C   UNL     1      35.236 -24.386 -14.151  0.00  0.00    -0.053 C 
ATOM      6  C   UNL     1      37.376 -23.274 -15.722  0.00  0.00    +0.070 C 
ATOM      7  C   UNL     1      37.547 -24.505 -14.831  0.00  0.00    -0.056 C 
ATOM      8  C   UNL     1      33.499 -23.050 -15.354  0.00  0.00    -0.010 C 
ATOM      9  C   UNL     1      35.765 -22.416 -17.313  0.00  0.00    +0.128 C 
ATOM     10  C   UNL     1      32.910 -23.437 -16.572  0.00  0.00    -0.020 C 
ATOM     11  C   UNL     1      33.747 -23.862 -17.747  0.00  0.00    +0.055 C 
ATOM     12  C   UNL     1      34.686 -22.755 -18.143  0.00  0.00    +0.014 C 
ATOM     13  C   UNL     1      36.828 -25.615 -12.820  0.00  0.00    -0.101 C 
ATOM     14  C   UNL     1      32.650 -22.589 -14.325  0.00  0.00    -0.003 C 
ATOM     15  C   UNL     1      31.512 -23.372 -16.727  0.00  0.00    -0.004 C 
ATOM     16  C   UNL     1      34.489 -22.042 -19.330  0.00  0.00    +0.000 C 
ATOM     17  C   UNL     1      31.266 -22.525 -14.491  0.00  0.00    -0.000 C 
ATOM     18  C   UNL     1      30.697 -22.922 -15.692  0.00  0.00    -0.000 C 
ATOM     19  C   UNL     1      35.365 -21.029 -19.685  0.00  0.00    +0.020 C 
ATOM     20  C   UNL     1      36.417 -20.769 -18.831  0.00  0.00    +0.100 C 
ATOM     21  H   UNL     1      36.832 -23.612 -13.148  0.00  0.00    -0.080 HD
ENDROOT
TORSDOF 0
ENDMDL
MODEL 7
REMARK VINA RESULT:      -8.3      3.270      6.313
REMARK  Name = 3085218
REMARK  0 active torsions:
REMARK  status: ('A' for Active; 'I' for Inactive)
REMARK                            x       y       z     vdW  Elec       q    Type
REMARK                         _______ _______ _______ _____ _____    ______ ____
ROOT
ATOM      1  N   UNL     1      33.542 -11.833 -24.854  0.00  0.00    -0.296 N 
ATOM      2  N   UNL     1      33.386 -14.317 -26.245  0.00  0.00    +0.388 N 
ATOM      3  N   UNL     1      34.787  -9.794 -24.633  0.00  0.00    -0.229 NA
ATOM      4  C   UNL     1      33.610 -13.094 -24.080  0.00  0.00    +0.076 C 
ATOM      5  C   UNL     1      32.856 -14.188 -24.879  0.00  0.00    -0.053 C 
ATOM      6  C   UNL     1      34.013 -11.931 -26.239  0.00  0.00    +0.070 C 
ATOM      7  C   UNL     1      33.258 -13.046 -26.965  0.00  0.00    -0.056 C 
ATOM      8  C   UNL     1      33.110 -13.116 -22.635  0.00  0.00    -0.010 C 
ATOM      9  C   UNL     1      33.754 -10.590 -24.241  0.00  0.00    +0.128 C 
ATOM     10  C   UNL     1      32.184 -12.210 -22.085  0.00  0.00    -0.020 C 
ATOM     11  C   UNL     1      31.687 -11.025 -22.866  0.00  0.00    +0.055 C 
ATOM     12  C   UNL     1      32.842 -10.150 -23.270  0.00  0.00    +0.014 C 
ATOM     13  C   UNL     1      32.695 -15.385 -26.966  0.00  0.00    -0.101 C 
ATOM     14  C   UNL     1      33.587 -14.157 -21.810  0.00  0.00    -0.003 C 
ATOM     15  C   UNL     1      31.750 -12.372 -20.755  0.00  0.00    -0.004 C 
ATOM     16  C   UNL     1      33.031  -8.897 -22.676  0.00  0.00    +0.000 C 
ATOM     17  C   UNL     1      33.153 -14.306 -20.492  0.00  0.00    -0.000 C 
ATOM     18  C   UNL     1      32.230 -13.414 -19.966  0.00  0.00    -0.000 C 
ATOM     19  C   UNL     1      34.095  -8.098 -23.062  0.00  0.00    +0.020 C 
ATOM     20  C   UNL     1      34.936  -8.588 -24.040  0.00  0.00    +0.100 C 
ATOM     21  H   UNL     1      34.376 -14.558 -26.186  0.00  0.00    -0.080 HD
ENDROOT
TORSDOF 0
ENDMDL
MODEL 8
REMARK VINA RESULT:      -8.2      4.124      6.257
REMARK  Name = 3085218
REMARK  0 active torsions:
REMARK  status: ('A' for Active; 'I' for Inactive)
REMARK                            x       y       z     vdW  Elec       q    Type
REMARK                         _______ _______ _______ _____ _____    ______ ____
ROOT
ATOM      1  N   UNL     1      33.202 -14.171 -22.598  0.00  0.00    -0.296 N 
ATOM      2  N   UNL     1      32.006 -12.019 -21.158  0.00  0.00    +0.388 N 
ATOM      3  N   UNL     1      34.642 -16.081 -22.413  0.00  0.00    -0.229 NA
ATOM      4  C   UNL     1      33.493 -12.780 -23.015  0.00  0.00    +0.076 C 
ATOM      5  C   UNL     1      32.293 -11.893 -22.596  0.00  0.00    -0.053 C 
ATOM      6  C   UNL     1      32.861 -14.333 -21.180  0.00  0.00    +0.070 C 
ATOM      7  C   UNL     1      31.695 -13.412 -20.820  0.00  0.00    -0.056 C 
ATOM      8  C   UNL     1      33.824 -12.489 -24.479  0.00  0.00    -0.010 C 
ATOM      9  C   UNL     1      33.870 -15.259 -23.177  0.00  0.00    +0.128 C 
ATOM     10  C   UNL     1      33.455 -13.299 -25.569  0.00  0.00    -0.020 C 
ATOM     11  C   UNL     1      32.790 -14.632 -25.366  0.00  0.00    +0.055 C 
ATOM     12  C   UNL     1      33.670 -15.530 -24.538  0.00  0.00    +0.014 C 
ATOM     13  C   UNL     1      30.903 -11.140 -20.775  0.00  0.00    -0.101 C 
ATOM     14  C   UNL     1      34.515 -11.289 -24.751  0.00  0.00    -0.003 C 
ATOM     15  C   UNL     1      33.764 -12.892 -26.882  0.00  0.00    -0.004 C 
ATOM     16  C   UNL     1      34.309 -16.632 -25.116  0.00  0.00    +0.000 C 
ATOM     17  C   UNL     1      34.819 -10.897 -26.055  0.00  0.00    -0.000 C 
ATOM     18  C   UNL     1      34.439 -11.698 -27.122  0.00  0.00    -0.000 C 
ATOM     19  C   UNL     1      35.111 -17.454 -24.340  0.00  0.00    +0.020 C 
ATOM     20  C   UNL     1      35.241 -17.139 -23.004  0.00  0.00    +0.100 C 
ATOM     21  H   UNL     1      32.838 -11.737 -20.639  0.00  0.00    -0.080 HD
ENDROOT
TORSDOF 0
ENDMDL
MODEL 9
REMARK VINA RESULT:      -7.5      1.792      4.341
REMARK  Name = 3085218
REMARK  0 active torsions:
REMARK  status: ('A' for Active; 'I' for Inactive)
REMARK                            x       y       z     vdW  Elec       q    Type
REMARK                         _______ _______ _______ _____ _____    ______ ____
ROOT
ATOM      1  N   UNL     1      32.848 -10.259 -22.800  0.00  0.00    -0.296 N 
ATOM      2  N   UNL     1      34.270 -10.377 -25.269  0.00  0.00    +0.388 N 
ATOM      3  N   UNL     1      31.287 -11.411 -21.389  0.00  0.00    -0.229 NA
ATOM      4  C   UNL     1      32.636  -9.188 -23.801  0.00  0.00    +0.076 C 
ATOM      5  C   UNL     1      33.918  -9.082 -24.667  0.00  0.00    -0.053 C 
ATOM      6  C   UNL     1      33.251 -11.555 -23.356  0.00  0.00    +0.070 C 
ATOM      7  C   UNL     1      34.497 -11.381 -24.224  0.00  0.00    -0.056 C 
ATOM      8  C   UNL     1      32.250  -7.786 -23.330  0.00  0.00    -0.010 C 
ATOM      9  C   UNL     1      32.074 -10.327 -21.633  0.00  0.00    +0.128 C 
ATOM     10  C   UNL     1      32.502  -7.264 -22.047  0.00  0.00    -0.020 C 
ATOM     11  C   UNL     1      33.079  -8.118 -20.953  0.00  0.00    +0.055 C 
ATOM     12  C   UNL     1      32.183  -9.297 -20.687  0.00  0.00    +0.014 C 
ATOM     13  C   UNL     1      35.452 -10.245 -26.119  0.00  0.00    -0.101 C 
ATOM     14  C   UNL     1      31.634  -6.941 -24.278  0.00  0.00    -0.003 C 
ATOM     15  C   UNL     1      32.155  -5.932 -21.752  0.00  0.00    -0.004 C 
ATOM     16  C   UNL     1      31.436  -9.373 -19.506  0.00  0.00    +0.000 C 
ATOM     17  C   UNL     1      31.290  -5.624 -23.973  0.00  0.00    -0.000 C 
ATOM     18  C   UNL     1      31.556  -5.118 -22.709  0.00  0.00    -0.000 C 
ATOM     19  C   UNL     1      30.619 -10.468 -19.271  0.00  0.00    +0.020 C 
ATOM     20  C   UNL     1      30.583 -11.454 -20.236  0.00  0.00    +0.100 C 
ATOM     21  H   UNL     1      33.489 -10.685 -25.850  0.00  0.00    -0.080 HD
ENDROOT
TORSDOF 0
ENDMDL
