MODEL 1
REMARK VINA RESULT:      -3.8      0.000      0.000
REMARK  Name = 31275
REMARK  0 active torsions:
REMARK  status: ('A' for Active; 'I' for Inactive)
REMARK                            x       y       z     vdW  Elec       q    Type
REMARK                         _______ _______ _______ _____ _____    ______ ____
ROOT
ATOM      1  O   UNL     1      32.900 -21.819 -19.913  0.00  0.00    -0.348 OA
ATOM      2  O   UNL     1      35.394 -20.544 -19.714  0.00  0.00    -0.348 OA
ATOM      3  C   UNL     1      33.872 -22.259 -18.962  0.00  0.00    +0.174 C 
ATOM      4  C   UNL     1      33.026 -20.415 -20.152  0.00  0.00    +0.174 C 
ATOM      5  C   UNL     1      35.268 -21.948 -19.475  0.00  0.00    +0.174 C 
ATOM      6  C   UNL     1      34.422 -20.104 -20.665  0.00  0.00    +0.174 C 
ENDROOT
TORSDOF 0
ENDMDL
MODEL 2
REMARK VINA RESULT:      -3.8      0.111      2.045
REMARK  Name = 31275
REMARK  0 active torsions:
REMARK  status: ('A' for Active; 'I' for Inactive)
REMARK                            x       y       z     vdW  Elec       q    Type
REMARK                         _______ _______ _______ _____ _____    ______ ____
ROOT
ATOM      1  O   UNL     1      35.356 -20.456 -19.786  0.00  0.00    -0.348 OA
ATOM      2  O   UNL     1      32.873 -21.753 -19.981  0.00  0.00    -0.348 OA
ATOM      3  C   UNL     1      35.241 -21.857 -19.525  0.00  0.00    +0.174 C 
ATOM      4  C   UNL     1      34.386 -20.040 -20.750  0.00  0.00    +0.174 C 
ATOM      5  C   UNL     1      33.843 -22.170 -19.017  0.00  0.00    +0.174 C 
ATOM      6  C   UNL     1      32.989 -20.353 -20.241  0.00  0.00    +0.174 C 
ENDROOT
TORSDOF 0
ENDMDL
MODEL 3
REMARK VINA RESULT:      -3.8      9.679     10.009
REMARK  Name = 31275
REMARK  0 active torsions:
REMARK  status: ('A' for Active; 'I' for Inactive)
REMARK                            x       y       z     vdW  Elec       q    Type
REMARK                         _______ _______ _______ _____ _____    ______ ____
ROOT
ATOM      1  O   UNL     1      40.868 -14.617 -17.455  0.00  0.00    -0.348 OA
ATOM      2  O   UNL     1      42.399 -16.556 -16.120  0.00  0.00    -0.348 OA
ATOM      3  C   UNL     1      41.073 -14.542 -16.043  0.00  0.00    +0.174 C 
ATOM      4  C   UNL     1      41.986 -15.236 -18.096  0.00  0.00    +0.174 C 
ATOM      5  C   UNL     1      41.281 -15.937 -15.479  0.00  0.00    +0.174 C 
ATOM      6  C   UNL     1      42.194 -16.631 -17.533  0.00  0.00    +0.174 C 
ENDROOT
TORSDOF 0
ENDMDL
MODEL 4
REMARK VINA RESULT:      -3.8      9.695     10.033
REMARK  Name = 31275
REMARK  0 active torsions:
REMARK  status: ('A' for Active; 'I' for Inactive)
REMARK                            x       y       z     vdW  Elec       q    Type
REMARK                         _______ _______ _______ _____ _____    ______ ____
ROOT
ATOM      1  O   UNL     1      42.449 -16.541 -16.185  0.00  0.00    -0.348 OA
ATOM      2  O   UNL     1      40.876 -14.616 -17.491  0.00  0.00    -0.348 OA
ATOM      3  C   UNL     1      41.329 -15.944 -15.528  0.00  0.00    +0.174 C 
ATOM      4  C   UNL     1      42.230 -16.609 -17.596  0.00  0.00    +0.174 C 
ATOM      5  C   UNL     1      41.095 -14.547 -16.080  0.00  0.00    +0.174 C 
ATOM      6  C   UNL     1      41.996 -15.213 -18.148  0.00  0.00    +0.174 C 
ENDROOT
TORSDOF 0
ENDMDL
MODEL 5
REMARK VINA RESULT:      -3.7      8.759      9.058
REMARK  Name = 31275
REMARK  0 active torsions:
REMARK  status: ('A' for Active; 'I' for Inactive)
REMARK                            x       y       z     vdW  Elec       q    Type
REMARK                         _______ _______ _______ _____ _____    ______ ____
ROOT
ATOM      1  O   UNL     1      36.384 -25.483 -11.485  0.00  0.00    -0.348 OA
ATOM      2  O   UNL     1      37.865 -23.474 -12.771  0.00  0.00    -0.348 OA
ATOM      3  C   UNL     1      35.876 -24.151 -11.585  0.00  0.00    +0.174 C 
ATOM      4  C   UNL     1      37.218 -25.791 -12.605  0.00  0.00    +0.174 C 
ATOM      5  C   UNL     1      37.031 -23.166 -11.652  0.00  0.00    +0.174 C 
ATOM      6  C   UNL     1      38.373 -24.806 -12.671  0.00  0.00    +0.174 C 
ENDROOT
TORSDOF 0
ENDMDL
MODEL 6
REMARK VINA RESULT:      -3.7      8.747      9.241
REMARK  Name = 31275
REMARK  0 active torsions:
REMARK  status: ('A' for Active; 'I' for Inactive)
REMARK                            x       y       z     vdW  Elec       q    Type
REMARK                         _______ _______ _______ _____ _____    ______ ____
ROOT
ATOM      1  O   UNL     1      37.898 -23.482 -12.754  0.00  0.00    -0.348 OA
ATOM      2  O   UNL     1      36.295 -25.387 -11.454  0.00  0.00    -0.348 OA
ATOM      3  C   UNL     1      37.039 -23.102 -11.676  0.00  0.00    +0.174 C 
ATOM      4  C   UNL     1      38.348 -24.829 -12.591  0.00  0.00    +0.174 C 
ATOM      5  C   UNL     1      35.845 -24.039 -11.617  0.00  0.00    +0.174 C 
ATOM      6  C   UNL     1      37.154 -25.766 -12.532  0.00  0.00    +0.174 C 
ENDROOT
TORSDOF 0
ENDMDL
MODEL 7
REMARK VINA RESULT:      -3.6      6.977      7.795
REMARK  Name = 31275
REMARK  0 active torsions:
REMARK  status: ('A' for Active; 'I' for Inactive)
REMARK                            x       y       z     vdW  Elec       q    Type
REMARK                         _______ _______ _______ _____ _____    ______ ____
ROOT
ATOM      1  O   UNL     1      33.425 -15.065 -23.636  0.00  0.00    -0.348 OA
ATOM      2  O   UNL     1      34.098 -15.926 -26.223  0.00  0.00    -0.348 OA
ATOM      3  C   UNL     1      34.527 -15.950 -23.849  0.00  0.00    +0.174 C 
ATOM      4  C   UNL     1      33.241 -14.207 -24.765  0.00  0.00    +0.174 C 
ATOM      5  C   UNL     1      34.282 -16.785 -25.095  0.00  0.00    +0.174 C 
ATOM      6  C   UNL     1      32.995 -15.042 -26.011  0.00  0.00    +0.174 C 
ENDROOT
TORSDOF 0
ENDMDL
MODEL 8
REMARK VINA RESULT:      -3.6      6.924      7.769
REMARK  Name = 31275
REMARK  0 active torsions:
REMARK  status: ('A' for Active; 'I' for Inactive)
REMARK                            x       y       z     vdW  Elec       q    Type
REMARK                         _______ _______ _______ _____ _____    ______ ____
ROOT
ATOM      1  O   UNL     1      34.165 -15.978 -26.247  0.00  0.00    -0.348 OA
ATOM      2  O   UNL     1      33.446 -15.140 -23.665  0.00  0.00    -0.348 OA
ATOM      3  C   UNL     1      34.315 -16.852 -25.126  0.00  0.00    +0.174 C 
ATOM      4  C   UNL     1      33.069 -15.082 -26.046  0.00  0.00    +0.174 C 
ATOM      5  C   UNL     1      34.542 -16.035 -23.865  0.00  0.00    +0.174 C 
ATOM      6  C   UNL     1      33.297 -14.265 -24.785  0.00  0.00    +0.174 C 
ENDROOT
TORSDOF 0
ENDMDL
MODEL 9
REMARK VINA RESULT:      -3.5      5.150      6.095
REMARK  Name = 31275
REMARK  0 active torsions:
REMARK  status: ('A' for Active; 'I' for Inactive)
REMARK                            x       y       z     vdW  Elec       q    Type
REMARK                         _______ _______ _______ _____ _____    ______ ____
ROOT
ATOM      1  O   UNL     1      34.590 -17.448 -25.694  0.00  0.00    -0.348 OA
ATOM      2  O   UNL     1      34.763 -17.220 -22.900  0.00  0.00    -0.348 OA
ATOM      3  C   UNL     1      34.442 -18.597 -24.856  0.00  0.00    +0.174 C 
ATOM      4  C   UNL     1      34.129 -16.272 -25.025  0.00  0.00    +0.174 C 
ATOM      5  C   UNL     1      35.224 -18.397 -23.569  0.00  0.00    +0.174 C 
ATOM      6  C   UNL     1      34.911 -16.072 -23.738  0.00  0.00    +0.174 C 
ENDROOT
TORSDOF 0
ENDMDL
