MODEL 1
REMARK VINA RESULT:      -8.9      0.000      0.000
REMARK  Name = 72172
REMARK  11 active torsions:
REMARK  status: ('A' for Active; 'I' for Inactive)
REMARK    1  A    between atoms: C_1  and  C_4
REMARK    2  A    between atoms: C_1  and  O_15
REMARK    3  A    between atoms: C_1  and  C_17
REMARK    4  A    between atoms: N_3  and  CA_6
REMARK    5  A    between atoms: CA_6  and  C_8
REMARK    6  A    between atoms: CA_6  and  CB_11
REMARK    7  A    between atoms: C_8  and  O_9
REMARK    8  A    between atoms: CB_11  and  CG_12
REMARK    9  A    between atoms: C_17  and  N_18
REMARK   10  A    between atoms: C_17  and  C_22
REMARK   11  A    between atoms: C_22  and  C_23
REMARK                            x       y       z     vdW  Elec       q    Type
REMARK                         _______ _______ _______ _____ _____    ______ ____
ROOT
ATOM      1  C   UNL     1      35.183 -16.334 -21.639  0.00  0.00    +0.167 C 
ENDROOT
BRANCH   1   4
ATOM      2  O   UNL     1      32.865 -15.677 -21.860  0.00  0.00    -0.273 OA
ATOM      3  N   UNL     1      34.348 -15.077 -23.543  0.00  0.00    -0.295 N 
ATOM      4  C   ACE A   0      33.999 -15.665 -22.333  0.00  0.00    +0.248 C 
ATOM      5  H   UNL     1      35.287 -15.123 -23.834  0.00  0.00    +0.150 HD
BRANCH   3   6
ATOM      6  CA  UNL     1      33.395 -14.407 -24.388  0.00  0.00    +0.171 C 
BRANCH   6   8
ATOM      7  OXT UNL     1      33.913 -16.011 -26.125  0.00  0.00    -0.248 OA
ATOM      8  C   UNL     1      33.198 -15.096 -25.730  0.00  0.00    +0.332 C 
BRANCH   8   9
ATOM      9  O   UNL     1      32.198 -14.581 -26.484  0.00  0.00    -0.479 OA
ATOM     10  H   UNL     1      31.812 -13.760 -26.254  0.00  0.00    +0.295 HD
ENDBRANCH   8   9
ENDBRANCH   6   8
BRANCH   6  11
ATOM     11  CB  UNL     1      33.693 -12.906 -24.524  0.00  0.00    +0.031 C 
BRANCH  11  12
ATOM     12  CG  UNL     1      33.377 -11.998 -23.314  0.00  0.00    +0.002 C 
ATOM     13  CD1 UNL     1      33.291 -10.541 -23.785  0.00  0.00    +0.000 C 
ATOM     14  CD2 UNL     1      32.090 -12.372 -22.581  0.00  0.00    +0.000 C 
ENDBRANCH  11  12
ENDBRANCH   6  11
ENDBRANCH   3   6
ENDBRANCH   1   4
BRANCH   1  15
ATOM     15  O   UNL     1      34.995 -16.242 -20.235  0.00  0.00    -0.377 OA
ATOM     16  H   UNL     1      34.754 -15.331 -20.000  0.00  0.00    +0.211 HD
ENDBRANCH   1  15
BRANCH   1  17
ATOM     17  C   UNL     1      35.334 -17.811 -22.060  0.00  0.00    -0.025 C 
BRANCH  17  18
ATOM     18  N   UNL     1      35.653 -17.847 -23.494  0.00  0.00    +0.384 N 
ATOM     19  H   UNL     1      34.940 -18.386 -23.987  0.00  0.00    -0.089 HD
ATOM     20  H   UNL     1      36.564 -18.286 -23.629  0.00  0.00    -0.089 HD
ATOM     21  H   UNL     1      35.676 -16.896 -23.862  0.00  0.00    -0.089 HD
ENDBRANCH  17  18
BRANCH  17  22
ATOM     22  C   UNL     1      34.063 -18.642 -21.770  0.00  0.00    +0.007 C 
BRANCH  22  23
ATOM     23  C   UNL     1      34.306 -19.810 -20.844  0.00  0.00    -0.024 C 
ATOM     24  C   UNL     1      35.606 -20.212 -20.586  0.00  0.00    -0.004 C 
ATOM     25  C   UNL     1      33.223 -20.458 -20.270  0.00  0.00    -0.004 C 
ATOM     26  C   UNL     1      35.831 -21.290 -19.730  0.00  0.00    -0.000 C 
ATOM     27  C   UNL     1      33.449 -21.536 -19.414  0.00  0.00    -0.000 C 
ATOM     28  C   UNL     1      34.752 -21.952 -19.145  0.00  0.00    -0.000 C 
ENDBRANCH  22  23
ENDBRANCH  17  22
ENDBRANCH   1  17
TORSDOF 11
ENDMDL
MODEL 2
REMARK VINA RESULT:      -8.8      1.839      2.571
REMARK  Name = 72172
REMARK  11 active torsions:
REMARK  status: ('A' for Active; 'I' for Inactive)
REMARK    1  A    between atoms: C_1  and  C_4
REMARK    2  A    between atoms: C_1  and  O_15
REMARK    3  A    between atoms: C_1  and  C_17
REMARK    4  A    between atoms: N_3  and  CA_6
REMARK    5  A    between atoms: CA_6  and  C_8
REMARK    6  A    between atoms: CA_6  and  CB_11
REMARK    7  A    between atoms: C_8  and  O_9
REMARK    8  A    between atoms: CB_11  and  CG_12
REMARK    9  A    between atoms: C_17  and  N_18
REMARK   10  A    between atoms: C_17  and  C_22
REMARK   11  A    between atoms: C_22  and  C_23
REMARK                            x       y       z     vdW  Elec       q    Type
REMARK                         _______ _______ _______ _____ _____    ______ ____
ROOT
ATOM      1  C   UNL     1      34.569 -16.292 -22.971  0.00  0.00    +0.167 C 
ENDROOT
BRANCH   1   4
ATOM      2  O   UNL     1      34.495 -14.516 -21.329  0.00  0.00    -0.273 OA
ATOM      3  N   UNL     1      33.956 -14.009 -23.530  0.00  0.00    -0.295 N 
ATOM      4  C   ACE A   0      34.351 -14.856 -22.501  0.00  0.00    +0.248 C 
ATOM      5  H   UNL     1      33.869 -14.381 -24.437  0.00  0.00    +0.150 HD
BRANCH   3   6
ATOM      6  CA  UNL     1      33.667 -12.614 -23.325  0.00  0.00    +0.171 C 
BRANCH   6   8
ATOM      7  OXT UNL     1      31.875 -11.252 -22.436  0.00  0.00    -0.248 OA
ATOM      8  C   UNL     1      32.320 -12.373 -22.662  0.00  0.00    +0.332 C 
BRANCH   8   9
ATOM      9  O   UNL     1      31.668 -13.499 -22.289  0.00  0.00    -0.479 OA
ATOM     10  H   UNL     1      30.880 -13.441 -21.787  0.00  0.00    +0.295 HD
ENDBRANCH   8   9
ENDBRANCH   6   8
BRANCH   6  11
ATOM     11  CB  UNL     1      33.862 -11.786 -24.604  0.00  0.00    +0.031 C 
BRANCH  11  12
ATOM     12  CG  UNL     1      34.891 -10.634 -24.565  0.00  0.00    +0.002 C 
ATOM     13  CD1 UNL     1      35.435 -10.395 -25.979  0.00  0.00    +0.000 C 
ATOM     14  CD2 UNL     1      34.331  -9.326 -24.009  0.00  0.00    +0.000 C 
ENDBRANCH  11  12
ENDBRANCH   6  11
ENDBRANCH   3   6
ENDBRANCH   1   4
BRANCH   1  15
ATOM     15  O   UNL     1      35.899 -16.412 -23.455  0.00  0.00    -0.377 OA
ATOM     16  H   UNL     1      35.889 -16.430 -24.425  0.00  0.00    +0.211 HD
ENDBRANCH   1  15
BRANCH   1  17
ATOM     17  C   UNL     1      34.321 -17.310 -21.838  0.00  0.00    -0.025 C 
BRANCH  17  18
ATOM     18  N   UNL     1      35.284 -17.039 -20.761  0.00  0.00    +0.384 N 
ATOM     19  H   UNL     1      36.078 -16.520 -21.138  0.00  0.00    -0.089 HD
ATOM     20  H   UNL     1      35.612 -17.922 -20.368  0.00  0.00    -0.089 HD
ATOM     21  H   UNL     1      34.833 -16.488 -20.032  0.00  0.00    -0.089 HD
ENDBRANCH  17  18
BRANCH  17  22
ATOM     22  C   UNL     1      34.449 -18.774 -22.319  0.00  0.00    +0.007 C 
BRANCH  22  23
ATOM     23  C   UNL     1      34.380 -19.784 -21.198  0.00  0.00    -0.024 C 
ATOM     24  C   UNL     1      35.545 -20.393 -20.761  0.00  0.00    -0.004 C 
ATOM     25  C   UNL     1      33.152 -20.083 -20.629  0.00  0.00    -0.004 C 
ATOM     26  C   UNL     1      35.481 -21.326 -19.726  0.00  0.00    -0.000 C 
ATOM     27  C   UNL     1      33.089 -21.016 -19.594  0.00  0.00    -0.000 C 
ATOM     28  C   UNL     1      34.253 -21.637 -19.143  0.00  0.00    -0.000 C 
ENDBRANCH  22  23
ENDBRANCH  17  22
ENDBRANCH   1  17
TORSDOF 11
ENDMDL
MODEL 3
REMARK VINA RESULT:      -8.6      7.395     11.698
REMARK  Name = 72172
REMARK  11 active torsions:
REMARK  status: ('A' for Active; 'I' for Inactive)
REMARK    1  A    between atoms: C_1  and  C_4
REMARK    2  A    between atoms: C_1  and  O_15
REMARK    3  A    between atoms: C_1  and  C_17
REMARK    4  A    between atoms: N_3  and  CA_6
REMARK    5  A    between atoms: CA_6  and  C_8
REMARK    6  A    between atoms: CA_6  and  CB_11
REMARK    7  A    between atoms: C_8  and  O_9
REMARK    8  A    between atoms: CB_11  and  CG_12
REMARK    9  A    between atoms: C_17  and  N_18
REMARK   10  A    between atoms: C_17  and  C_22
REMARK   11  A    between atoms: C_22  and  C_23
REMARK                            x       y       z     vdW  Elec       q    Type
REMARK                         _______ _______ _______ _____ _____    ______ ____
ROOT
ATOM      1  C   UNL     1      33.166 -23.726 -15.578  0.00  0.00    +0.167 C 
ENDROOT
BRANCH   1   4
ATOM      2  O   UNL     1      35.400 -22.803 -15.482  0.00  0.00    -0.273 OA
ATOM      3  N   UNL     1      35.089 -25.010 -14.832  0.00  0.00    -0.295 N 
ATOM      4  C   ACE A   0      34.666 -23.770 -15.294  0.00  0.00    +0.248 C 
ATOM      5  H   UNL     1      34.419 -25.721 -14.715  0.00  0.00    +0.150 HD
BRANCH   3   6
ATOM      6  CA  UNL     1      36.464 -25.299 -14.520  0.00  0.00    +0.171 C 
BRANCH   6   8
ATOM      7  OXT UNL     1      36.387 -27.124 -16.107  0.00  0.00    -0.248 OA
ATOM      8  C   UNL     1      36.975 -26.568 -15.184  0.00  0.00    +0.332 C 
BRANCH   8   9
ATOM      9  O   UNL     1      38.107 -27.071 -14.639  0.00  0.00    -0.479 OA
ATOM     10  H   UNL     1      38.588 -27.738 -15.088  0.00  0.00    +0.295 HD
ENDBRANCH   8   9
ENDBRANCH   6   8
BRANCH   6  11
ATOM     11  CB  UNL     1      36.737 -25.263 -13.009  0.00  0.00    +0.031 C 
BRANCH  11  12
ATOM     12  CG  UNL     1      36.340 -23.984 -12.236  0.00  0.00    +0.002 C 
ATOM     13  CD1 UNL     1      35.652 -24.380 -10.924  0.00  0.00    +0.000 C 
ATOM     14  CD2 UNL     1      37.515 -23.057 -11.934  0.00  0.00    +0.000 C 
ENDBRANCH  11  12
ENDBRANCH   6  11
ENDBRANCH   3   6
ENDBRANCH   1   4
BRANCH   1  15
ATOM     15  O   UNL     1      32.500 -23.247 -14.419  0.00  0.00    -0.377 OA
ATOM     16  H   UNL     1      32.918 -22.422 -14.125  0.00  0.00    +0.211 HD
ENDBRANCH   1  15
BRANCH   1  17
ATOM     17  C   UNL     1      32.838 -22.830 -16.790  0.00  0.00    -0.025 C 
BRANCH  17  18
ATOM     18  N   UNL     1      31.378 -22.810 -16.962  0.00  0.00    +0.384 N 
ATOM     19  H   UNL     1      31.154 -22.734 -17.955  0.00  0.00    -0.089 HD
ATOM     20  H   UNL     1      30.989 -22.009 -16.464  0.00  0.00    -0.089 HD
ATOM     21  H   UNL     1      30.980 -23.670 -16.588  0.00  0.00    -0.089 HD
ENDBRANCH  17  18
BRANCH  17  22
ATOM     22  C   UNL     1      33.526 -23.315 -18.088  0.00  0.00    +0.007 C 
BRANCH  22  23
ATOM     23  C   UNL     1      34.044 -22.189 -18.951  0.00  0.00    -0.024 C 
ATOM     24  C   UNL     1      35.412 -22.000 -19.070  0.00  0.00    -0.004 C 
ATOM     25  C   UNL     1      33.143 -21.366 -19.607  0.00  0.00    -0.004 C 
ATOM     26  C   UNL     1      35.891 -20.960 -19.866  0.00  0.00    -0.000 C 
ATOM     27  C   UNL     1      33.622 -20.326 -20.403  0.00  0.00    -0.000 C 
ATOM     28  C   UNL     1      34.996 -20.123 -20.533  0.00  0.00    -0.000 C 
ENDBRANCH  22  23
ENDBRANCH  17  22
ENDBRANCH   1  17
TORSDOF 11
ENDMDL
MODEL 4
REMARK VINA RESULT:      -8.6      1.805      2.502
REMARK  Name = 72172
REMARK  11 active torsions:
REMARK  status: ('A' for Active; 'I' for Inactive)
REMARK    1  A    between atoms: C_1  and  C_4
REMARK    2  A    between atoms: C_1  and  O_15
REMARK    3  A    between atoms: C_1  and  C_17
REMARK    4  A    between atoms: N_3  and  CA_6
REMARK    5  A    between atoms: CA_6  and  C_8
REMARK    6  A    between atoms: CA_6  and  CB_11
REMARK    7  A    between atoms: C_8  and  O_9
REMARK    8  A    between atoms: CB_11  and  CG_12
REMARK    9  A    between atoms: C_17  and  N_18
REMARK   10  A    between atoms: C_17  and  C_22
REMARK   11  A    between atoms: C_22  and  C_23
REMARK                            x       y       z     vdW  Elec       q    Type
REMARK                         _______ _______ _______ _____ _____    ______ ____
ROOT
ATOM      1  C   UNL     1      34.330 -16.370 -23.105  0.00  0.00    +0.167 C 
ENDROOT
BRANCH   1   4
ATOM      2  O   UNL     1      32.464 -15.048 -22.315  0.00  0.00    -0.273 OA
ATOM      3  N   UNL     1      33.940 -14.083 -23.825  0.00  0.00    -0.295 N 
ATOM      4  C   ACE A   0      33.471 -15.111 -23.017  0.00  0.00    +0.248 C 
ATOM      5  H   UNL     1      34.759 -14.234 -24.350  0.00  0.00    +0.150 HD
BRANCH   3   6
ATOM      6  CA  UNL     1      33.281 -12.807 -23.926  0.00  0.00    +0.171 C 
BRANCH   6   8
ATOM      7  OXT UNL     1      33.690 -12.048 -26.188  0.00  0.00    -0.248 OA
ATOM      8  C   UNL     1      33.890 -11.902 -24.986  0.00  0.00    +0.332 C 
BRANCH   8   9
ATOM      9  O   UNL     1      34.721 -10.949 -24.502  0.00  0.00    -0.479 OA
ATOM     10  H   UNL     1      34.835 -10.145 -24.967  0.00  0.00    +0.295 HD
ENDBRANCH   8   9
ENDBRANCH   6   8
BRANCH   6  11
ATOM     11  CB  UNL     1      33.136 -12.117 -22.562  0.00  0.00    +0.031 C 
BRANCH  11  12
ATOM     12  CG  UNL     1      31.757 -11.518 -22.202  0.00  0.00    +0.002 C 
ATOM     13  CD1 UNL     1      31.475 -11.758 -20.714  0.00  0.00    +0.000 C 
ATOM     14  CD2 UNL     1      31.634 -10.026 -22.507  0.00  0.00    +0.000 C 
ENDBRANCH  11  12
ENDBRANCH   6  11
ENDBRANCH   3   6
ENDBRANCH   1   4
BRANCH   1  15
ATOM     15  O   UNL     1      35.642 -15.995 -23.500  0.00  0.00    -0.377 OA
ATOM     16  H   UNL     1      35.654 -15.818 -24.454  0.00  0.00    +0.211 HD
ENDBRANCH   1  15
BRANCH   1  17
ATOM     17  C   UNL     1      34.375 -17.129 -21.763  0.00  0.00    -0.025 C 
BRANCH  17  18
ATOM     18  N   UNL     1      34.818 -16.192 -20.722  0.00  0.00    +0.384 N 
ATOM     19  H   UNL     1      35.534 -15.573 -21.104  0.00  0.00    -0.089 HD
ATOM     20  H   UNL     1      35.205 -16.715 -19.936  0.00  0.00    -0.089 HD
ATOM     21  H   UNL     1      34.023 -15.638 -20.403  0.00  0.00    -0.089 HD
ENDBRANCH  17  18
BRANCH  17  22
ATOM     22  C   UNL     1      35.308 -18.361 -21.811  0.00  0.00    +0.007 C 
BRANCH  22  23
ATOM     23  C   UNL     1      34.820 -19.520 -20.973  0.00  0.00    -0.024 C 
ATOM     24  C   UNL     1      33.459 -19.687 -20.776  0.00  0.00    -0.004 C 
ATOM     25  C   UNL     1      35.743 -20.392 -20.418  0.00  0.00    -0.004 C 
ATOM     26  C   UNL     1      33.008 -20.757 -20.003  0.00  0.00    -0.000 C 
ATOM     27  C   UNL     1      35.291 -21.461 -19.644  0.00  0.00    -0.000 C 
ATOM     28  C   UNL     1      33.924 -21.643 -19.437  0.00  0.00    -0.000 C 
ENDBRANCH  22  23
ENDBRANCH  17  22
ENDBRANCH   1  17
TORSDOF 11
ENDMDL
MODEL 5
REMARK VINA RESULT:      -8.6      1.719      2.355
REMARK  Name = 72172
REMARK  11 active torsions:
REMARK  status: ('A' for Active; 'I' for Inactive)
REMARK    1  A    between atoms: C_1  and  C_4
REMARK    2  A    between atoms: C_1  and  O_15
REMARK    3  A    between atoms: C_1  and  C_17
REMARK    4  A    between atoms: N_3  and  CA_6
REMARK    5  A    between atoms: CA_6  and  C_8
REMARK    6  A    between atoms: CA_6  and  CB_11
REMARK    7  A    between atoms: C_8  and  O_9
REMARK    8  A    between atoms: CB_11  and  CG_12
REMARK    9  A    between atoms: C_17  and  N_18
REMARK   10  A    between atoms: C_17  and  C_22
REMARK   11  A    between atoms: C_22  and  C_23
REMARK                            x       y       z     vdW  Elec       q    Type
REMARK                         _______ _______ _______ _____ _____    ______ ____
ROOT
ATOM      1  C   UNL     1      35.420 -17.141 -24.014  0.00  0.00    +0.167 C 
ENDROOT
BRANCH   1   4
ATOM      2  O   UNL     1      33.746 -16.494 -25.637  0.00  0.00    -0.273 OA
ATOM      3  N   UNL     1      34.038 -15.160 -23.759  0.00  0.00    -0.295 N 
ATOM      4  C   ACE A   0      34.309 -16.254 -24.571  0.00  0.00    +0.248 C 
ATOM      5  H   UNL     1      34.547 -15.058 -22.922  0.00  0.00    +0.150 HD
BRANCH   3   6
ATOM      6  CA  UNL     1      33.047 -14.169 -24.089  0.00  0.00    +0.171 C 
BRANCH   6   8
ATOM      7  OXT UNL     1      33.502 -12.850 -26.066  0.00  0.00    -0.248 OA
ATOM      8  C   UNL     1      33.618 -12.984 -24.852  0.00  0.00    +0.332 C 
BRANCH   8   9
ATOM      9  O   UNL     1      34.315 -12.108 -24.090  0.00  0.00    -0.479 OA
ATOM     10  H   UNL     1      34.802 -11.419 -24.495  0.00  0.00    +0.295 HD
ENDBRANCH   8   9
ENDBRANCH   6   8
BRANCH   6  11
ATOM     11  CB  UNL     1      32.215 -13.751 -22.868  0.00  0.00    +0.031 C 
BRANCH  11  12
ATOM     12  CG  UNL     1      32.802 -14.032 -21.466  0.00  0.00    +0.002 C 
ATOM     13  CD1 UNL     1      32.310 -12.958 -20.488  0.00  0.00    +0.000 C 
ATOM     14  CD2 UNL     1      32.455 -15.415 -20.918  0.00  0.00    +0.000 C 
ENDBRANCH  11  12
ENDBRANCH   6  11
ENDBRANCH   3   6
ENDBRANCH   1   4
BRANCH   1  15
ATOM     15  O   UNL     1      36.008 -16.484 -22.902  0.00  0.00    -0.377 OA
ATOM     16  H   UNL     1      35.368 -15.864 -22.518  0.00  0.00    +0.211 HD
ENDBRANCH   1  15
BRANCH   1  17
ATOM     17  C   UNL     1      34.891 -18.529 -23.595  0.00  0.00    -0.025 C 
BRANCH  17  18
ATOM     18  N   UNL     1      34.180 -19.112 -24.741  0.00  0.00    +0.384 N 
ATOM     19  H   UNL     1      33.411 -19.693 -24.404  0.00  0.00    -0.089 HD
ATOM     20  H   UNL     1      34.825 -19.685 -25.285  0.00  0.00    -0.089 HD
ATOM     21  H   UNL     1      33.810 -18.365 -25.328  0.00  0.00    -0.089 HD
ENDBRANCH  17  18
BRANCH  17  22
ATOM     22  C   UNL     1      33.959 -18.459 -22.363  0.00  0.00    +0.007 C 
BRANCH  22  23
ATOM     23  C   UNL     1      34.242 -19.529 -21.334  0.00  0.00    -0.024 C 
ATOM     24  C   UNL     1      35.555 -19.852 -21.035  0.00  0.00    -0.004 C 
ATOM     25  C   UNL     1      33.181 -20.166 -20.710  0.00  0.00    -0.004 C 
ATOM     26  C   UNL     1      35.816 -20.839 -20.085  0.00  0.00    -0.000 C 
ATOM     27  C   UNL     1      33.443 -21.154 -19.760  0.00  0.00    -0.000 C 
ATOM     28  C   UNL     1      34.760 -21.490 -19.448  0.00  0.00    -0.000 C 
ENDBRANCH  22  23
ENDBRANCH  17  22
ENDBRANCH   1  17
TORSDOF 11
ENDMDL
MODEL 6
REMARK VINA RESULT:      -8.6      6.858     11.972
REMARK  Name = 72172
REMARK  11 active torsions:
REMARK  status: ('A' for Active; 'I' for Inactive)
REMARK    1  A    between atoms: C_1  and  C_4
REMARK    2  A    between atoms: C_1  and  O_15
REMARK    3  A    between atoms: C_1  and  C_17
REMARK    4  A    between atoms: N_3  and  CA_6
REMARK    5  A    between atoms: CA_6  and  C_8
REMARK    6  A    between atoms: CA_6  and  CB_11
REMARK    7  A    between atoms: C_8  and  O_9
REMARK    8  A    between atoms: CB_11  and  CG_12
REMARK    9  A    between atoms: C_17  and  N_18
REMARK   10  A    between atoms: C_17  and  C_22
REMARK   11  A    between atoms: C_22  and  C_23
REMARK                            x       y       z     vdW  Elec       q    Type
REMARK                         _______ _______ _______ _____ _____    ______ ____
ROOT
ATOM      1  C   UNL     1      35.811 -22.639 -16.232  0.00  0.00    +0.167 C 
ENDROOT
BRANCH   1   4
ATOM      2  O   UNL     1      35.706 -25.026 -15.847  0.00  0.00    -0.273 OA
ATOM      3  N   UNL     1      36.147 -23.634 -14.042  0.00  0.00    -0.295 N 
ATOM      4  C   ACE A   0      35.885 -23.904 -15.379  0.00  0.00    +0.248 C 
ATOM      5  H   UNL     1      36.275 -22.698 -13.767  0.00  0.00    +0.150 HD
BRANCH   3   6
ATOM      6  CA  UNL     1      36.239 -24.665 -13.041  0.00  0.00    +0.171 C 
BRANCH   6   8
ATOM      7  OXT UNL     1      35.349 -25.088 -10.830  0.00  0.00    -0.248 OA
ATOM      8  C   UNL     1      35.275 -24.460 -11.882  0.00  0.00    +0.332 C 
BRANCH   8   9
ATOM      9  O   UNL     1      34.290 -23.564 -12.122  0.00  0.00    -0.479 OA
ATOM     10  H   UNL     1      34.384 -22.676 -11.841  0.00  0.00    +0.295 HD
ENDBRANCH   8   9
ENDBRANCH   6   8
BRANCH   6  11
ATOM     11  CB  UNL     1      37.685 -24.905 -12.583  0.00  0.00    +0.031 C 
BRANCH  11  12
ATOM     12  CG  UNL     1      38.543 -25.898 -13.399  0.00  0.00    +0.002 C 
ATOM     13  CD1 UNL     1      37.620 -26.901 -14.103  0.00  0.00    +0.000 C 
ATOM     14  CD2 UNL     1      39.447 -25.228 -14.432  0.00  0.00    +0.000 C 
ENDBRANCH  11  12
ENDBRANCH   6  11
ENDBRANCH   3   6
ENDBRANCH   1   4
BRANCH   1  15
ATOM     15  O   UNL     1      36.882 -22.661 -17.165  0.00  0.00    -0.377 OA
ATOM     16  H   UNL     1      36.581 -23.069 -17.993  0.00  0.00    +0.211 HD
ENDBRANCH   1  15
BRANCH   1  17
ATOM     17  C   UNL     1      34.462 -22.524 -16.972  0.00  0.00    -0.025 C 
BRANCH  17  18
ATOM     18  N   UNL     1      33.505 -23.429 -16.321  0.00  0.00    +0.384 N 
ATOM     19  H   UNL     1      33.239 -23.045 -15.413  0.00  0.00    -0.089 HD
ATOM     20  H   UNL     1      33.937 -24.343 -16.189  0.00  0.00    -0.089 HD
ATOM     21  H   UNL     1      32.676 -23.525 -16.906  0.00  0.00    -0.089 HD
ENDBRANCH  17  18
BRANCH  17  22
ATOM     22  C   UNL     1      34.582 -22.859 -18.477  0.00  0.00    +0.007 C 
BRANCH  22  23
ATOM     23  C   UNL     1      34.384 -21.662 -19.377  0.00  0.00    -0.024 C 
ATOM     24  C   UNL     1      35.489 -21.059 -19.955  0.00  0.00    -0.004 C 
ATOM     25  C   UNL     1      33.101 -21.191 -19.607  0.00  0.00    -0.004 C 
ATOM     26  C   UNL     1      35.306 -19.954 -20.787  0.00  0.00    -0.000 C 
ATOM     27  C   UNL     1      32.919 -20.086 -20.439  0.00  0.00    -0.000 C 
ATOM     28  C   UNL     1      34.021 -19.467 -21.028  0.00  0.00    -0.000 C 
ENDBRANCH  22  23
ENDBRANCH  17  22
ENDBRANCH   1  17
TORSDOF 11
ENDMDL
MODEL 7
REMARK VINA RESULT:      -8.4      1.586      2.682
REMARK  Name = 72172
REMARK  11 active torsions:
REMARK  status: ('A' for Active; 'I' for Inactive)
REMARK    1  A    between atoms: C_1  and  C_4
REMARK    2  A    between atoms: C_1  and  O_15
REMARK    3  A    between atoms: C_1  and  C_17
REMARK    4  A    between atoms: N_3  and  CA_6
REMARK    5  A    between atoms: CA_6  and  C_8
REMARK    6  A    between atoms: CA_6  and  CB_11
REMARK    7  A    between atoms: C_8  and  O_9
REMARK    8  A    between atoms: CB_11  and  CG_12
REMARK    9  A    between atoms: C_17  and  N_18
REMARK   10  A    between atoms: C_17  and  C_22
REMARK   11  A    between atoms: C_22  and  C_23
REMARK                            x       y       z     vdW  Elec       q    Type
REMARK                         _______ _______ _______ _____ _____    ______ ____
ROOT
ATOM      1  C   UNL     1      34.488 -16.959 -23.967  0.00  0.00    +0.167 C 
ENDROOT
BRANCH   1   4
ATOM      2  O   UNL     1      35.343 -15.423 -22.305  0.00  0.00    -0.273 OA
ATOM      3  N   UNL     1      33.720 -14.662 -23.781  0.00  0.00    -0.295 N 
ATOM      4  C   ACE A   0      34.586 -15.612 -23.254  0.00  0.00    +0.248 C 
ATOM      5  H   UNL     1      33.153 -14.914 -24.545  0.00  0.00    +0.150 HD
BRANCH   3   6
ATOM      6  CA  UNL     1      33.617 -13.324 -23.257  0.00  0.00    +0.171 C 
BRANCH   6   8
ATOM      7  OXT UNL     1      32.666 -13.667 -21.058  0.00  0.00    -0.248 OA
ATOM      8  C   UNL     1      32.552 -13.185 -22.180  0.00  0.00    +0.332 C 
BRANCH   8   9
ATOM      9  O   UNL     1      31.436 -12.529 -22.576  0.00  0.00    -0.479 OA
ATOM     10  H   UNL     1      30.627 -12.665 -22.125  0.00  0.00    +0.295 HD
ENDBRANCH   8   9
ENDBRANCH   6   8
BRANCH   6  11
ATOM     11  CB  UNL     1      33.486 -12.273 -24.369  0.00  0.00    +0.031 C 
BRANCH  11  12
ATOM     12  CG  UNL     1      34.206 -10.920 -24.169  0.00  0.00    +0.002 C 
ATOM     13  CD1 UNL     1      34.993 -10.574 -25.439  0.00  0.00    +0.000 C 
ATOM     14  CD2 UNL     1      33.266  -9.767 -23.824  0.00  0.00    +0.000 C 
ENDBRANCH  11  12
ENDBRANCH   6  11
ENDBRANCH   3   6
ENDBRANCH   1   4
BRANCH   1  15
ATOM     15  O   UNL     1      35.301 -16.915 -25.130  0.00  0.00    -0.377 OA
ATOM     16  H   UNL     1      35.724 -16.044 -25.195  0.00  0.00    +0.211 HD
ENDBRANCH   1  15
BRANCH   1  17
ATOM     17  C   UNL     1      34.925 -18.124 -23.055  0.00  0.00    -0.025 C 
BRANCH  17  18
ATOM     18  N   UNL     1      34.773 -19.376 -23.808  0.00  0.00    +0.384 N 
ATOM     19  H   UNL     1      33.784 -19.620 -23.865  0.00  0.00    -0.089 HD
ATOM     20  H   UNL     1      35.280 -20.123 -23.332  0.00  0.00    -0.089 HD
ATOM     21  H   UNL     1      35.148 -19.255 -24.748  0.00  0.00    -0.089 HD
ENDBRANCH  17  18
BRANCH  17  22
ATOM     22  C   UNL     1      34.112 -18.184 -21.741  0.00  0.00    +0.007 C 
BRANCH  22  23
ATOM     23  C   UNL     1      34.357 -19.440 -20.938  0.00  0.00    -0.024 C 
ATOM     24  C   UNL     1      33.275 -20.174 -20.480  0.00  0.00    -0.004 C 
ATOM     25  C   UNL     1      35.659 -19.834 -20.675  0.00  0.00    -0.004 C 
ATOM     26  C   UNL     1      33.501 -21.334 -19.739  0.00  0.00    -0.000 C 
ATOM     27  C   UNL     1      35.884 -20.994 -19.934  0.00  0.00    -0.000 C 
ATOM     28  C   UNL     1      34.806 -21.743 -19.466  0.00  0.00    -0.000 C 
ENDBRANCH  22  23
ENDBRANCH  17  22
ENDBRANCH   1  17
TORSDOF 11
ENDMDL
MODEL 8
REMARK VINA RESULT:      -8.3      2.190      7.358
REMARK  Name = 72172
REMARK  11 active torsions:
REMARK  status: ('A' for Active; 'I' for Inactive)
REMARK    1  A    between atoms: C_1  and  C_4
REMARK    2  A    between atoms: C_1  and  O_15
REMARK    3  A    between atoms: C_1  and  C_17
REMARK    4  A    between atoms: N_3  and  CA_6
REMARK    5  A    between atoms: CA_6  and  C_8
REMARK    6  A    between atoms: CA_6  and  CB_11
REMARK    7  A    between atoms: C_8  and  O_9
REMARK    8  A    between atoms: CB_11  and  CG_12
REMARK    9  A    between atoms: C_17  and  N_18
REMARK   10  A    between atoms: C_17  and  C_22
REMARK   11  A    between atoms: C_22  and  C_23
REMARK                            x       y       z     vdW  Elec       q    Type
REMARK                         _______ _______ _______ _____ _____    ______ ____
ROOT
ATOM      1  C   UNL     1      34.383 -14.601 -21.313  0.00  0.00    +0.167 C 
ENDROOT
BRANCH   1   4
ATOM      2  O   UNL     1      35.286 -16.569 -20.234  0.00  0.00    -0.273 OA
ATOM      3  N   UNL     1      34.494 -16.767 -22.407  0.00  0.00    -0.295 N 
ATOM      4  C   ACE A   0      34.769 -16.076 -21.234  0.00  0.00    +0.248 C 
ATOM      5  H   UNL     1      34.077 -16.278 -23.153  0.00  0.00    +0.150 HD
BRANCH   3   6
ATOM      6  CA  UNL     1      34.794 -18.164 -22.580  0.00  0.00    +0.171 C 
BRANCH   6   8
ATOM      7  OXT UNL     1      34.958 -19.724 -24.423  0.00  0.00    -0.248 OA
ATOM      8  C   UNL     1      34.983 -18.560 -24.036  0.00  0.00    +0.332 C 
BRANCH   8   9
ATOM      9  O   UNL     1      35.238 -17.525 -24.871  0.00  0.00    -0.479 OA
ATOM     10  H   UNL     1      35.033 -16.650 -24.609  0.00  0.00    +0.295 HD
ENDBRANCH   8   9
ENDBRANCH   6   8
BRANCH   6  11
ATOM     11  CB  UNL     1      33.798 -19.068 -21.838  0.00  0.00    +0.031 C 
BRANCH  11  12
ATOM     12  CG  UNL     1      34.285 -19.771 -20.551  0.00  0.00    +0.002 C 
ATOM     13  CD1 UNL     1      33.267 -20.844 -20.145  0.00  0.00    +0.000 C 
ATOM     14  CD2 UNL     1      35.668 -20.408 -20.682  0.00  0.00    +0.000 C 
ENDBRANCH  11  12
ENDBRANCH   6  11
ENDBRANCH   3   6
ENDBRANCH   1   4
BRANCH   1  15
ATOM     15  O   UNL     1      34.487 -14.178 -22.664  0.00  0.00    -0.377 OA
ATOM     16  H   UNL     1      35.193 -14.677 -23.105  0.00  0.00    +0.211 HD
ENDBRANCH   1  15
BRANCH   1  17
ATOM     17  C   UNL     1      32.954 -14.353 -20.785  0.00  0.00    -0.025 C 
BRANCH  17  18
ATOM     18  N   UNL     1      32.314 -15.658 -20.568  0.00  0.00    +0.384 N 
ATOM     19  H   UNL     1      33.028 -16.387 -20.549  0.00  0.00    -0.089 HD
ATOM     20  H   UNL     1      31.658 -15.845 -21.326  0.00  0.00    -0.089 HD
ATOM     21  H   UNL     1      31.815 -15.648 -19.679  0.00  0.00    -0.089 HD
ENDBRANCH  17  18
BRANCH  17  22
ATOM     22  C   UNL     1      32.108 -13.492 -21.752  0.00  0.00    +0.007 C 
BRANCH  22  23
ATOM     23  C   UNL     1      31.959 -12.057 -21.305  0.00  0.00    -0.024 C 
ATOM     24  C   UNL     1      31.747 -11.783 -19.964  0.00  0.00    -0.004 C 
ATOM     25  C   UNL     1      32.037 -11.042 -22.246  0.00  0.00    -0.004 C 
ATOM     26  C   UNL     1      31.609 -10.457 -19.552  0.00  0.00    -0.000 C 
ATOM     27  C   UNL     1      31.899  -9.717 -21.833  0.00  0.00    -0.000 C 
ATOM     28  C   UNL     1      31.685  -9.425 -20.486  0.00  0.00    -0.000 C 
ENDBRANCH  22  23
ENDBRANCH  17  22
ENDBRANCH   1  17
TORSDOF 11
ENDMDL
MODEL 9
REMARK VINA RESULT:      -8.2      8.423     12.671
REMARK  Name = 72172
REMARK  11 active torsions:
REMARK  status: ('A' for Active; 'I' for Inactive)
REMARK    1  A    between atoms: C_1  and  C_4
REMARK    2  A    between atoms: C_1  and  O_15
REMARK    3  A    between atoms: C_1  and  C_17
REMARK    4  A    between atoms: N_3  and  CA_6
REMARK    5  A    between atoms: CA_6  and  C_8
REMARK    6  A    between atoms: CA_6  and  CB_11
REMARK    7  A    between atoms: C_8  and  O_9
REMARK    8  A    between atoms: CB_11  and  CG_12
REMARK    9  A    between atoms: C_17  and  N_18
REMARK   10  A    between atoms: C_17  and  C_22
REMARK   11  A    between atoms: C_22  and  C_23
REMARK                            x       y       z     vdW  Elec       q    Type
REMARK                         _______ _______ _______ _____ _____    ______ ____
ROOT
ATOM      1  C   UNL     1      33.894 -24.446 -14.722  0.00  0.00    +0.167 C 
ENDROOT
BRANCH   1   4
ATOM      2  O   UNL     1      35.755 -23.045 -14.070  0.00  0.00    -0.273 OA
ATOM      3  N   UNL     1      35.478 -25.084 -12.995  0.00  0.00    -0.295 N 
ATOM      4  C   ACE A   0      35.134 -24.092 -13.905  0.00  0.00    +0.248 C 
ATOM      5  H   UNL     1      34.913 -25.888 -12.940  0.00  0.00    +0.150 HD
BRANCH   3   6
ATOM      6  CA  UNL     1      36.625 -24.986 -12.130  0.00  0.00    +0.171 C 
BRANCH   6   8
ATOM      7  OXT UNL     1      35.580 -24.309 -10.055  0.00  0.00    -0.248 OA
ATOM      8  C   UNL     1      36.398 -24.070 -10.937  0.00  0.00    +0.332 C 
BRANCH   8   9
ATOM      9  O   UNL     1      37.135 -22.934 -10.953  0.00  0.00    -0.479 OA
ATOM     10  H   UNL     1      37.571 -22.669 -11.737  0.00  0.00    +0.295 HD
ENDBRANCH   8   9
ENDBRANCH   6   8
BRANCH   6  11
ATOM     11  CB  UNL     1      37.910 -24.655 -12.903  0.00  0.00    +0.031 C 
BRANCH  11  12
ATOM     12  CG  UNL     1      38.723 -25.834 -13.486  0.00  0.00    +0.002 C 
ATOM     13  CD1 UNL     1      37.930 -26.474 -14.633  0.00  0.00    +0.000 C 
ATOM     14  CD2 UNL     1      40.110 -25.439 -13.986  0.00  0.00    +0.000 C 
ENDBRANCH  11  12
ENDBRANCH   6  11
ENDBRANCH   3   6
ENDBRANCH   1   4
BRANCH   1  15
ATOM     15  O   UNL     1      32.914 -24.983 -13.847  0.00  0.00    -0.377 OA
ATOM     16  H   UNL     1      32.117 -24.430 -13.876  0.00  0.00    +0.211 HD
ENDBRANCH   1  15
BRANCH   1  17
ATOM     17  C   UNL     1      33.328 -23.219 -15.467  0.00  0.00    -0.025 C 
BRANCH  17  18
ATOM     18  N   UNL     1      32.062 -22.839 -14.826  0.00  0.00    +0.384 N 
ATOM     19  H   UNL     1      31.445 -22.412 -15.518  0.00  0.00    -0.089 HD
ATOM     20  H   UNL     1      32.247 -22.170 -14.078  0.00  0.00    -0.089 HD
ATOM     21  H   UNL     1      31.615 -23.669 -14.438  0.00  0.00    -0.089 HD
ENDBRANCH  17  18
BRANCH  17  22
ATOM     22  C   UNL     1      33.109 -23.490 -16.974  0.00  0.00    +0.007 C 
BRANCH  22  23
ATOM     23  C   UNL     1      33.995 -22.656 -17.870  0.00  0.00    -0.024 C 
ATOM     24  C   UNL     1      33.448 -22.052 -18.990  0.00  0.00    -0.004 C 
ATOM     25  C   UNL     1      35.336 -22.512 -17.555  0.00  0.00    -0.004 C 
ATOM     26  C   UNL     1      34.265 -21.282 -19.818  0.00  0.00    -0.000 C 
ATOM     27  C   UNL     1      36.153 -21.742 -18.383  0.00  0.00    -0.000 C 
ATOM     28  C   UNL     1      35.617 -21.127 -19.514  0.00  0.00    -0.000 C 
ENDBRANCH  22  23
ENDBRANCH  17  22
ENDBRANCH   1  17
TORSDOF 11
ENDMDL
