MODEL 1
REMARK VINA RESULT:      -7.8      0.000      0.000
REMARK  Name = 4368
REMARK  8 active torsions:
REMARK  status: ('A' for Active; 'I' for Inactive)
REMARK    1  A    between atoms: N_1  and  C_2
REMARK    2  A    between atoms: N_1  and  S_15
REMARK    3  A    between atoms: N_1  and  C_26
REMARK    4  A    between atoms: C_4  and  C_11
REMARK    5  A    between atoms: N_10  and  O_13
REMARK    6  A    between atoms: S_15  and  C_18
REMARK    7  A    between atoms: C_23  and  O_24
REMARK    8  A    between atoms: C_26  and  C_28
REMARK                            x       y       z     vdW  Elec       q    Type
REMARK                         _______ _______ _______ _____ _____    ______ ____
ROOT
ATOM      1  N   UNL     1      36.141 -23.502 -14.866  0.00  0.00    -0.186 N 
ENDROOT
BRANCH   1   2
ATOM      2  C   UNL     1      36.683 -24.418 -13.907  0.00  0.00    +0.070 C 
ATOM      3  C   UNL     1      37.151 -23.944 -12.681  0.00  0.00    -0.007 C 
ATOM      4  C   UNL     1      36.744 -25.781 -14.197  0.00  0.00    +0.070 C 
ATOM      5  C   UNL     1      37.679 -24.833 -11.745  0.00  0.00    -0.003 C 
ATOM      6  C   UNL     1      37.273 -26.670 -13.261  0.00  0.00    +0.006 C 
ATOM      7  C   UNL     1      37.097 -22.491 -12.343  0.00  0.00    +0.032 C 
ATOM      8  C   UNL     1      37.739 -26.197 -12.035  0.00  0.00    -0.000 C 
BRANCH   4  11
ATOM      9  O   UNL     1      35.203 -25.897 -15.964  0.00  0.00    -0.268 OA
ATOM     10  N   UNL     1      37.038 -27.287 -16.076  0.00  0.00    -0.193 N 
ATOM     11  C   UNL     1      36.265 -26.309 -15.469  0.00  0.00    +0.269 C 
ATOM     12  H   UNL     1      37.878 -27.605 -15.673  0.00  0.00    +0.183 HD
BRANCH  10  13
ATOM     13  O   UNL     1      36.564 -27.800 -17.291  0.00  0.00    -0.295 OA
ATOM     14  H   UNL     1      36.291 -28.723 -17.168  0.00  0.00    +0.241 HD
ENDBRANCH  10  13
ENDBRANCH   4  11
ENDBRANCH   1   2
BRANCH   1  15
ATOM     15  S   UNL     1      37.276 -22.750 -15.951  0.00  0.00    +0.077 S 
ATOM     16  O   UNL     1      38.227 -23.736 -16.428  0.00  0.00    -0.150 OA
ATOM     17  O   UNL     1      37.765 -21.517 -15.364  0.00  0.00    -0.150 OA
BRANCH  15  18
ATOM     18  C   UNL     1      36.262 -22.298 -17.333  0.00  0.00    +0.126 C 
ATOM     19  C   UNL     1      36.772 -21.434 -18.284  0.00  0.00    +0.023 C 
ATOM     20  C   UNL     1      34.986 -22.820 -17.430  0.00  0.00    +0.023 C 
ATOM     21  C   UNL     1      35.974 -21.078 -19.372  0.00  0.00    +0.038 C 
ATOM     22  C   UNL     1      34.190 -22.464 -18.517  0.00  0.00    +0.038 C 
ATOM     23  C   UNL     1      34.683 -21.592 -19.488  0.00  0.00    +0.139 C 
BRANCH  23  24
ATOM     24  O   UNL     1      33.904 -21.245 -20.549  0.00  0.00    -0.471 OA
ATOM     25  C   UNL     1      32.981 -20.175 -20.356  0.00  0.00    +0.252 C 
ENDBRANCH  23  24
ENDBRANCH  15  18
ENDBRANCH   1  15
BRANCH   1  26
ATOM     26  C   UNL     1      34.987 -22.664 -14.420  0.00  0.00    +0.144 C 
BRANCH  26  28
ATOM     27  N   UNL     1      32.395 -25.084 -13.146  0.00  0.00    -0.243 NA
ATOM     28  C   UNL     1      33.715 -23.463 -14.330  0.00  0.00    +0.019 C 
ATOM     29  C   UNL     1      32.736 -23.330 -15.295  0.00  0.00    +0.001 C 
ATOM     30  C   UNL     1      33.514 -24.337 -13.285  0.00  0.00    +0.096 C 
ATOM     31  C   UNL     1      31.572 -24.081 -15.185  0.00  0.00    +0.020 C 
ATOM     32  C   UNL     1      31.451 -24.937 -14.102  0.00  0.00    +0.099 C 
ENDBRANCH  26  28
ENDBRANCH   1  26
TORSDOF 8
ENDMDL
MODEL 2
REMARK VINA RESULT:      -7.5      2.791      5.440
REMARK  Name = 4368
REMARK  8 active torsions:
REMARK  status: ('A' for Active; 'I' for Inactive)
REMARK    1  A    between atoms: N_1  and  C_2
REMARK    2  A    between atoms: N_1  and  S_15
REMARK    3  A    between atoms: N_1  and  C_26
REMARK    4  A    between atoms: C_4  and  C_11
REMARK    5  A    between atoms: N_10  and  O_13
REMARK    6  A    between atoms: S_15  and  C_18
REMARK    7  A    between atoms: C_23  and  O_24
REMARK    8  A    between atoms: C_26  and  C_28
REMARK                            x       y       z     vdW  Elec       q    Type
REMARK                         _______ _______ _______ _____ _____    ______ ____
ROOT
ATOM      1  N   UNL     1      35.422 -24.047 -14.137  0.00  0.00    -0.186 N 
ENDROOT
BRANCH   1   2
ATOM      2  C   UNL     1      36.638 -24.798 -14.033  0.00  0.00    +0.070 C 
ATOM      3  C   UNL     1      36.838 -25.913 -14.847  0.00  0.00    -0.007 C 
ATOM      4  C   UNL     1      37.620 -24.416 -13.119  0.00  0.00    +0.070 C 
ATOM      5  C   UNL     1      38.020 -26.646 -14.748  0.00  0.00    -0.003 C 
ATOM      6  C   UNL     1      38.803 -25.150 -13.019  0.00  0.00    +0.006 C 
ATOM      7  C   UNL     1      35.805 -26.344 -15.835  0.00  0.00    +0.032 C 
ATOM      8  C   UNL     1      39.003 -26.264 -13.834  0.00  0.00    -0.000 C 
BRANCH   4  11
ATOM      9  O   UNL     1      37.696 -22.114 -12.668  0.00  0.00    -0.268 OA
ATOM     10  N   UNL     1      36.998 -23.498 -10.962  0.00  0.00    -0.193 N 
ATOM     11  C   UNL     1      37.443 -23.257 -12.253  0.00  0.00    +0.269 C 
ATOM     12  H   UNL     1      36.801 -24.409 -10.645  0.00  0.00    +0.183 HD
BRANCH  10  13
ATOM     13  O   UNL     1      36.844 -22.380 -10.131  0.00  0.00    -0.295 OA
ATOM     14  H   UNL     1      37.676 -21.883 -10.099  0.00  0.00    +0.241 HD
ENDBRANCH  10  13
ENDBRANCH   4  11
ENDBRANCH   1   2
BRANCH   1  15
ATOM     15  S   UNL     1      34.326 -24.149 -12.790  0.00  0.00    +0.077 S 
ATOM     16  O   UNL     1      34.442 -22.957 -11.971  0.00  0.00    -0.150 OA
ATOM     17  O   UNL     1      34.444 -25.454 -12.165  0.00  0.00    -0.150 OA
BRANCH  15  18
ATOM     18  C   UNL     1      32.734 -24.090 -13.567  0.00  0.00    +0.126 C 
ATOM     19  C   UNL     1      32.006 -25.258 -13.693  0.00  0.00    +0.023 C 
ATOM     20  C   UNL     1      32.258 -22.878 -14.029  0.00  0.00    +0.023 C 
ATOM     21  C   UNL     1      30.753 -25.211 -14.305  0.00  0.00    +0.038 C 
ATOM     22  C   UNL     1      31.005 -22.833 -14.641  0.00  0.00    +0.038 C 
ATOM     23  C   UNL     1      30.253 -23.999 -14.780  0.00  0.00    +0.139 C 
BRANCH  23  24
ATOM     24  O   UNL     1      29.031 -23.954 -15.377  0.00  0.00    -0.471 OA
ATOM     25  C   UNL     1      28.543 -22.669 -15.761  0.00  0.00    +0.252 C 
ENDBRANCH  23  24
ENDBRANCH  15  18
ENDBRANCH   1  15
BRANCH   1  26
ATOM     26  C   UNL     1      34.805 -23.950 -15.495  0.00  0.00    +0.144 C 
BRANCH  26  28
ATOM     27  N   UNL     1      35.729 -21.890 -18.511  0.00  0.00    -0.243 NA
ATOM     28  C   UNL     1      35.544 -22.984 -16.381  0.00  0.00    +0.019 C 
ATOM     29  C   UNL     1      36.667 -22.329 -15.916  0.00  0.00    +0.001 C 
ATOM     30  C   UNL     1      35.110 -22.744 -17.665  0.00  0.00    +0.096 C 
ATOM     31  C   UNL     1      37.330 -21.443 -16.757  0.00  0.00    +0.020 C 
ATOM     32  C   UNL     1      36.826 -21.260 -18.035  0.00  0.00    +0.099 C 
ENDBRANCH  26  28
ENDBRANCH   1  26
TORSDOF 8
ENDMDL
MODEL 3
REMARK VINA RESULT:      -6.6      1.382      2.814
REMARK  Name = 4368
REMARK  8 active torsions:
REMARK  status: ('A' for Active; 'I' for Inactive)
REMARK    1  A    between atoms: N_1  and  C_2
REMARK    2  A    between atoms: N_1  and  S_15
REMARK    3  A    between atoms: N_1  and  C_26
REMARK    4  A    between atoms: C_4  and  C_11
REMARK    5  A    between atoms: N_10  and  O_13
REMARK    6  A    between atoms: S_15  and  C_18
REMARK    7  A    between atoms: C_23  and  O_24
REMARK    8  A    between atoms: C_26  and  C_28
REMARK                            x       y       z     vdW  Elec       q    Type
REMARK                         _______ _______ _______ _____ _____    ______ ____
ROOT
ATOM      1  N   UNL     1      35.900 -23.666 -14.986  0.00  0.00    -0.186 N 
ENDROOT
BRANCH   1   2
ATOM      2  C   UNL     1      36.371 -24.853 -14.336  0.00  0.00    +0.070 C 
ATOM      3  C   UNL     1      36.267 -26.086 -14.981  0.00  0.00    -0.007 C 
ATOM      4  C   UNL     1      36.931 -24.778 -13.061  0.00  0.00    +0.070 C 
ATOM      5  C   UNL     1      36.723 -27.243 -14.351  0.00  0.00    -0.003 C 
ATOM      6  C   UNL     1      37.387 -25.937 -12.430  0.00  0.00    +0.006 C 
ATOM      7  C   UNL     1      35.672 -26.196 -16.346  0.00  0.00    +0.032 C 
ATOM      8  C   UNL     1      37.284 -27.168 -13.075  0.00  0.00    -0.000 C 
BRANCH   4  11
ATOM      9  O   UNL     1      36.190 -23.150 -11.540  0.00  0.00    -0.268 OA
ATOM     10  N   UNL     1      38.161 -22.727 -12.658  0.00  0.00    -0.193 N 
ATOM     11  C   UNL     1      37.054 -23.507 -12.359  0.00  0.00    +0.269 C 
ATOM     12  H   UNL     1      38.839 -23.020 -13.309  0.00  0.00    +0.183 HD
BRANCH  10  13
ATOM     13  O   UNL     1      38.265 -21.499 -11.990  0.00  0.00    -0.295 OA
ATOM     14  H   UNL     1      37.807 -20.812 -12.500  0.00  0.00    +0.241 HD
ENDBRANCH  10  13
ENDBRANCH   4  11
ENDBRANCH   1   2
BRANCH   1  15
ATOM     15  S   UNL     1      37.079 -22.748 -15.877  0.00  0.00    +0.077 S 
ATOM     16  O   UNL     1      38.149 -23.621 -16.321  0.00  0.00    -0.150 OA
ATOM     17  O   UNL     1      37.408 -21.538 -15.145  0.00  0.00    -0.150 OA
BRANCH  15  18
ATOM     18  C   UNL     1      36.183 -22.250 -17.323  0.00  0.00    +0.126 C 
ATOM     19  C   UNL     1      34.897 -22.719 -17.510  0.00  0.00    +0.023 C 
ATOM     20  C   UNL     1      36.791 -21.402 -18.230  0.00  0.00    +0.023 C 
ATOM     21  C   UNL     1      34.192 -22.327 -18.649  0.00  0.00    +0.038 C 
ATOM     22  C   UNL     1      36.085 -21.011 -19.368  0.00  0.00    +0.038 C 
ATOM     23  C   UNL     1      34.786 -21.474 -19.577  0.00  0.00    +0.139 C 
BRANCH  23  24
ATOM     24  O   UNL     1      34.099 -21.092 -20.688  0.00  0.00    -0.471 OA
ATOM     25  C   UNL     1      33.059 -20.131 -20.511  0.00  0.00    +0.252 C 
ENDBRANCH  23  24
ENDBRANCH  15  18
ENDBRANCH   1  15
BRANCH   1  26
ATOM     26  C   UNL     1      34.842 -22.885 -14.277  0.00  0.00    +0.144 C 
BRANCH  26  28
ATOM     27  N   UNL     1      31.976 -25.147 -13.345  0.00  0.00    -0.243 NA
ATOM     28  C   UNL     1      33.506 -23.576 -14.326  0.00  0.00    +0.019 C 
ATOM     29  C   UNL     1      32.614 -23.302 -15.345  0.00  0.00    +0.001 C 
ATOM     30  C   UNL     1      33.158 -24.491 -13.358  0.00  0.00    +0.096 C 
ATOM     31  C   UNL     1      31.388 -23.956 -15.365  0.00  0.00    +0.020 C 
ATOM     32  C   UNL     1      31.119 -24.862 -14.351  0.00  0.00    +0.099 C 
ENDBRANCH  26  28
ENDBRANCH   1  26
TORSDOF 8
ENDMDL
MODEL 4
REMARK VINA RESULT:      -5.9      2.536      6.288
REMARK  Name = 4368
REMARK  8 active torsions:
REMARK  status: ('A' for Active; 'I' for Inactive)
REMARK    1  A    between atoms: N_1  and  C_2
REMARK    2  A    between atoms: N_1  and  S_15
REMARK    3  A    between atoms: N_1  and  C_26
REMARK    4  A    between atoms: C_4  and  C_11
REMARK    5  A    between atoms: N_10  and  O_13
REMARK    6  A    between atoms: S_15  and  C_18
REMARK    7  A    between atoms: C_23  and  O_24
REMARK    8  A    between atoms: C_26  and  C_28
REMARK                            x       y       z     vdW  Elec       q    Type
REMARK                         _______ _______ _______ _____ _____    ______ ____
ROOT
ATOM      1  N   UNL     1      33.666 -23.430 -14.743  0.00  0.00    -0.186 N 
ENDROOT
BRANCH   1   2
ATOM      2  C   UNL     1      32.352 -23.147 -15.238  0.00  0.00    +0.070 C 
ATOM      3  C   UNL     1      31.330 -22.817 -14.348  0.00  0.00    -0.007 C 
ATOM      4  C   UNL     1      32.093 -23.203 -16.607  0.00  0.00    +0.070 C 
ATOM      5  C   UNL     1      30.049 -22.542 -14.826  0.00  0.00    -0.003 C 
ATOM      6  C   UNL     1      30.811 -22.928 -17.086  0.00  0.00    +0.006 C 
ATOM      7  C   UNL     1      31.579 -22.749 -12.877  0.00  0.00    +0.032 C 
ATOM      8  C   UNL     1      29.790 -22.597 -16.197  0.00  0.00    -0.000 C 
BRANCH   4  11
ATOM      9  O   UNL     1      33.938 -24.464 -17.325  0.00  0.00    -0.268 OA
ATOM     10  N   UNL     1      33.193 -22.796 -18.730  0.00  0.00    -0.193 N 
ATOM     11  C   UNL     1      33.137 -23.545 -17.565  0.00  0.00    +0.269 C 
ATOM     12  H   UNL     1      32.552 -22.070 -18.909  0.00  0.00    +0.183 HD
BRANCH  10  13
ATOM     13  O   UNL     1      34.209 -23.121 -19.640  0.00  0.00    -0.295 OA
ATOM     14  H   UNL     1      35.000 -23.405 -19.154  0.00  0.00    +0.241 HD
ENDBRANCH  10  13
ENDBRANCH   4  11
ENDBRANCH   1   2
BRANCH   1  15
ATOM     15  S   UNL     1      33.810 -24.758 -13.628  0.00  0.00    +0.077 S 
ATOM     16  O   UNL     1      32.874 -25.806 -13.990  0.00  0.00    -0.150 OA
ATOM     17  O   UNL     1      33.819 -24.252 -12.268  0.00  0.00    -0.150 OA
BRANCH  15  18
ATOM     18  C   UNL     1      35.436 -25.380 -13.959  0.00  0.00    +0.126 C 
ATOM     19  C   UNL     1      36.395 -25.310 -12.967  0.00  0.00    +0.023 C 
ATOM     20  C   UNL     1      35.707 -25.923 -15.201  0.00  0.00    +0.023 C 
ATOM     21  C   UNL     1      37.676 -25.800 -13.228  0.00  0.00    +0.038 C 
ATOM     22  C   UNL     1      36.987 -26.412 -15.461  0.00  0.00    +0.038 C 
ATOM     23  C   UNL     1      37.972 -26.350 -14.474  0.00  0.00    +0.139 C 
BRANCH  23  24
ATOM     24  O   UNL     1      39.220 -26.828 -14.729  0.00  0.00    -0.471 OA
ATOM     25  C   UNL     1      40.301 -25.901 -14.643  0.00  0.00    +0.252 C 
ENDBRANCH  23  24
ENDBRANCH  15  18
ENDBRANCH   1  15
BRANCH   1  26
ATOM     26  C   UNL     1      34.562 -22.258 -14.505  0.00  0.00    +0.144 C 
BRANCH  26  28
ATOM     27  N   UNL     1      38.149 -22.823 -15.510  0.00  0.00    -0.243 NA
ATOM     28  C   UNL     1      35.806 -22.320 -15.350  0.00  0.00    +0.019 C 
ATOM     29  C   UNL     1      35.766 -21.950 -16.680  0.00  0.00    +0.001 C 
ATOM     30  C   UNL     1      36.997 -22.745 -14.807  0.00  0.00    +0.096 C 
ATOM     31  C   UNL     1      36.930 -22.017 -17.436  0.00  0.00    +0.020 C 
ATOM     32  C   UNL     1      38.086 -22.455 -16.810  0.00  0.00    +0.099 C 
ENDBRANCH  26  28
ENDBRANCH   1  26
TORSDOF 8
ENDMDL
MODEL 5
REMARK VINA RESULT:      -5.6      2.454      4.675
REMARK  Name = 4368
REMARK  8 active torsions:
REMARK  status: ('A' for Active; 'I' for Inactive)
REMARK    1  A    between atoms: N_1  and  C_2
REMARK    2  A    between atoms: N_1  and  S_15
REMARK    3  A    between atoms: N_1  and  C_26
REMARK    4  A    between atoms: C_4  and  C_11
REMARK    5  A    between atoms: N_10  and  O_13
REMARK    6  A    between atoms: S_15  and  C_18
REMARK    7  A    between atoms: C_23  and  O_24
REMARK    8  A    between atoms: C_26  and  C_28
REMARK                            x       y       z     vdW  Elec       q    Type
REMARK                         _______ _______ _______ _____ _____    ______ ____
ROOT
ATOM      1  N   UNL     1      35.458 -24.085 -15.064  0.00  0.00    -0.186 N 
ENDROOT
BRANCH   1   2
ATOM      2  C   UNL     1      36.803 -24.574 -15.141  0.00  0.00    +0.070 C 
ATOM      3  C   UNL     1      37.072 -25.914 -14.862  0.00  0.00    -0.007 C 
ATOM      4  C   UNL     1      37.842 -23.712 -15.493  0.00  0.00    +0.070 C 
ATOM      5  C   UNL     1      38.380 -26.393 -14.935  0.00  0.00    -0.003 C 
ATOM      6  C   UNL     1      39.151 -24.191 -15.566  0.00  0.00    +0.006 C 
ATOM      7  C   UNL     1      35.980 -26.859 -14.484  0.00  0.00    +0.032 C 
ATOM      8  C   UNL     1      39.420 -25.531 -15.288  0.00  0.00    -0.000 C 
BRANCH   4  11
ATOM      9  O   UNL     1      37.509 -21.473 -14.873  0.00  0.00    -0.268 OA
ATOM     10  N   UNL     1      37.453 -21.961 -17.125  0.00  0.00    -0.193 N 
ATOM     11  C   UNL     1      37.595 -22.307 -15.790  0.00  0.00    +0.269 C 
ATOM     12  H   UNL     1      37.523 -22.632 -17.843  0.00  0.00    +0.183 HD
BRANCH  10  13
ATOM     13  O   UNL     1      37.202 -20.610 -17.402  0.00  0.00    -0.295 OA
ATOM     14  H   UNL     1      37.146 -20.114 -16.571  0.00  0.00    +0.241 HD
ENDBRANCH  10  13
ENDBRANCH   4  11
ENDBRANCH   1   2
BRANCH   1  15
ATOM     15  S   UNL     1      34.598 -23.935 -16.570  0.00  0.00    +0.077 S 
ATOM     16  O   UNL     1      34.614 -25.204 -17.273  0.00  0.00    -0.150 OA
ATOM     17  O   UNL     1      35.032 -22.734 -17.260  0.00  0.00    -0.150 OA
BRANCH  15  18
ATOM     18  C   UNL     1      32.928 -23.656 -16.045  0.00  0.00    +0.126 C 
ATOM     19  C   UNL     1      32.066 -22.976 -16.885  0.00  0.00    +0.023 C 
ATOM     20  C   UNL     1      32.525 -24.125 -14.810  0.00  0.00    +0.023 C 
ATOM     21  C   UNL     1      30.752 -22.756 -16.473  0.00  0.00    +0.038 C 
ATOM     22  C   UNL     1      31.211 -23.905 -14.398  0.00  0.00    +0.038 C 
ATOM     23  C   UNL     1      30.324 -23.220 -15.229  0.00  0.00    +0.139 C 
BRANCH  23  24
ATOM     24  O   UNL     1      29.042 -23.005 -14.826  0.00  0.00    -0.471 OA
ATOM     25  C   UNL     1      28.147 -22.436 -15.780  0.00  0.00    +0.252 C 
ENDBRANCH  23  24
ENDBRANCH  15  18
ENDBRANCH   1  15
BRANCH   1  26
ATOM     26  C   UNL     1      35.178 -23.047 -14.028  0.00  0.00    +0.144 C 
BRANCH  26  28
ATOM     27  N   UNL     1      35.093 -24.945 -10.774  0.00  0.00    -0.243 NA
ATOM     28  C   UNL     1      35.554 -23.514 -12.648  0.00  0.00    +0.019 C 
ATOM     29  C   UNL     1      36.651 -22.976 -12.003  0.00  0.00    +0.001 C 
ATOM     30  C   UNL     1      34.810 -24.482 -12.012  0.00  0.00    +0.096 C 
ATOM     31  C   UNL     1      36.974 -23.426 -10.728  0.00  0.00    +0.020 C 
ATOM     32  C   UNL     1      36.171 -24.403 -10.162  0.00  0.00    +0.099 C 
ENDBRANCH  26  28
ENDBRANCH   1  26
TORSDOF 8
ENDMDL
MODEL 6
REMARK VINA RESULT:      -5.1      8.587     13.712
REMARK  Name = 4368
REMARK  8 active torsions:
REMARK  status: ('A' for Active; 'I' for Inactive)
REMARK    1  A    between atoms: N_1  and  C_2
REMARK    2  A    between atoms: N_1  and  S_15
REMARK    3  A    between atoms: N_1  and  C_26
REMARK    4  A    between atoms: C_4  and  C_11
REMARK    5  A    between atoms: N_10  and  O_13
REMARK    6  A    between atoms: S_15  and  C_18
REMARK    7  A    between atoms: C_23  and  O_24
REMARK    8  A    between atoms: C_26  and  C_28
REMARK                            x       y       z     vdW  Elec       q    Type
REMARK                         _______ _______ _______ _____ _____    ______ ____
ROOT
ATOM      1  N   UNL     1      33.503 -13.878 -23.042  0.00  0.00    -0.186 N 
ENDROOT
BRANCH   1   2
ATOM      2  C   UNL     1      33.470 -13.661 -24.458  0.00  0.00    +0.070 C 
ATOM      3  C   UNL     1      33.276 -14.739 -25.322  0.00  0.00    -0.007 C 
ATOM      4  C   UNL     1      33.634 -12.375 -24.972  0.00  0.00    +0.070 C 
ATOM      5  C   UNL     1      33.245 -14.530 -26.701  0.00  0.00    -0.003 C 
ATOM      6  C   UNL     1      33.603 -12.167 -26.352  0.00  0.00    +0.006 C 
ATOM      7  C   UNL     1      33.098 -16.126 -24.800  0.00  0.00    +0.032 C 
ATOM      8  C   UNL     1      33.407 -13.243 -27.216  0.00  0.00    -0.000 C 
BRANCH   4  11
ATOM      9  O   UNL     1      34.924 -11.061 -23.517  0.00  0.00    -0.268 OA
ATOM     10  N   UNL     1      32.772 -10.355 -23.942  0.00  0.00    -0.193 N 
ATOM     11  C   UNL     1      33.839 -11.227 -24.098  0.00  0.00    +0.269 C 
ATOM     12  H   UNL     1      31.916 -10.498 -24.408  0.00  0.00    +0.183 HD
BRANCH  10  13
ATOM     13  O   UNL     1      32.972  -9.261 -23.088  0.00  0.00    -0.295 OA
ATOM     14  H   UNL     1      33.919  -9.170 -22.896  0.00  0.00    +0.241 HD
ENDBRANCH  10  13
ENDBRANCH   4  11
ENDBRANCH   1   2
BRANCH   1  15
ATOM     15  S   UNL     1      34.837 -14.811 -22.428  0.00  0.00    +0.077 S 
ATOM     16  O   UNL     1      35.410 -14.146 -21.273  0.00  0.00    -0.150 OA
ATOM     17  O   UNL     1      35.703 -15.201 -23.525  0.00  0.00    -0.150 OA
BRANCH  15  18
ATOM     18  C   UNL     1      34.052 -16.287 -21.838  0.00  0.00    +0.126 C 
ATOM     19  C   UNL     1      34.624 -17.511 -22.127  0.00  0.00    +0.023 C 
ATOM     20  C   UNL     1      32.888 -16.179 -21.102  0.00  0.00    +0.023 C 
ATOM     21  C   UNL     1      34.006 -18.673 -21.663  0.00  0.00    +0.038 C 
ATOM     22  C   UNL     1      32.271 -17.341 -20.639  0.00  0.00    +0.038 C 
ATOM     23  C   UNL     1      32.829 -18.588 -20.920  0.00  0.00    +0.139 C 
BRANCH  23  24
ATOM     24  O   UNL     1      32.226 -19.721 -20.467  0.00  0.00    -0.471 OA
ATOM     25  C   UNL     1      33.059 -20.697 -19.844  0.00  0.00    +0.252 C 
ENDBRANCH  23  24
ENDBRANCH  15  18
ENDBRANCH   1  15
BRANCH   1  26
ATOM     26  C   UNL     1      32.187 -14.066 -22.360  0.00  0.00    +0.144 C 
BRANCH  26  28
ATOM     27  N   UNL     1      30.639 -10.752 -21.452  0.00  0.00    -0.243 NA
ATOM     28  C   UNL     1      31.794 -12.857 -21.555  0.00  0.00    +0.019 C 
ATOM     29  C   UNL     1      32.201 -12.729 -20.241  0.00  0.00    +0.001 C 
ATOM     30  C   UNL     1      31.025 -11.863 -22.119  0.00  0.00    +0.096 C 
ATOM     31  C   UNL     1      31.823 -11.601 -19.523  0.00  0.00    +0.020 C 
ATOM     32  C   UNL     1      31.050 -10.649 -20.168  0.00  0.00    +0.099 C 
ENDBRANCH  26  28
ENDBRANCH   1  26
TORSDOF 8
ENDMDL
MODEL 7
REMARK VINA RESULT:      -4.9     13.481     16.962
REMARK  Name = 4368
REMARK  8 active torsions:
REMARK  status: ('A' for Active; 'I' for Inactive)
REMARK    1  A    between atoms: N_1  and  C_2
REMARK    2  A    between atoms: N_1  and  S_15
REMARK    3  A    between atoms: N_1  and  C_26
REMARK    4  A    between atoms: C_4  and  C_11
REMARK    5  A    between atoms: N_10  and  O_13
REMARK    6  A    between atoms: S_15  and  C_18
REMARK    7  A    between atoms: C_23  and  O_24
REMARK    8  A    between atoms: C_26  and  C_28
REMARK                            x       y       z     vdW  Elec       q    Type
REMARK                         _______ _______ _______ _____ _____    ______ ____
ROOT
ATOM      1  N   UNL     1      32.805  -9.395 -23.838  0.00  0.00    -0.186 N 
ENDROOT
BRANCH   1   2
ATOM      2  C   UNL     1      32.827  -8.915 -22.488  0.00  0.00    +0.070 C 
ATOM      3  C   UNL     1      33.548  -7.764 -22.172  0.00  0.00    -0.007 C 
ATOM      4  C   UNL     1      32.129  -9.597 -21.491  0.00  0.00    +0.070 C 
ATOM      5  C   UNL     1      33.572  -7.294 -20.859  0.00  0.00    -0.003 C 
ATOM      6  C   UNL     1      32.153  -9.127 -20.177  0.00  0.00    +0.006 C 
ATOM      7  C   UNL     1      34.303  -7.012 -23.219  0.00  0.00    +0.032 C 
ATOM      8  C   UNL     1      32.873  -7.976 -19.861  0.00  0.00    -0.000 C 
BRANCH   4  11
ATOM      9  O   UNL     1      30.218 -10.726 -22.257  0.00  0.00    -0.268 OA
ATOM     10  N   UNL     1      31.975 -12.017 -21.510  0.00  0.00    -0.193 N 
ATOM     11  C   UNL     1      31.366 -10.803 -21.787  0.00  0.00    +0.269 C 
ATOM     12  H   UNL     1      32.885 -12.066 -21.138  0.00  0.00    +0.183 HD
BRANCH  10  13
ATOM     13  O   UNL     1      31.229 -13.173 -21.784  0.00  0.00    -0.295 OA
ATOM     14  H   UNL     1      31.819 -13.866 -22.120  0.00  0.00    +0.241 HD
ENDBRANCH  10  13
ENDBRANCH   4  11
ENDBRANCH   1   2
BRANCH   1  15
ATOM     15  S   UNL     1      34.317  -9.957 -24.489  0.00  0.00    +0.077 S 
ATOM     16  O   UNL     1      35.292 -10.089 -23.423  0.00  0.00    -0.150 OA
ATOM     17  O   UNL     1      34.656  -9.183 -25.669  0.00  0.00    -0.150 OA
BRANCH  15  18
ATOM     18  C   UNL     1      33.927 -11.596 -25.040  0.00  0.00    +0.126 C 
ATOM     19  C   UNL     1      33.781 -12.601 -24.104  0.00  0.00    +0.023 C 
ATOM     20  C   UNL     1      33.776 -11.830 -26.394  0.00  0.00    +0.023 C 
ATOM     21  C   UNL     1      33.475 -13.891 -24.538  0.00  0.00    +0.038 C 
ATOM     22  C   UNL     1      33.470 -13.120 -26.827  0.00  0.00    +0.038 C 
ATOM     23  C   UNL     1      33.319 -14.151 -25.899  0.00  0.00    +0.139 C 
BRANCH  23  24
ATOM     24  O   UNL     1      33.020 -15.409 -26.323  0.00  0.00    -0.471 OA
ATOM     25  C   UNL     1      33.674 -16.491 -25.661  0.00  0.00    +0.252 C 
ENDBRANCH  23  24
ENDBRANCH  15  18
ENDBRANCH   1  15
BRANCH   1  26
ATOM     26  C   UNL     1      31.888  -8.693 -24.787  0.00  0.00    +0.144 C 
BRANCH  26  28
ATOM     27  N   UNL     1      30.321  -5.898 -22.805  0.00  0.00    -0.243 NA
ATOM     28  C   UNL     1      31.548  -7.304 -24.317  0.00  0.00    +0.019 C 
ATOM     29  C   UNL     1      32.114  -6.202 -24.928  0.00  0.00    +0.001 C 
ATOM     30  C   UNL     1      30.669  -7.117 -23.274  0.00  0.00    +0.096 C 
ATOM     31  C   UNL     1      31.780  -4.932 -24.473  0.00  0.00    +0.020 C 
ATOM     32  C   UNL     1      30.887  -4.834 -23.418  0.00  0.00    +0.099 C 
ENDBRANCH  26  28
ENDBRANCH   1  26
TORSDOF 8
ENDMDL
MODEL 8
REMARK VINA RESULT:      -4.9     14.987     18.400
REMARK  Name = 4368
REMARK  8 active torsions:
REMARK  status: ('A' for Active; 'I' for Inactive)
REMARK    1  A    between atoms: N_1  and  C_2
REMARK    2  A    between atoms: N_1  and  S_15
REMARK    3  A    between atoms: N_1  and  C_26
REMARK    4  A    between atoms: C_4  and  C_11
REMARK    5  A    between atoms: N_10  and  O_13
REMARK    6  A    between atoms: S_15  and  C_18
REMARK    7  A    between atoms: C_23  and  O_24
REMARK    8  A    between atoms: C_26  and  C_28
REMARK                            x       y       z     vdW  Elec       q    Type
REMARK                         _______ _______ _______ _____ _____    ______ ____
ROOT
ATOM      1  N   UNL     1      32.642  -7.365 -23.210  0.00  0.00    -0.186 N 
ENDROOT
BRANCH   1   2
ATOM      2  C   UNL     1      32.176  -6.054 -23.551  0.00  0.00    +0.070 C 
ATOM      3  C   UNL     1      32.245  -5.614 -24.873  0.00  0.00    -0.007 C 
ATOM      4  C   UNL     1      31.654  -5.218 -22.564  0.00  0.00    +0.070 C 
ATOM      5  C   UNL     1      31.791  -4.339 -25.208  0.00  0.00    -0.003 C 
ATOM      6  C   UNL     1      31.201  -3.942 -22.900  0.00  0.00    +0.006 C 
ATOM      7  C   UNL     1      32.798  -6.488 -25.951  0.00  0.00    +0.032 C 
ATOM      8  C   UNL     1      31.269  -3.502 -24.221  0.00  0.00    -0.000 C 
BRANCH   4  11
ATOM      9  O   UNL     1      30.464  -5.761 -20.614  0.00  0.00    -0.268 OA
ATOM     10  N   UNL     1      32.763  -5.901 -20.518  0.00  0.00    -0.193 N 
ATOM     11  C   UNL     1      31.568  -5.646 -21.174  0.00  0.00    +0.269 C 
ATOM     12  H   UNL     1      33.632  -5.807 -20.972  0.00  0.00    +0.183 HD
BRANCH  10  13
ATOM     13  O   UNL     1      32.673  -6.299 -19.177  0.00  0.00    -0.295 OA
ATOM     14  H   UNL     1      33.349  -5.837 -18.656  0.00  0.00    +0.241 HD
ENDBRANCH  10  13
ENDBRANCH   4  11
ENDBRANCH   1   2
BRANCH   1  15
ATOM     15  S   UNL     1      34.351  -7.652 -23.379  0.00  0.00    +0.077 S 
ATOM     16  O   UNL     1      34.934  -7.919 -22.078  0.00  0.00    -0.150 OA
ATOM     17  O   UNL     1      34.935  -6.625 -24.222  0.00  0.00    -0.150 OA
BRANCH  15  18
ATOM     18  C   UNL     1      34.410  -9.168 -24.295  0.00  0.00    +0.126 C 
ATOM     19  C   UNL     1      35.143  -9.216 -25.465  0.00  0.00    +0.023 C 
ATOM     20  C   UNL     1      33.724 -10.268 -23.816  0.00  0.00    +0.023 C 
ATOM     21  C   UNL     1      35.189 -10.410 -26.186  0.00  0.00    +0.038 C 
ATOM     22  C   UNL     1      33.771 -11.461 -24.537  0.00  0.00    +0.038 C 
ATOM     23  C   UNL     1      34.503 -11.532 -25.723  0.00  0.00    +0.139 C 
BRANCH  23  24
ATOM     24  O   UNL     1      34.548 -12.697 -26.425  0.00  0.00    -0.471 OA
ATOM     25  C   UNL     1      33.325 -13.158 -26.998  0.00  0.00    +0.252 C 
ENDBRANCH  23  24
ENDBRANCH  15  18
ENDBRANCH   1  15
BRANCH   1  26
ATOM     26  C   UNL     1      31.738  -8.508 -23.538  0.00  0.00    +0.144 C 
BRANCH  26  28
ATOM     27  N   UNL     1      30.513 -11.387 -21.438  0.00  0.00    -0.243 NA
ATOM     28  C   UNL     1      31.478  -9.380 -22.339  0.00  0.00    +0.019 C 
ATOM     29  C   UNL     1      31.934  -9.006 -21.090  0.00  0.00    +0.001 C 
ATOM     30  C   UNL     1      30.780 -10.560 -22.473  0.00  0.00    +0.096 C 
ATOM     31  C   UNL     1      31.678  -9.831 -20.002  0.00  0.00    +0.020 C 
ATOM     32  C   UNL     1      30.969 -11.001 -20.225  0.00  0.00    +0.099 C 
ENDBRANCH  26  28
ENDBRANCH   1  26
TORSDOF 8
ENDMDL
