MODEL 1
REMARK VINA RESULT:      -7.5      0.000      0.000
REMARK  Name = 4369102
REMARK  7 active torsions:
REMARK  status: ('A' for Active; 'I' for Inactive)
REMARK    1  A    between atoms: N_5  and  C_23
REMARK    2  A    between atoms: C_6  and  N_18
REMARK    3  A    between atoms: C_11  and  S_12
REMARK    4  A    between atoms: S_12  and  N_15
REMARK    5  A    between atoms: N_18  and  C_21
REMARK    6  A    between atoms: C_23  and  C_24
REMARK    7  A    between atoms: C_24  and  O_25
REMARK                            x       y       z     vdW  Elec       q    Type
REMARK                         _______ _______ _______ _____ _____    ______ ____
ROOT
ATOM      1  S   UNL     1      31.822 -24.271 -14.281  0.00  0.00    +0.069 S 
ATOM      2  S   UNL     1      34.715 -24.472 -13.602  0.00  0.00    -0.048 S 
ATOM      3  O   UNL     1      31.524 -23.329 -13.222  0.00  0.00    -0.152 OA
ATOM      4  O   UNL     1      31.687 -25.703 -14.106  0.00  0.00    -0.152 OA
ATOM      5  N   UNL     1      31.038 -23.780 -15.746  0.00  0.00    -0.154 NA
ATOM      6  C   UNL     1      33.070 -22.809 -16.881  0.00  0.00    -0.019 C 
ATOM      7  C   UNL     1      31.620 -22.552 -16.396  0.00  0.00    +0.079 C 
ATOM      8  C   UNL     1      33.983 -23.328 -15.798  0.00  0.00    -0.014 C 
ATOM      9  C   UNL     1      33.509 -23.977 -14.678  0.00  0.00    +0.147 C 
ATOM     10  C   UNL     1      35.409 -23.241 -15.755  0.00  0.00    +0.022 C 
ATOM     11  C   UNL     1      35.935 -23.825 -14.620  0.00  0.00    +0.152 C 
ENDROOT
BRANCH  11  12
ATOM     12  S   UNL     1      37.575 -24.027 -14.021  0.00  0.00    +0.063 S 
ATOM     13  O   UNL     1      37.817 -22.898 -13.131  0.00  0.00    -0.153 OA
ATOM     14  O   UNL     1      37.629 -25.393 -13.517  0.00  0.00    -0.153 OA
BRANCH  12  15
ATOM     15  N   UNL     1      38.664 -23.893 -15.343  0.00  0.00    -0.203 NA
ATOM     16  H   UNL     1      39.440 -24.542 -15.211  0.00  0.00    +0.144 HD
ATOM     17  H   UNL     1      39.021 -22.940 -15.394  0.00  0.00    +0.144 HD
ENDBRANCH  12  15
ENDBRANCH  11  12
BRANCH   6  18
ATOM     18  N   UNL     1      33.081 -23.776 -17.981  0.00  0.00    +0.389 N 
ATOM     19  H   UNL     1      32.123 -23.948 -18.287  0.00  0.00    -0.084 HD
ATOM     20  H   UNL     1      33.507 -24.643 -17.651  0.00  0.00    -0.084 HD
BRANCH  18  21
ATOM     21  C   UNL     1      33.856 -23.270 -19.101  0.00  0.00    -0.081 C 
ATOM     22  C   UNL     1      33.585 -21.793 -19.334  0.00  0.00    -0.026 C 
ENDBRANCH  18  21
ENDBRANCH   6  18
BRANCH   5  23
ATOM     23  C   UNL     1      29.557 -23.772 -15.719  0.00  0.00    +0.128 C 
BRANCH  23  24
ATOM     24  C   UNL     1      29.061 -22.361 -15.453  0.00  0.00    +0.161 C 
BRANCH  24  25
ATOM     25  O   UNL     1      28.214 -21.951 -16.518  0.00  0.00    -0.350 OA
ATOM     26  C   UNL     1      27.824 -23.053 -17.327  0.00  0.00    +0.174 C 
ENDBRANCH  24  25
ENDBRANCH  23  24
ENDBRANCH   5  23
TORSDOF 7
ENDMDL
MODEL 2
REMARK VINA RESULT:      -7.2      3.424      6.216
REMARK  Name = 4369102
REMARK  7 active torsions:
REMARK  status: ('A' for Active; 'I' for Inactive)
REMARK    1  A    between atoms: N_5  and  C_23
REMARK    2  A    between atoms: C_6  and  N_18
REMARK    3  A    between atoms: C_11  and  S_12
REMARK    4  A    between atoms: S_12  and  N_15
REMARK    5  A    between atoms: N_18  and  C_21
REMARK    6  A    between atoms: C_23  and  C_24
REMARK    7  A    between atoms: C_24  and  O_25
REMARK                            x       y       z     vdW  Elec       q    Type
REMARK                         _______ _______ _______ _____ _____    ______ ____
ROOT
ATOM      1  S   UNL     1      34.142 -22.546 -18.834  0.00  0.00    +0.069 S 
ATOM      2  S   UNL     1      32.294 -23.482 -16.693  0.00  0.00    -0.048 S 
ATOM      3  O   UNL     1      33.426 -21.309 -19.065  0.00  0.00    -0.152 OA
ATOM      4  O   UNL     1      33.870 -23.752 -19.589  0.00  0.00    -0.152 OA
ATOM      5  N   UNL     1      35.848 -22.246 -18.799  0.00  0.00    -0.154 NA
ATOM      6  C   UNL     1      36.133 -22.333 -16.296  0.00  0.00    -0.019 C 
ATOM      7  C   UNL     1      36.335 -21.498 -17.586  0.00  0.00    +0.079 C 
ATOM      8  C   UNL     1      34.713 -22.805 -16.101  0.00  0.00    -0.014 C 
ATOM      9  C   UNL     1      33.826 -22.935 -17.148  0.00  0.00    +0.147 C 
ATOM     10  C   UNL     1      34.088 -23.177 -14.871  0.00  0.00    +0.022 C 
ATOM     11  C   UNL     1      32.776 -23.568 -15.049  0.00  0.00    +0.152 C 
ENDROOT
BRANCH  11  12
ATOM     12  S   UNL     1      31.525 -24.120 -13.944  0.00  0.00    +0.063 S 
ATOM     13  O   UNL     1      31.695 -25.565 -13.839  0.00  0.00    -0.153 OA
ATOM     14  O   UNL     1      31.656 -23.271 -12.768  0.00  0.00    -0.153 OA
BRANCH  12  15
ATOM     15  N   UNL     1      29.992 -23.826 -14.659  0.00  0.00    -0.203 NA
ATOM     16  H   UNL     1      29.995 -22.908 -15.105  0.00  0.00    +0.144 HD
ATOM     17  H   UNL     1      29.270 -23.852 -13.940  0.00  0.00    +0.144 HD
ENDBRANCH  12  15
ENDBRANCH  11  12
BRANCH   6  18
ATOM     18  N   UNL     1      37.003 -23.512 -16.303  0.00  0.00    +0.389 N 
ATOM     19  H   UNL     1      37.691 -23.416 -17.050  0.00  0.00    -0.084 HD
ATOM     20  H   UNL     1      36.429 -24.341 -16.457  0.00  0.00    -0.084 HD
BRANCH  18  21
ATOM     21  C   UNL     1      37.693 -23.648 -15.032  0.00  0.00    -0.081 C 
ATOM     22  C   UNL     1      37.447 -25.016 -14.417  0.00  0.00    -0.026 C 
ENDBRANCH  18  21
ENDBRANCH   6  18
BRANCH   5  23
ATOM     23  C   UNL     1      36.444 -21.750 -20.061  0.00  0.00    +0.128 C 
BRANCH  23  24
ATOM     24  C   UNL     1      36.724 -20.262 -19.942  0.00  0.00    +0.161 C 
BRANCH  24  25
ATOM     25  O   UNL     1      35.643 -19.533 -20.507  0.00  0.00    -0.350 OA
ATOM     26  C   UNL     1      36.104 -18.529 -21.403  0.00  0.00    +0.174 C 
ENDBRANCH  24  25
ENDBRANCH  23  24
ENDBRANCH   5  23
TORSDOF 7
ENDMDL
MODEL 3
REMARK VINA RESULT:      -7.2      2.516      6.802
REMARK  Name = 4369102
REMARK  7 active torsions:
REMARK  status: ('A' for Active; 'I' for Inactive)
REMARK    1  A    between atoms: N_5  and  C_23
REMARK    2  A    between atoms: C_6  and  N_18
REMARK    3  A    between atoms: C_11  and  S_12
REMARK    4  A    between atoms: S_12  and  N_15
REMARK    5  A    between atoms: N_18  and  C_21
REMARK    6  A    between atoms: C_23  and  C_24
REMARK    7  A    between atoms: C_24  and  O_25
REMARK                            x       y       z     vdW  Elec       q    Type
REMARK                         _______ _______ _______ _____ _____    ______ ____
ROOT
ATOM      1  S   UNL     1      35.754 -24.242 -12.785  0.00  0.00    +0.069 S 
ATOM      2  S   UNL     1      32.932 -23.957 -13.697  0.00  0.00    -0.048 S 
ATOM      3  O   UNL     1      35.687 -25.684 -12.666  0.00  0.00    -0.152 OA
ATOM      4  O   UNL     1      35.477 -23.358 -11.671  0.00  0.00    -0.152 OA
ATOM      5  N   UNL     1      37.238 -23.778 -13.549  0.00  0.00    -0.154 NA
ATOM      6  C   UNL     1      36.284 -23.304 -15.833  0.00  0.00    -0.019 C 
ATOM      7  C   UNL     1      37.326 -24.108 -15.016  0.00  0.00    +0.079 C 
ATOM      8  C   UNL     1      34.870 -23.466 -15.330  0.00  0.00    -0.014 C 
ATOM      9  C   UNL     1      34.584 -23.843 -14.036  0.00  0.00    +0.147 C 
ATOM     10  C   UNL     1      33.662 -23.265 -16.068  0.00  0.00    +0.022 C 
ATOM     11  C   UNL     1      32.538 -23.494 -15.301  0.00  0.00    +0.152 C 
ENDROOT
BRANCH  11  12
ATOM     12  S   UNL     1      30.815 -23.412 -15.639  0.00  0.00    +0.063 S 
ATOM     13  O   UNL     1      30.202 -22.824 -14.453  0.00  0.00    -0.153 OA
ATOM     14  O   UNL     1      30.712 -22.748 -16.932  0.00  0.00    -0.153 OA
BRANCH  12  15
ATOM     15  N   UNL     1      30.210 -25.012 -15.801  0.00  0.00    -0.203 NA
ATOM     16  H   UNL     1      30.585 -25.432 -16.651  0.00  0.00    +0.144 HD
ATOM     17  H   UNL     1      29.192 -24.987 -15.854  0.00  0.00    +0.144 HD
ENDBRANCH  12  15
ENDBRANCH  11  12
BRANCH   6  18
ATOM     18  N   UNL     1      36.606 -21.876 -15.817  0.00  0.00    +0.389 N 
ATOM     19  H   UNL     1      37.228 -21.681 -15.032  0.00  0.00    -0.084 HD
ATOM     20  H   UNL     1      35.740 -21.345 -15.721  0.00  0.00    -0.084 HD
BRANCH  18  21
ATOM     21  C   UNL     1      37.261 -21.483 -17.054  0.00  0.00    -0.081 C 
ATOM     22  C   UNL     1      36.360 -21.725 -18.253  0.00  0.00    -0.026 C 
ENDBRANCH  18  21
ENDBRANCH   6  18
BRANCH   5  23
ATOM     23  C   UNL     1      38.479 -24.106 -12.808  0.00  0.00    +0.128 C 
BRANCH  23  24
ATOM     24  C   UNL     1      39.086 -25.379 -13.370  0.00  0.00    +0.161 C 
BRANCH  24  25
ATOM     25  O   UNL     1      40.374 -25.093 -13.900  0.00  0.00    -0.350 OA
ATOM     26  C   UNL     1      40.583 -25.751 -15.144  0.00  0.00    +0.174 C 
ENDBRANCH  24  25
ENDBRANCH  23  24
ENDBRANCH   5  23
TORSDOF 7
ENDMDL
MODEL 4
REMARK VINA RESULT:      -6.7      2.804      6.012
REMARK  Name = 4369102
REMARK  7 active torsions:
REMARK  status: ('A' for Active; 'I' for Inactive)
REMARK    1  A    between atoms: N_5  and  C_23
REMARK    2  A    between atoms: C_6  and  N_18
REMARK    3  A    between atoms: C_11  and  S_12
REMARK    4  A    between atoms: S_12  and  N_15
REMARK    5  A    between atoms: N_18  and  C_21
REMARK    6  A    between atoms: C_23  and  C_24
REMARK    7  A    between atoms: C_24  and  O_25
REMARK                            x       y       z     vdW  Elec       q    Type
REMARK                         _______ _______ _______ _____ _____    ______ ____
ROOT
ATOM      1  S   UNL     1      35.385 -22.796 -16.214  0.00  0.00    +0.069 S 
ATOM      2  S   UNL     1      32.986 -23.655 -14.671  0.00  0.00    -0.048 S 
ATOM      3  O   UNL     1      36.047 -24.081 -16.114  0.00  0.00    -0.152 OA
ATOM      4  O   UNL     1      35.611 -21.731 -15.259  0.00  0.00    -0.152 OA
ATOM      5  N   UNL     1      35.527 -22.181 -17.827  0.00  0.00    -0.154 NA
ATOM      6  C   UNL     1      33.192 -22.750 -18.590  0.00  0.00    -0.019 C 
ATOM      7  C   UNL     1      34.710 -22.913 -18.859  0.00  0.00    +0.079 C 
ATOM      8  C   UNL     1      32.783 -23.154 -17.195  0.00  0.00    -0.014 C 
ATOM      9  C   UNL     1      33.669 -23.173 -16.139  0.00  0.00    +0.147 C 
ATOM     10  C   UNL     1      31.483 -23.559 -16.759  0.00  0.00    +0.022 C 
ATOM     11  C   UNL     1      31.452 -23.856 -15.412  0.00  0.00    +0.152 C 
ENDROOT
BRANCH  11  12
ATOM     12  S   UNL     1      30.177 -24.395 -14.328  0.00  0.00    +0.063 S 
ATOM     13  O   UNL     1      30.698 -24.213 -12.978  0.00  0.00    -0.153 OA
ATOM     14  O   UNL     1      28.982 -23.684 -14.764  0.00  0.00    -0.153 OA
BRANCH  12  15
ATOM     15  N   UNL     1      29.926 -26.077 -14.569  0.00  0.00    -0.203 NA
ATOM     16  H   UNL     1      28.931 -26.287 -14.486  0.00  0.00    +0.144 HD
ATOM     17  H   UNL     1      30.444 -26.603 -13.866  0.00  0.00    +0.144 HD
ENDBRANCH  12  15
ENDBRANCH  11  12
BRANCH   6  18
ATOM     18  N   UNL     1      32.779 -21.360 -18.796  0.00  0.00    +0.389 N 
ATOM     19  H   UNL     1      33.134 -20.787 -18.030  0.00  0.00    -0.084 HD
ATOM     20  H   UNL     1      31.760 -21.322 -18.822  0.00  0.00    -0.084 HD
BRANCH  18  21
ATOM     21  C   UNL     1      33.299 -20.851 -20.053  0.00  0.00    -0.081 C 
ATOM     22  C   UNL     1      32.523 -19.628 -20.514  0.00  0.00    -0.026 C 
ENDBRANCH  18  21
ENDBRANCH   6  18
BRANCH   5  23
ATOM     23  C   UNL     1      36.903 -21.880 -18.288  0.00  0.00    +0.128 C 
BRANCH  23  24
ATOM     24  C   UNL     1      36.853 -21.284 -19.683  0.00  0.00    +0.161 C 
BRANCH  24  25
ATOM     25  O   UNL     1      36.756 -19.869 -19.588  0.00  0.00    -0.350 OA
ATOM     26  C   UNL     1      36.441 -19.283 -20.845  0.00  0.00    +0.174 C 
ENDBRANCH  24  25
ENDBRANCH  23  24
ENDBRANCH   5  23
TORSDOF 7
ENDMDL
MODEL 5
REMARK VINA RESULT:      -6.5      3.146      6.441
REMARK  Name = 4369102
REMARK  7 active torsions:
REMARK  status: ('A' for Active; 'I' for Inactive)
REMARK    1  A    between atoms: N_5  and  C_23
REMARK    2  A    between atoms: C_6  and  N_18
REMARK    3  A    between atoms: C_11  and  S_12
REMARK    4  A    between atoms: S_12  and  N_15
REMARK    5  A    between atoms: N_18  and  C_21
REMARK    6  A    between atoms: C_23  and  C_24
REMARK    7  A    between atoms: C_24  and  O_25
REMARK                            x       y       z     vdW  Elec       q    Type
REMARK                         _______ _______ _______ _____ _____    ______ ____
ROOT
ATOM      1  S   UNL     1      36.486 -24.017 -14.612  0.00  0.00    +0.069 S 
ATOM      2  S   UNL     1      35.602 -22.987 -17.264  0.00  0.00    -0.048 S 
ATOM      3  O   UNL     1      37.178 -22.799 -14.245  0.00  0.00    -0.152 OA
ATOM      4  O   UNL     1      37.154 -25.122 -15.270  0.00  0.00    -0.152 OA
ATOM      5  N   UNL     1      35.566 -24.604 -13.267  0.00  0.00    -0.154 NA
ATOM      6  C   UNL     1      33.307 -23.812 -14.059  0.00  0.00    -0.019 C 
ATOM      7  C   UNL     1      34.355 -23.778 -12.918  0.00  0.00    +0.079 C 
ATOM      8  C   UNL     1      33.865 -23.408 -15.401  0.00  0.00    -0.014 C 
ATOM      9  C   UNL     1      35.208 -23.493 -15.701  0.00  0.00    +0.147 C 
ATOM     10  C   UNL     1      33.138 -22.900 -16.522  0.00  0.00    +0.022 C 
ATOM     11  C   UNL     1      33.957 -22.634 -17.600  0.00  0.00    +0.152 C 
ENDROOT
BRANCH  11  12
ATOM     12  S   UNL     1      33.656 -22.011 -19.216  0.00  0.00    +0.063 S 
ATOM     13  O   UNL     1      33.634 -23.174 -20.095  0.00  0.00    -0.153 OA
ATOM     14  O   UNL     1      32.479 -21.161 -19.082  0.00  0.00    -0.153 OA
BRANCH  12  15
ATOM     15  N   UNL     1      34.984 -21.027 -19.683  0.00  0.00    -0.203 NA
ATOM     16  H   UNL     1      35.420 -20.628 -18.851  0.00  0.00    +0.144 HD
ATOM     17  H   UNL     1      34.655 -20.276 -20.288  0.00  0.00    +0.144 HD
ENDBRANCH  12  15
ENDBRANCH  11  12
BRANCH   6  18
ATOM     18  N   UNL     1      32.737 -25.155 -14.195  0.00  0.00    +0.389 N 
ATOM     19  H   UNL     1      33.307 -25.817 -13.668  0.00  0.00    -0.084 HD
ATOM     20  H   UNL     1      32.727 -25.408 -15.184  0.00  0.00    -0.084 HD
BRANCH  18  21
ATOM     21  C   UNL     1      31.375 -25.188 -13.689  0.00  0.00    -0.081 C 
ATOM     22  C   UNL     1      30.367 -25.198 -14.826  0.00  0.00    -0.026 C 
ENDBRANCH  18  21
ENDBRANCH   6  18
BRANCH   5  23
ATOM     23  C   UNL     1      36.346 -25.014 -12.077  0.00  0.00    +0.128 C 
BRANCH  23  24
ATOM     24  C   UNL     1      36.266 -23.930 -11.016  0.00  0.00    +0.161 C 
BRANCH  24  25
ATOM     25  O   UNL     1      37.516 -23.258 -10.934  0.00  0.00    -0.350 OA
ATOM     26  C   UNL     1      38.521 -23.935 -11.677  0.00  0.00    +0.174 C 
ENDBRANCH  24  25
ENDBRANCH  23  24
ENDBRANCH   5  23
TORSDOF 7
ENDMDL
MODEL 6
REMARK VINA RESULT:      -6.5     12.467     14.373
REMARK  Name = 4369102
REMARK  7 active torsions:
REMARK  status: ('A' for Active; 'I' for Inactive)
REMARK    1  A    between atoms: N_5  and  C_23
REMARK    2  A    between atoms: C_6  and  N_18
REMARK    3  A    between atoms: C_11  and  S_12
REMARK    4  A    between atoms: S_12  and  N_15
REMARK    5  A    between atoms: N_18  and  C_21
REMARK    6  A    between atoms: C_23  and  C_24
REMARK    7  A    between atoms: C_24  and  O_25
REMARK                            x       y       z     vdW  Elec       q    Type
REMARK                         _______ _______ _______ _____ _____    ______ ____
ROOT
ATOM      1  S   UNL     1      31.709 -10.628 -22.112  0.00  0.00    +0.069 S 
ATOM      2  S   UNL     1      32.323 -13.425 -21.292  0.00  0.00    -0.048 S 
ATOM      3  O   UNL     1      32.310 -10.033 -20.937  0.00  0.00    -0.152 OA
ATOM      4  O   UNL     1      30.301 -10.963 -22.179  0.00  0.00    -0.152 OA
ATOM      5  N   UNL     1      32.170  -9.740 -23.527  0.00  0.00    -0.154 NA
ATOM      6  C   UNL     1      33.917 -11.357 -24.359  0.00  0.00    -0.019 C 
ATOM      7  C   UNL     1      33.612  -9.899 -23.932  0.00  0.00    +0.079 C 
ATOM      8  C   UNL     1      33.536 -12.380 -23.317  0.00  0.00    -0.014 C 
ATOM      9  C   UNL     1      32.587 -12.133 -22.349  0.00  0.00    +0.147 C 
ATOM     10  C   UNL     1      34.063 -13.701 -23.171  0.00  0.00    +0.022 C 
ATOM     11  C   UNL     1      33.490 -14.378 -22.113  0.00  0.00    +0.152 C 
ENDROOT
BRANCH  11  12
ATOM     12  S   UNL     1      33.719 -15.990 -21.451  0.00  0.00    +0.063 S 
ATOM     13  O   UNL     1      32.456 -16.343 -20.812  0.00  0.00    -0.153 OA
ATOM     14  O   UNL     1      34.236 -16.785 -22.558  0.00  0.00    -0.153 OA
BRANCH  12  15
ATOM     15  N   UNL     1      34.922 -15.916 -20.228  0.00  0.00    -0.203 NA
ATOM     16  H   UNL     1      34.550 -16.308 -19.362  0.00  0.00    +0.144 HD
ATOM     17  H   UNL     1      35.192 -14.946 -20.074  0.00  0.00    +0.144 HD
ENDBRANCH  12  15
ENDBRANCH  11  12
BRANCH   6  18
ATOM     18  N   UNL     1      33.208 -11.690 -25.597  0.00  0.00    +0.389 N 
ATOM     19  H   UNL     1      32.779 -10.846 -25.976  0.00  0.00    -0.084 HD
ATOM     20  H   UNL     1      32.492 -12.386 -25.388  0.00  0.00    -0.084 HD
BRANCH  18  21
ATOM     21  C   UNL     1      34.125 -12.242 -26.580  0.00  0.00    -0.081 C 
ATOM     22  C   UNL     1      33.482 -13.382 -27.352  0.00  0.00    -0.026 C 
ENDBRANCH  18  21
ENDBRANCH   6  18
BRANCH   5  23
ATOM     23  C   UNL     1      31.703  -8.336 -23.592  0.00  0.00    +0.128 C 
BRANCH  23  24
ATOM     24  C   UNL     1      32.892  -7.398 -23.484  0.00  0.00    +0.161 C 
BRANCH  24  25
ATOM     25  O   UNL     1      33.041  -6.980 -22.133  0.00  0.00    -0.350 OA
ATOM     26  C   UNL     1      31.812  -6.508 -21.596  0.00  0.00    +0.174 C 
ENDBRANCH  24  25
ENDBRANCH  23  24
ENDBRANCH   5  23
TORSDOF 7
ENDMDL
MODEL 7
REMARK VINA RESULT:      -6.4      3.106      4.618
REMARK  Name = 4369102
REMARK  7 active torsions:
REMARK  status: ('A' for Active; 'I' for Inactive)
REMARK    1  A    between atoms: N_5  and  C_23
REMARK    2  A    between atoms: C_6  and  N_18
REMARK    3  A    between atoms: C_11  and  S_12
REMARK    4  A    between atoms: S_12  and  N_15
REMARK    5  A    between atoms: N_18  and  C_21
REMARK    6  A    between atoms: C_23  and  C_24
REMARK    7  A    between atoms: C_24  and  O_25
REMARK                            x       y       z     vdW  Elec       q    Type
REMARK                         _______ _______ _______ _____ _____    ______ ____
ROOT
ATOM      1  S   UNL     1      36.390 -22.251 -16.733  0.00  0.00    +0.069 S 
ATOM      2  S   UNL     1      37.095 -22.998 -13.937  0.00  0.00    -0.048 S 
ATOM      3  O   UNL     1      37.354 -23.148 -17.335  0.00  0.00    -0.152 OA
ATOM      4  O   UNL     1      36.698 -20.867 -16.435  0.00  0.00    -0.152 OA
ATOM      5  N   UNL     1      34.882 -22.348 -17.581  0.00  0.00    -0.154 NA
ATOM      6  C   UNL     1      33.668 -23.785 -15.902  0.00  0.00    -0.019 C 
ATOM      7  C   UNL     1      34.121 -23.632 -17.376  0.00  0.00    +0.079 C 
ATOM      8  C   UNL     1      34.799 -23.666 -14.909  0.00  0.00    -0.014 C 
ATOM      9  C   UNL     1      35.973 -23.006 -15.201  0.00  0.00    +0.147 C 
ATOM     10  C   UNL     1      34.838 -24.185 -13.578  0.00  0.00    +0.022 C 
ATOM     11  C   UNL     1      36.025 -23.892 -12.937  0.00  0.00    +0.152 C 
ENDROOT
BRANCH  11  12
ATOM     12  S   UNL     1      36.646 -24.251 -11.333  0.00  0.00    +0.063 S 
ATOM     13  O   UNL     1      37.604 -25.337 -11.509  0.00  0.00    -0.153 OA
ATOM     14  O   UNL     1      37.074 -22.966 -10.795  0.00  0.00    -0.153 OA
BRANCH  12  15
ATOM     15  N   UNL     1      35.358 -24.843 -10.364  0.00  0.00    -0.203 NA
ATOM     16  H   UNL     1      34.468 -24.636 -10.818  0.00  0.00    +0.144 HD
ATOM     17  H   UNL     1      35.385 -24.394  -9.449  0.00  0.00    +0.144 HD
ENDBRANCH  12  15
ENDBRANCH  11  12
BRANCH   6  18
ATOM     18  N   UNL     1      32.664 -22.773 -15.563  0.00  0.00    +0.389 N 
ATOM     19  H   UNL     1      32.923 -21.886 -15.997  0.00  0.00    -0.084 HD
ATOM     20  H   UNL     1      32.629 -22.673 -14.549  0.00  0.00    -0.084 HD
BRANCH  18  21
ATOM     21  C   UNL     1      31.351 -23.174 -16.041  0.00  0.00    -0.081 C 
ATOM     22  C   UNL     1      30.278 -22.882 -15.006  0.00  0.00    -0.026 C 
ENDBRANCH  18  21
ENDBRANCH   6  18
BRANCH   5  23
ATOM     23  C   UNL     1      34.903 -21.910 -18.995  0.00  0.00    +0.128 C 
BRANCH  23  24
ATOM     24  C   UNL     1      33.521 -22.079 -19.602  0.00  0.00    +0.161 C 
BRANCH  24  25
ATOM     25  O   UNL     1      32.782 -20.876 -19.434  0.00  0.00    -0.350 OA
ATOM     26  C   UNL     1      32.935 -20.011 -20.553  0.00  0.00    +0.174 C 
ENDBRANCH  24  25
ENDBRANCH  23  24
ENDBRANCH   5  23
TORSDOF 7
ENDMDL
MODEL 8
REMARK VINA RESULT:      -6.4      2.083      6.582
REMARK  Name = 4369102
REMARK  7 active torsions:
REMARK  status: ('A' for Active; 'I' for Inactive)
REMARK    1  A    between atoms: N_5  and  C_23
REMARK    2  A    between atoms: C_6  and  N_18
REMARK    3  A    between atoms: C_11  and  S_12
REMARK    4  A    between atoms: S_12  and  N_15
REMARK    5  A    between atoms: N_18  and  C_21
REMARK    6  A    between atoms: C_23  and  C_24
REMARK    7  A    between atoms: C_24  and  O_25
REMARK                            x       y       z     vdW  Elec       q    Type
REMARK                         _______ _______ _______ _____ _____    ______ ____
ROOT
ATOM      1  S   UNL     1      33.001 -23.918 -13.461  0.00  0.00    +0.069 S 
ATOM      2  S   UNL     1      30.242 -23.421 -14.466  0.00  0.00    -0.048 S 
ATOM      3  O   UNL     1      32.726 -25.279 -13.049  0.00  0.00    -0.152 OA
ATOM      4  O   UNL     1      32.869 -22.793 -12.558  0.00  0.00    -0.152 OA
ATOM      5  N   UNL     1      34.529 -23.844 -14.275  0.00  0.00    -0.154 NA
ATOM      6  C   UNL     1      33.628 -23.719 -16.626  0.00  0.00    -0.019 C 
ATOM      7  C   UNL     1      34.551 -24.479 -15.640  0.00  0.00    +0.079 C 
ATOM      8  C   UNL     1      32.212 -23.565 -16.128  0.00  0.00    -0.014 C 
ATOM      9  C   UNL     1      31.888 -23.621 -14.789  0.00  0.00    +0.147 C 
ATOM     10  C   UNL     1      31.038 -23.348 -16.914  0.00  0.00    +0.022 C 
ATOM     11  C   UNL     1      29.901 -23.247 -16.139  0.00  0.00    +0.152 C 
ENDROOT
BRANCH  11  12
ATOM     12  S   UNL     1      28.205 -22.988 -16.520  0.00  0.00    +0.063 S 
ATOM     13  O   UNL     1      27.490 -23.092 -15.252  0.00  0.00    -0.153 OA
ATOM     14  O   UNL     1      28.173 -21.750 -17.289  0.00  0.00    -0.153 OA
BRANCH  12  15
ATOM     15  N   UNL     1      27.666 -24.268 -17.530  0.00  0.00    -0.203 NA
ATOM     16  H   UNL     1      26.930 -23.926 -18.148  0.00  0.00    +0.144 HD
ATOM     17  H   UNL     1      27.302 -25.026 -16.954  0.00  0.00    +0.144 HD
ENDBRANCH  12  15
ENDBRANCH  11  12
BRANCH   6  18
ATOM     18  N   UNL     1      34.157 -22.380 -16.898  0.00  0.00    +0.389 N 
ATOM     19  H   UNL     1      34.866 -22.151 -16.202  0.00  0.00    -0.084 HD
ATOM     20  H   UNL     1      33.389 -21.709 -16.853  0.00  0.00    -0.084 HD
BRANCH  18  21
ATOM     21  C   UNL     1      34.751 -22.323 -18.223  0.00  0.00    -0.081 C 
ATOM     22  C   UNL     1      33.726 -21.917 -19.269  0.00  0.00    -0.026 C 
ENDBRANCH  18  21
ENDBRANCH   6  18
BRANCH   5  23
ATOM     23  C   UNL     1      35.716 -24.188 -13.459  0.00  0.00    +0.128 C 
BRANCH  23  24
ATOM     24  C   UNL     1      36.889 -24.499 -14.372  0.00  0.00    +0.161 C 
BRANCH  24  25
ATOM     25  O   UNL     1      38.091 -24.038 -13.769  0.00  0.00    -0.350 OA
ATOM     26  C   UNL     1      38.766 -25.087 -13.086  0.00  0.00    +0.174 C 
ENDBRANCH  24  25
ENDBRANCH  23  24
ENDBRANCH   5  23
TORSDOF 7
ENDMDL
MODEL 9
REMARK VINA RESULT:      -6.3      9.970     12.331
REMARK  Name = 4369102
REMARK  7 active torsions:
REMARK  status: ('A' for Active; 'I' for Inactive)
REMARK    1  A    between atoms: N_5  and  C_23
REMARK    2  A    between atoms: C_6  and  N_18
REMARK    3  A    between atoms: C_11  and  S_12
REMARK    4  A    between atoms: S_12  and  N_15
REMARK    5  A    between atoms: N_18  and  C_21
REMARK    6  A    between atoms: C_23  and  C_24
REMARK    7  A    between atoms: C_24  and  O_25
REMARK                            x       y       z     vdW  Elec       q    Type
REMARK                         _______ _______ _______ _____ _____    ______ ____
ROOT
ATOM      1  S   UNL     1      34.607 -18.031 -23.638  0.00  0.00    +0.069 S 
ATOM      2  S   UNL     1      33.960 -16.016 -25.733  0.00  0.00    -0.048 S 
ATOM      3  O   UNL     1      36.007 -18.121 -23.999  0.00  0.00    -0.152 OA
ATOM      4  O   UNL     1      33.605 -18.920 -24.190  0.00  0.00    -0.152 OA
ATOM      5  N   UNL     1      34.444 -17.959 -21.914  0.00  0.00    -0.154 NA
ATOM      6  C   UNL     1      34.011 -15.481 -21.742  0.00  0.00    -0.019 C 
ATOM      7  C   UNL     1      34.900 -16.667 -21.288  0.00  0.00    +0.079 C 
ATOM      8  C   UNL     1      33.910 -15.345 -23.241  0.00  0.00    -0.014 C 
ATOM      9  C   UNL     1      34.132 -16.402 -24.097  0.00  0.00    +0.147 C 
ATOM     10  C   UNL     1      33.582 -14.167 -23.982  0.00  0.00    +0.022 C 
ATOM     11  C   UNL     1      33.571 -14.391 -25.344  0.00  0.00    +0.152 C 
ENDROOT
BRANCH  11  12
ATOM     12  S   UNL     1      33.248 -13.360 -26.730  0.00  0.00    +0.063 S 
ATOM     13  O   UNL     1      33.423 -11.991 -26.259  0.00  0.00    -0.153 OA
ATOM     14  O   UNL     1      34.086 -13.889 -27.799  0.00  0.00    -0.153 OA
BRANCH  12  15
ATOM     15  N   UNL     1      31.603 -13.550 -27.186  0.00  0.00    -0.203 NA
ATOM     16  H   UNL     1      31.246 -12.665 -27.545  0.00  0.00    +0.144 HD
ATOM     17  H   UNL     1      31.056 -13.834 -26.374  0.00  0.00    +0.144 HD
ENDBRANCH  12  15
ENDBRANCH  11  12
BRANCH   6  18
ATOM     18  N   UNL     1      32.654 -15.621 -21.210  0.00  0.00    +0.389 N 
ATOM     19  H   UNL     1      32.524 -16.574 -20.869  0.00  0.00    -0.084 HD
ATOM     20  H   UNL     1      31.987 -15.419 -21.955  0.00  0.00    -0.084 HD
BRANCH  18  21
ATOM     21  C   UNL     1      32.432 -14.689 -20.117  0.00  0.00    -0.081 C 
ATOM     22  C   UNL     1      32.291 -13.265 -20.630  0.00  0.00    -0.026 C 
ENDBRANCH  18  21
ENDBRANCH   6  18
BRANCH   5  23
ATOM     23  C   UNL     1      34.901 -19.154 -21.168  0.00  0.00    +0.128 C 
BRANCH  23  24
ATOM     24  C   UNL     1      36.384 -19.031 -20.869  0.00  0.00    +0.161 C 
BRANCH  24  25
ATOM     25  O   UNL     1      36.716 -19.876 -19.775  0.00  0.00    -0.350 OA
ATOM     26  C   UNL     1      35.943 -21.069 -19.785  0.00  0.00    +0.174 C 
ENDBRANCH  24  25
ENDBRANCH  23  24
ENDBRANCH   5  23
TORSDOF 7
ENDMDL
