MODEL 1
REMARK VINA RESULT:      -7.0      0.000      0.000
REMARK  Name = 444737
REMARK  0 active torsions:
REMARK  status: ('A' for Active; 'I' for Inactive)
REMARK                            x       y       z     vdW  Elec       q    Type
REMARK                         _______ _______ _______ _____ _____    ______ ____
ROOT
ATOM      1  I   UNL     1      32.364 -23.874 -14.118  0.00  0.00    -0.030 I 
ATOM      2  O   UNL     1      37.541 -22.644 -11.245  0.00  0.00    -0.208 OA
ATOM      3  N   UNL     1      37.465 -25.623 -14.039  0.00  0.00    -0.263 N 
ATOM      4  N   UNL     1      35.095 -23.446 -12.808  0.00  0.00    -0.299 N 
ATOM      5  N   UNL     1      35.115 -25.087 -14.325  0.00  0.00    -0.298 N 
ATOM      6  N   UNL     1      38.661 -24.296 -12.405  0.00  0.00    -0.301 NA
ATOM      7  N   UNL     1      39.699 -25.999 -13.638  0.00  0.00    -0.320 N 
ATOM      8  C   UNL     1      36.372 -23.928 -12.828  0.00  0.00    +0.170 C 
ATOM      9  C   UNL     1      36.347 -24.928 -13.766  0.00  0.00    +0.128 C 
ATOM     10  C   UNL     1      37.537 -23.541 -12.080  0.00  0.00    +0.223 C 
ATOM     11  C   UNL     1      38.594 -25.249 -13.312  0.00  0.00    +0.248 C 
ATOM     12  C   UNL     1      34.377 -24.175 -13.724  0.00  0.00    +0.200 C 
ATOM     13  H   UNL     1      37.485 -26.347 -14.705  0.00  0.00    +0.157 HD
ATOM     14  H   UNL     1      34.753 -22.715 -12.243  0.00  0.00    +0.150 HD
ATOM     15  H   UNL     1      34.840 -25.733 -15.016  0.00  0.00    +0.150 HD
ATOM     16  H   UNL     1      39.630 -26.705 -14.319  0.00  0.00    +0.146 HD
ATOM     17  H   UNL     1      40.559 -25.827 -13.190  0.00  0.00    +0.146 HD
ENDROOT
TORSDOF 0
ENDMDL
MODEL 2
REMARK VINA RESULT:      -6.9      7.389      8.416
REMARK  Name = 444737
REMARK  0 active torsions:
REMARK  status: ('A' for Active; 'I' for Inactive)
REMARK                            x       y       z     vdW  Elec       q    Type
REMARK                         _______ _______ _______ _____ _____    ______ ____
ROOT
ATOM      1  I   UNL     1      35.032 -17.992 -22.932  0.00  0.00    -0.030 I 
ATOM      2  O   UNL     1      36.833 -21.845 -18.634  0.00  0.00    -0.208 OA
ATOM      3  N   UNL     1      32.852 -21.520 -19.486  0.00  0.00    -0.263 N 
ATOM      4  N   UNL     1      35.687 -20.004 -20.724  0.00  0.00    -0.299 N 
ATOM      5  N   UNL     1      33.496 -19.870 -21.144  0.00  0.00    -0.298 N 
ATOM      6  N   UNL     1      34.661 -22.505 -18.214  0.00  0.00    -0.301 NA
ATOM      7  N   UNL     1      32.420 -23.101 -17.870  0.00  0.00    -0.320 N 
ATOM      8  C   UNL     1      35.082 -20.884 -19.872  0.00  0.00    +0.170 C 
ATOM      9  C   UNL     1      33.746 -20.775 -20.158  0.00  0.00    +0.128 C 
ATOM     10  C   UNL     1      35.635 -21.761 -18.875  0.00  0.00    +0.223 C 
ATOM     11  C   UNL     1      33.386 -22.370 -18.519  0.00  0.00    +0.248 C 
ATOM     12  C   UNL     1      34.692 -19.420 -21.468  0.00  0.00    +0.200 C 
ATOM     13  H   UNL     1      31.885 -21.469 -19.663  0.00  0.00    +0.157 HD
ATOM     14  H   UNL     1      36.652 -19.823 -20.791  0.00  0.00    +0.150 HD
ATOM     15  H   UNL     1      32.626 -19.613 -21.527  0.00  0.00    +0.150 HD
ATOM     16  H   UNL     1      31.473 -22.987 -18.112  0.00  0.00    +0.146 HD
ATOM     17  H   UNL     1      32.676 -23.738 -17.164  0.00  0.00    +0.146 HD
ENDROOT
TORSDOF 0
ENDMDL
MODEL 3
REMARK VINA RESULT:      -6.9     11.872     12.747
REMARK  Name = 444737
REMARK  0 active torsions:
REMARK  status: ('A' for Active; 'I' for Inactive)
REMARK                            x       y       z     vdW  Elec       q    Type
REMARK                         _______ _______ _______ _____ _____    ______ ____
ROOT
ATOM      1  I   UNL     1      35.865 -20.723 -20.249  0.00  0.00    -0.030 I 
ATOM      2  O   UNL     1      34.611 -17.838 -25.413  0.00  0.00    -0.208 OA
ATOM      3  N   UNL     1      34.808 -15.710 -21.933  0.00  0.00    -0.263 N 
ATOM      4  N   UNL     1      35.217 -19.039 -22.719  0.00  0.00    -0.299 N 
ATOM      5  N   UNL     1      35.311 -17.821 -20.847  0.00  0.00    -0.298 N 
ATOM      6  N   UNL     1      34.455 -15.808 -24.325  0.00  0.00    -0.301 NA
ATOM      7  N   UNL     1      34.319 -13.801 -23.121  0.00  0.00    -0.320 N 
ATOM      8  C   UNL     1      34.955 -17.752 -23.091  0.00  0.00    +0.170 C 
ATOM      9  C   UNL     1      35.020 -17.037 -21.922  0.00  0.00    +0.128 C 
ATOM     10  C   UNL     1      34.666 -17.183 -24.379  0.00  0.00    +0.223 C 
ATOM     11  C   UNL     1      34.527 -15.159 -23.181  0.00  0.00    +0.248 C 
ATOM     12  C   UNL     1      35.424 -19.030 -21.362  0.00  0.00    +0.200 C 
ATOM     13  H   UNL     1      34.847 -15.164 -21.114  0.00  0.00    +0.157 HD
ATOM     14  H   UNL     1      35.251 -19.825 -23.312  0.00  0.00    +0.150 HD
ATOM     15  H   UNL     1      35.412 -17.550 -19.906  0.00  0.00    +0.150 HD
ATOM     16  H   UNL     1      34.379 -13.333 -22.257  0.00  0.00    +0.146 HD
ATOM     17  H   UNL     1      34.113 -13.298 -23.942  0.00  0.00    +0.146 HD
ENDROOT
TORSDOF 0
ENDMDL
MODEL 4
REMARK VINA RESULT:      -6.7     13.934     14.857
REMARK  Name = 444737
REMARK  0 active torsions:
REMARK  status: ('A' for Active; 'I' for Inactive)
REMARK                            x       y       z     vdW  Elec       q    Type
REMARK                         _______ _______ _______ _____ _____    ______ ____
ROOT
ATOM      1  I   UNL     1      35.574 -18.723 -21.558  0.00  0.00    -0.030 I 
ATOM      2  O   UNL     1      33.302 -15.857 -26.373  0.00  0.00    -0.208 OA
ATOM      3  N   UNL     1      34.252 -13.707 -23.033  0.00  0.00    -0.263 N 
ATOM      4  N   UNL     1      34.444 -17.048 -23.854  0.00  0.00    -0.299 N 
ATOM      5  N   UNL     1      34.944 -15.818 -22.055  0.00  0.00    -0.298 N 
ATOM      6  N   UNL     1      33.403 -13.817 -25.297  0.00  0.00    -0.301 NA
ATOM      7  N   UNL     1      33.549 -11.800 -24.111  0.00  0.00    -0.320 N 
ATOM      8  C   UNL     1      34.126 -15.759 -24.175  0.00  0.00    +0.170 C 
ATOM      9  C   UNL     1      34.445 -15.037 -23.054  0.00  0.00    +0.128 C 
ATOM     10  C   UNL     1      33.581 -15.196 -25.380  0.00  0.00    +0.223 C 
ATOM     11  C   UNL     1      33.722 -13.161 -24.200  0.00  0.00    +0.248 C 
ATOM     12  C   UNL     1      34.931 -17.032 -22.570  0.00  0.00    +0.200 C 
ATOM     13  H   UNL     1      34.469 -13.156 -22.246  0.00  0.00    +0.157 HD
ATOM     14  H   UNL     1      34.343 -17.838 -24.433  0.00  0.00    +0.150 HD
ATOM     15  H   UNL     1      35.244 -15.541 -21.160  0.00  0.00    +0.150 HD
ATOM     16  H   UNL     1      33.794 -11.327 -23.284  0.00  0.00    +0.146 HD
ATOM     17  H   UNL     1      33.182 -11.300 -24.875  0.00  0.00    +0.146 HD
ENDROOT
TORSDOF 0
ENDMDL
MODEL 5
REMARK VINA RESULT:      -6.7      7.519      8.115
REMARK  Name = 444737
REMARK  0 active torsions:
REMARK  status: ('A' for Active; 'I' for Inactive)
REMARK                            x       y       z     vdW  Elec       q    Type
REMARK                         _______ _______ _______ _____ _____    ______ ____
ROOT
ATOM      1  I   UNL     1      35.110 -17.985 -22.963  0.00  0.00    -0.030 I 
ATOM      2  O   UNL     1      33.111 -22.461 -19.423  0.00  0.00    -0.208 OA
ATOM      3  N   UNL     1      36.823 -20.894 -18.758  0.00  0.00    -0.263 N 
ATOM      4  N   UNL     1      34.330 -20.234 -21.043  0.00  0.00    -0.299 N 
ATOM      5  N   UNL     1      36.370 -19.417 -20.630  0.00  0.00    -0.298 N 
ATOM      6  N   UNL     1      35.064 -22.457 -18.193  0.00  0.00    -0.301 NA
ATOM      7  N   UNL     1      37.087 -22.369 -17.012  0.00  0.00    -0.320 N 
ATOM      8  C   UNL     1      34.814 -20.940 -19.979  0.00  0.00    +0.170 C 
ATOM      9  C   UNL     1      36.060 -20.415 -19.756  0.00  0.00    +0.128 C 
ATOM     10  C   UNL     1      34.227 -22.003 -19.209  0.00  0.00    +0.223 C 
ATOM     11  C   UNL     1      36.255 -21.925 -18.012  0.00  0.00    +0.248 C 
ATOM     12  C   UNL     1      35.302 -19.331 -21.398  0.00  0.00    +0.200 C 
ATOM     13  H   UNL     1      37.723 -20.542 -18.568  0.00  0.00    +0.157 HD
ATOM     14  H   UNL     1      33.452 -20.349 -21.473  0.00  0.00    +0.150 HD
ATOM     15  H   UNL     1      37.197 -18.886 -20.678  0.00  0.00    +0.150 HD
ATOM     16  H   UNL     1      37.973 -21.958 -16.892  0.00  0.00    +0.146 HD
ATOM     17  H   UNL     1      36.795 -23.096 -16.416  0.00  0.00    +0.146 HD
ENDROOT
TORSDOF 0
ENDMDL
MODEL 6
REMARK VINA RESULT:      -6.6     11.253     12.044
REMARK  Name = 444737
REMARK  0 active torsions:
REMARK  status: ('A' for Active; 'I' for Inactive)
REMARK                            x       y       z     vdW  Elec       q    Type
REMARK                         _______ _______ _______ _____ _____    ______ ____
ROOT
ATOM      1  I   UNL     1      35.812 -21.098 -19.942  0.00  0.00    -0.030 I 
ATOM      2  O   UNL     1      34.927 -15.180 -20.810  0.00  0.00    -0.208 OA
ATOM      3  N   UNL     1      34.565 -17.739 -23.972  0.00  0.00    -0.263 N 
ATOM      4  N   UNL     1      35.317 -18.161 -20.637  0.00  0.00    -0.299 N 
ATOM      5  N   UNL     1      35.106 -19.511 -22.405  0.00  0.00    -0.298 N 
ATOM      6  N   UNL     1      34.493 -15.501 -23.055  0.00  0.00    -0.301 NA
ATOM      7  N   UNL     1      34.070 -15.940 -25.318  0.00  0.00    -0.320 N 
ATOM      8  C   UNL     1      35.000 -17.356 -21.693  0.00  0.00    +0.170 C 
ATOM      9  C   UNL     1      34.878 -18.215 -22.755  0.00  0.00    +0.128 C 
ATOM     10  C   UNL     1      34.814 -15.932 -21.770  0.00  0.00    +0.223 C 
ATOM     11  C   UNL     1      34.386 -16.359 -24.048  0.00  0.00    +0.248 C 
ATOM     12  C   UNL     1      35.370 -19.447 -21.115  0.00  0.00    +0.200 C 
ATOM     13  H   UNL     1      34.470 -18.325 -24.758  0.00  0.00    +0.157 HD
ATOM     14  H   UNL     1      35.478 -17.874 -19.709  0.00  0.00    +0.150 HD
ATOM     15  H   UNL     1      35.080 -20.310 -22.981  0.00  0.00    +0.150 HD
ATOM     16  H   UNL     1      33.994 -16.596 -26.048  0.00  0.00    +0.146 HD
ATOM     17  H   UNL     1      33.919 -14.984 -25.497  0.00  0.00    +0.146 HD
ENDROOT
TORSDOF 0
ENDMDL
MODEL 7
REMARK VINA RESULT:      -6.6     12.088     12.637
REMARK  Name = 444737
REMARK  0 active torsions:
REMARK  status: ('A' for Active; 'I' for Inactive)
REMARK                            x       y       z     vdW  Elec       q    Type
REMARK                         _______ _______ _______ _____ _____    ______ ____
ROOT
ATOM      1  I   UNL     1      33.046 -14.562 -26.221  0.00  0.00    -0.030 I 
ATOM      2  O   UNL     1      34.140 -14.924 -20.285  0.00  0.00    -0.208 OA
ATOM      3  N   UNL     1      35.396 -17.940 -22.736  0.00  0.00    -0.263 N 
ATOM      4  N   UNL     1      33.718 -14.979 -23.266  0.00  0.00    -0.299 N 
ATOM      5  N   UNL     1      34.429 -16.660 -24.556  0.00  0.00    -0.298 N 
ATOM      6  N   UNL     1      35.200 -16.960 -20.532  0.00  0.00    -0.301 NA
ATOM      7  N   UNL     1      36.256 -19.021 -20.895  0.00  0.00    -0.320 N 
ATOM      8  C   UNL     1      34.325 -15.869 -22.428  0.00  0.00    +0.170 C 
ATOM      9  C   UNL     1      34.747 -16.882 -23.251  0.00  0.00    +0.128 C 
ATOM     10  C   UNL     1      34.524 -15.838 -21.005  0.00  0.00    +0.223 C 
ATOM     11  C   UNL     1      35.589 -17.911 -21.356  0.00  0.00    +0.248 C 
ATOM     12  C   UNL     1      33.806 -15.498 -24.534  0.00  0.00    +0.200 C 
ATOM     13  H   UNL     1      35.714 -18.686 -23.295  0.00  0.00    +0.157 HD
ATOM     14  H   UNL     1      33.297 -14.126 -23.010  0.00  0.00    +0.150 HD
ATOM     15  H   UNL     1      34.620 -17.232 -25.334  0.00  0.00    +0.150 HD
ATOM     16  H   UNL     1      36.539 -19.721 -21.527  0.00  0.00    +0.146 HD
ATOM     17  H   UNL     1      36.452 -19.114 -19.935  0.00  0.00    +0.146 HD
ENDROOT
TORSDOF 0
ENDMDL
MODEL 8
REMARK VINA RESULT:      -6.5      6.048      7.154
REMARK  Name = 444737
REMARK  0 active torsions:
REMARK  status: ('A' for Active; 'I' for Inactive)
REMARK                            x       y       z     vdW  Elec       q    Type
REMARK                         _______ _______ _______ _____ _____    ______ ____
ROOT
ATOM      1  I   UNL     1      34.704 -22.164 -19.125  0.00  0.00    -0.030 I 
ATOM      2  O   UNL     1      29.059 -22.391 -16.972  0.00  0.00    -0.208 OA
ATOM      3  N   UNL     1      32.076 -24.154 -14.858  0.00  0.00    -0.263 N 
ATOM      4  N   UNL     1      31.946 -22.416 -17.829  0.00  0.00    -0.299 N 
ATOM      5  N   UNL     1      33.554 -23.399 -16.628  0.00  0.00    -0.298 N 
ATOM      6  N   UNL     1      29.738 -23.585 -15.116  0.00  0.00    -0.301 NA
ATOM      7  N   UNL     1      30.536 -24.794 -13.273  0.00  0.00    -0.320 N 
ATOM      8  C   UNL     1      31.330 -22.940 -16.729  0.00  0.00    +0.170 C 
ATOM      9  C   UNL     1      32.343 -23.533 -16.019  0.00  0.00    +0.128 C 
ATOM     10  C   UNL     1      29.951 -22.926 -16.324  0.00  0.00    +0.223 C 
ATOM     11  C   UNL     1      30.739 -24.141 -14.466  0.00  0.00    +0.248 C 
ATOM     12  C   UNL     1      33.281 -22.717 -17.724  0.00  0.00    +0.200 C 
ATOM     13  H   UNL     1      32.777 -24.590 -14.321  0.00  0.00    +0.157 HD
ATOM     14  H   UNL     1      31.514 -21.916 -18.560  0.00  0.00    +0.150 HD
ATOM     15  H   UNL     1      34.428 -23.733 -16.323  0.00  0.00    +0.150 HD
ATOM     16  H   UNL     1      31.296 -25.203 -12.801  0.00  0.00    +0.146 HD
ATOM     17  H   UNL     1      29.630 -24.851 -12.892  0.00  0.00    +0.146 HD
ENDROOT
TORSDOF 0
ENDMDL
MODEL 9
REMARK VINA RESULT:      -6.5      2.361      2.991
REMARK  Name = 444737
REMARK  0 active torsions:
REMARK  status: ('A' for Active; 'I' for Inactive)
REMARK                            x       y       z     vdW  Elec       q    Type
REMARK                         _______ _______ _______ _____ _____    ______ ____
ROOT
ATOM      1  I   UNL     1      32.638 -23.542 -14.203  0.00  0.00    -0.030 I 
ATOM      2  O   UNL     1      36.633 -27.541 -16.350  0.00  0.00    -0.208 OA
ATOM      3  N   UNL     1      37.801 -24.906 -13.457  0.00  0.00    -0.263 N 
ATOM      4  N   UNL     1      34.837 -25.459 -15.122  0.00  0.00    -0.299 N 
ATOM      5  N   UNL     1      35.535 -24.042 -13.541  0.00  0.00    -0.298 N 
ATOM      6  N   UNL     1      38.292 -26.737 -14.962  0.00  0.00    -0.301 NA
ATOM      7  N   UNL     1      39.902 -25.843 -13.511  0.00  0.00    -0.320 N 
ATOM      8  C   UNL     1      36.148 -25.763 -14.894  0.00  0.00    +0.170 C 
ATOM      9  C   UNL     1      36.541 -24.878 -13.923  0.00  0.00    +0.128 C 
ATOM     10  C   UNL     1      37.001 -26.758 -15.483  0.00  0.00    +0.223 C 
ATOM     11  C   UNL     1      38.629 -25.870 -14.029  0.00  0.00    +0.248 C 
ATOM     12  C   UNL     1      34.514 -24.419 -14.286  0.00  0.00    +0.200 C 
ATOM     13  H   UNL     1      38.119 -24.287 -12.761  0.00  0.00    +0.157 HD
ATOM     14  H   UNL     1      34.236 -25.901 -15.765  0.00  0.00    +0.150 HD
ATOM     15  H   UNL     1      35.563 -23.326 -12.866  0.00  0.00    +0.150 HD
ATOM     16  H   UNL     1      40.135 -25.189 -12.814  0.00  0.00    +0.146 HD
ATOM     17  H   UNL     1      40.579 -26.479 -13.837  0.00  0.00    +0.146 HD
ENDROOT
TORSDOF 0
ENDMDL
