MODEL 1
REMARK VINA RESULT:      -7.1      0.000      0.000
REMARK  Name = 445027
REMARK  7 active torsions:
REMARK  status: ('A' for Active; 'I' for Inactive)
REMARK    1  A    between atoms: C_4  and  C_10
REMARK    2  A    between atoms: C_10  and  C_11
REMARK    3  A    between atoms: C_11  and  C_12
REMARK    4  A    between atoms: C_12  and  C_13
REMARK    5  A    between atoms: C_13  and  C_14
REMARK    6  A    between atoms: C_14  and  C_16
REMARK    7  A    between atoms: C_16  and  O_17
REMARK                            x       y       z     vdW  Elec       q    Type
REMARK                         _______ _______ _______ _____ _____    ______ ____
ROOT
ATOM      1  O   UNL     1      33.109 -19.572 -20.741  0.00  0.00    -0.253 OA
ATOM      2  N   UNL     1      32.926 -21.523 -19.451  0.00  0.00    -0.289 N 
ATOM      3  N   UNL     1      34.952 -20.934 -20.242  0.00  0.00    -0.289 N 
ATOM      4  C   UNL     1      33.794 -22.630 -19.103  0.00  0.00    +0.091 C 
ATOM      5  C   UNL     1      35.209 -22.101 -19.417  0.00  0.00    +0.091 C 
ATOM      6  C   UNL     1      36.053 -21.705 -18.212  0.00  0.00    +0.023 C 
ATOM      7  C   UNL     1      33.603 -20.555 -20.207  0.00  0.00    +0.301 C 
ATOM      8  H   UNL     1      31.979 -21.458 -19.188  0.00  0.00    +0.151 HD
ATOM      9  H   UNL     1      35.643 -20.466 -20.764  0.00  0.00    +0.151 HD
ENDROOT
BRANCH   4  10
ATOM     10  C   UNL     1      33.537 -23.127 -17.691  0.00  0.00    +0.021 C 
BRANCH  10  11
ATOM     11  C   UNL     1      32.149 -22.762 -17.158  0.00  0.00    +0.002 C 
BRANCH  11  12
ATOM     12  C   UNL     1      31.847 -23.371 -15.787  0.00  0.00    +0.001 C 
BRANCH  12  13
ATOM     13  C   UNL     1      30.415 -23.049 -15.344  0.00  0.00    +0.012 C 
BRANCH  13  14
ATOM     14  C   UNL     1      29.388 -24.013 -15.940  0.00  0.00    +0.109 C 
BRANCH  14  16
ATOM     15  O   UNL     1      27.645 -23.917 -17.639  0.00  0.00    -0.250 OA
ATOM     16  C   UNL     1      28.418 -23.341 -16.885  0.00  0.00    +0.314 C 
BRANCH  16  17
ATOM     17  O   UNL     1      28.485 -21.988 -16.787  0.00  0.00    -0.480 OA
ATOM     18  H   UNL     1      28.802 -21.480 -17.509  0.00  0.00    +0.295 HD
ENDBRANCH  16  17
ENDBRANCH  14  16
ENDBRANCH  13  14
ENDBRANCH  12  13
ENDBRANCH  11  12
ENDBRANCH  10  11
ENDBRANCH   4  10
TORSDOF 7
ENDMDL
MODEL 2
REMARK VINA RESULT:      -7.1      4.278      6.572
REMARK  Name = 445027
REMARK  7 active torsions:
REMARK  status: ('A' for Active; 'I' for Inactive)
REMARK    1  A    between atoms: C_4  and  C_10
REMARK    2  A    between atoms: C_10  and  C_11
REMARK    3  A    between atoms: C_11  and  C_12
REMARK    4  A    between atoms: C_12  and  C_13
REMARK    5  A    between atoms: C_13  and  C_14
REMARK    6  A    between atoms: C_14  and  C_16
REMARK    7  A    between atoms: C_16  and  O_17
REMARK                            x       y       z     vdW  Elec       q    Type
REMARK                         _______ _______ _______ _____ _____    ______ ____
ROOT
ATOM      1  O   UNL     1      34.580 -17.074 -25.788  0.00  0.00    -0.253 OA
ATOM      2  N   UNL     1      35.315 -17.554 -23.612  0.00  0.00    -0.289 N 
ATOM      3  N   UNL     1      34.395 -15.538 -24.025  0.00  0.00    -0.289 N 
ATOM      4  C   UNL     1      35.490 -16.809 -22.382  0.00  0.00    +0.091 C 
ATOM      5  C   UNL     1      34.635 -15.542 -22.594  0.00  0.00    +0.091 C 
ATOM      6  C   UNL     1      33.306 -15.505 -21.848  0.00  0.00    +0.023 C 
ATOM      7  C   UNL     1      34.740 -16.761 -24.617  0.00  0.00    +0.301 C 
ATOM      8  H   UNL     1      35.566 -18.498 -23.729  0.00  0.00    +0.151 HD
ATOM      9  H   UNL     1      34.033 -14.769 -24.521  0.00  0.00    +0.151 HD
ENDROOT
BRANCH   4  10
ATOM     10  C   UNL     1      35.182 -17.658 -21.160  0.00  0.00    +0.021 C 
BRANCH  10  11
ATOM     11  C   UNL     1      34.564 -19.016 -21.500  0.00  0.00    +0.002 C 
BRANCH  11  12
ATOM     12  C   UNL     1      33.165 -19.210 -20.909  0.00  0.00    +0.001 C 
BRANCH  12  13
ATOM     13  C   UNL     1      33.038 -20.578 -20.229  0.00  0.00    +0.012 C 
BRANCH  13  14
ATOM     14  C   UNL     1      34.393 -21.150 -19.809  0.00  0.00    +0.109 C 
BRANCH  14  16
ATOM     15  O   UNL     1      35.202 -22.689 -18.104  0.00  0.00    -0.250 OA
ATOM     16  C   UNL     1      34.282 -22.255 -18.783  0.00  0.00    +0.314 C 
BRANCH  16  17
ATOM     17  O   UNL     1      33.006 -22.710 -18.679  0.00  0.00    -0.480 OA
ATOM     18  H   UNL     1      32.785 -23.563 -19.000  0.00  0.00    +0.295 HD
ENDBRANCH  16  17
ENDBRANCH  14  16
ENDBRANCH  13  14
ENDBRANCH  12  13
ENDBRANCH  11  12
ENDBRANCH  10  11
ENDBRANCH   4  10
TORSDOF 7
ENDMDL
MODEL 3
REMARK VINA RESULT:      -7.0      5.187      7.658
REMARK  Name = 445027
REMARK  7 active torsions:
REMARK  status: ('A' for Active; 'I' for Inactive)
REMARK    1  A    between atoms: C_4  and  C_10
REMARK    2  A    between atoms: C_10  and  C_11
REMARK    3  A    between atoms: C_11  and  C_12
REMARK    4  A    between atoms: C_12  and  C_13
REMARK    5  A    between atoms: C_13  and  C_14
REMARK    6  A    between atoms: C_14  and  C_16
REMARK    7  A    between atoms: C_16  and  O_17
REMARK                            x       y       z     vdW  Elec       q    Type
REMARK                         _______ _______ _______ _____ _____    ______ ____
ROOT
ATOM      1  O   UNL     1      32.967 -15.496 -26.593  0.00  0.00    -0.253 OA
ATOM      2  N   UNL     1      34.283 -16.292 -24.822  0.00  0.00    -0.289 N 
ATOM      3  N   UNL     1      33.324 -14.262 -24.631  0.00  0.00    -0.289 N 
ATOM      4  C   UNL     1      34.817 -15.747 -23.592  0.00  0.00    +0.091 C 
ATOM      5  C   UNL     1      33.963 -14.485 -23.347  0.00  0.00    +0.091 C 
ATOM      6  C   UNL     1      32.904 -14.601 -22.257  0.00  0.00    +0.023 C 
ATOM      7  C   UNL     1      33.461 -15.367 -25.483  0.00  0.00    +0.301 C 
ATOM      8  H   UNL     1      34.472 -17.200 -25.154  0.00  0.00    +0.151 HD
ATOM      9  H   UNL     1      32.850 -13.434 -24.874  0.00  0.00    +0.151 HD
ENDROOT
BRANCH   4  10
ATOM     10  C   UNL     1      34.855 -16.785 -22.483  0.00  0.00    +0.021 C 
BRANCH  10  11
ATOM     11  C   UNL     1      35.490 -18.111 -22.910  0.00  0.00    +0.002 C 
BRANCH  11  12
ATOM     12  C   UNL     1      34.692 -19.337 -22.461  0.00  0.00    +0.001 C 
BRANCH  12  13
ATOM     13  C   UNL     1      34.185 -19.169 -21.024  0.00  0.00    +0.012 C 
BRANCH  13  14
ATOM     14  C   UNL     1      33.052 -20.140 -20.688  0.00  0.00    +0.109 C 
BRANCH  14  16
ATOM     15  O   UNL     1      32.685 -21.955 -19.105  0.00  0.00    -0.250 OA
ATOM     16  C   UNL     1      33.452 -21.202 -19.689  0.00  0.00    +0.314 C 
BRANCH  16  17
ATOM     17  O   UNL     1      34.800 -21.242 -19.520  0.00  0.00    -0.480 OA
ATOM     18  H   UNL     1      35.164 -21.268 -18.657  0.00  0.00    +0.295 HD
ENDBRANCH  16  17
ENDBRANCH  14  16
ENDBRANCH  13  14
ENDBRANCH  12  13
ENDBRANCH  11  12
ENDBRANCH  10  11
ENDBRANCH   4  10
TORSDOF 7
ENDMDL
MODEL 4
REMARK VINA RESULT:      -7.0      5.567      7.157
REMARK  Name = 445027
REMARK  7 active torsions:
REMARK  status: ('A' for Active; 'I' for Inactive)
REMARK    1  A    between atoms: C_4  and  C_10
REMARK    2  A    between atoms: C_10  and  C_11
REMARK    3  A    between atoms: C_11  and  C_12
REMARK    4  A    between atoms: C_12  and  C_13
REMARK    5  A    between atoms: C_13  and  C_14
REMARK    6  A    between atoms: C_14  and  C_16
REMARK    7  A    between atoms: C_16  and  O_17
REMARK                            x       y       z     vdW  Elec       q    Type
REMARK                         _______ _______ _______ _____ _____    ______ ____
ROOT
ATOM      1  O   UNL     1      40.947 -25.766 -15.031  0.00  0.00    -0.253 OA
ATOM      2  N   UNL     1      38.996 -24.534 -15.453  0.00  0.00    -0.289 N 
ATOM      3  N   UNL     1      39.113 -25.764 -13.569  0.00  0.00    -0.289 N 
ATOM      4  C   UNL     1      37.675 -24.439 -14.868  0.00  0.00    +0.091 C 
ATOM      5  C   UNL     1      37.846 -25.063 -13.468  0.00  0.00    +0.091 C 
ATOM      6  C   UNL     1      37.892 -24.080 -12.304  0.00  0.00    +0.023 C 
ATOM      7  C   UNL     1      39.824 -25.397 -14.720  0.00  0.00    +0.301 C 
ATOM      8  H   UNL     1      39.279 -24.052 -16.264  0.00  0.00    +0.151 HD
ATOM      9  H   UNL     1      39.434 -26.420 -12.909  0.00  0.00    +0.151 HD
ENDROOT
BRANCH   4  10
ATOM     10  C   UNL     1      37.128 -23.023 -14.935  0.00  0.00    +0.021 C 
BRANCH  10  11
ATOM     11  C   UNL     1      37.292 -22.369 -16.309  0.00  0.00    +0.002 C 
BRANCH  11  12
ATOM     12  C   UNL     1      35.996 -22.335 -17.122  0.00  0.00    +0.001 C 
BRANCH  12  13
ATOM     13  C   UNL     1      36.248 -21.812 -18.541  0.00  0.00    +0.012 C 
BRANCH  13  14
ATOM     14  C   UNL     1      34.950 -21.500 -19.287  0.00  0.00    +0.109 C 
BRANCH  14  16
ATOM     15  O   UNL     1      34.074 -23.751 -19.598  0.00  0.00    -0.250 OA
ATOM     16  C   UNL     1      33.925 -22.607 -19.193  0.00  0.00    +0.314 C 
BRANCH  16  17
ATOM     17  O   UNL     1      32.794 -22.185 -18.569  0.00  0.00    -0.480 OA
ATOM     18  H   UNL     1      32.180 -21.644 -19.027  0.00  0.00    +0.295 HD
ENDBRANCH  16  17
ENDBRANCH  14  16
ENDBRANCH  13  14
ENDBRANCH  12  13
ENDBRANCH  11  12
ENDBRANCH  10  11
ENDBRANCH   4  10
TORSDOF 7
ENDMDL
MODEL 5
REMARK VINA RESULT:      -6.9      4.148      4.643
REMARK  Name = 445027
REMARK  7 active torsions:
REMARK  status: ('A' for Active; 'I' for Inactive)
REMARK    1  A    between atoms: C_4  and  C_10
REMARK    2  A    between atoms: C_10  and  C_11
REMARK    3  A    between atoms: C_11  and  C_12
REMARK    4  A    between atoms: C_12  and  C_13
REMARK    5  A    between atoms: C_13  and  C_14
REMARK    6  A    between atoms: C_14  and  C_16
REMARK    7  A    between atoms: C_16  and  O_17
REMARK                            x       y       z     vdW  Elec       q    Type
REMARK                         _______ _______ _______ _____ _____    ______ ____
ROOT
ATOM      1  O   UNL     1      36.662 -27.231 -15.809  0.00  0.00    -0.253 OA
ATOM      2  N   UNL     1      35.280 -25.445 -15.175  0.00  0.00    -0.289 N 
ATOM      3  N   UNL     1      37.514 -25.152 -15.136  0.00  0.00    -0.289 N 
ATOM      4  C   UNL     1      35.471 -24.138 -14.580  0.00  0.00    +0.091 C 
ATOM      5  C   UNL     1      36.971 -23.850 -14.797  0.00  0.00    +0.091 C 
ATOM      6  C   UNL     1      37.302 -22.850 -15.899  0.00  0.00    +0.023 C 
ATOM      7  C   UNL     1      36.505 -26.082 -15.424  0.00  0.00    +0.301 C 
ATOM      8  H   UNL     1      34.401 -25.837 -15.381  0.00  0.00    +0.151 HD
ATOM      9  H   UNL     1      38.476 -25.359 -15.160  0.00  0.00    +0.151 HD
ENDROOT
BRANCH   4  10
ATOM     10  C   UNL     1      34.483 -23.120 -15.123  0.00  0.00    +0.021 C 
BRANCH  10  11
ATOM     11  C   UNL     1      33.020 -23.499 -14.881  0.00  0.00    +0.002 C 
BRANCH  11  12
ATOM     12  C   UNL     1      32.178 -23.517 -16.159  0.00  0.00    +0.001 C 
BRANCH  12  13
ATOM     13  C   UNL     1      30.816 -22.851 -15.932  0.00  0.00    +0.012 C 
BRANCH  13  14
ATOM     14  C   UNL     1      29.657 -23.844 -16.029  0.00  0.00    +0.109 C 
BRANCH  14  16
ATOM     15  O   UNL     1      27.737 -24.091 -17.508  0.00  0.00    -0.250 OA
ATOM     16  C   UNL     1      28.539 -23.371 -16.929  0.00  0.00    +0.314 C 
BRANCH  16  17
ATOM     17  O   UNL     1      28.507 -22.015 -17.011  0.00  0.00    -0.480 OA
ATOM     18  H   UNL     1      28.766 -21.494 -16.275  0.00  0.00    +0.295 HD
ENDBRANCH  16  17
ENDBRANCH  14  16
ENDBRANCH  13  14
ENDBRANCH  12  13
ENDBRANCH  11  12
ENDBRANCH  10  11
ENDBRANCH   4  10
TORSDOF 7
ENDMDL
MODEL 6
REMARK VINA RESULT:      -6.8      4.606      5.540
REMARK  Name = 445027
REMARK  7 active torsions:
REMARK  status: ('A' for Active; 'I' for Inactive)
REMARK    1  A    between atoms: C_4  and  C_10
REMARK    2  A    between atoms: C_10  and  C_11
REMARK    3  A    between atoms: C_11  and  C_12
REMARK    4  A    between atoms: C_12  and  C_13
REMARK    5  A    between atoms: C_13  and  C_14
REMARK    6  A    between atoms: C_14  and  C_16
REMARK    7  A    between atoms: C_16  and  O_17
REMARK                            x       y       z     vdW  Elec       q    Type
REMARK                         _______ _______ _______ _____ _____    ______ ____
ROOT
ATOM      1  O   UNL     1      35.286 -24.960 -10.773  0.00  0.00    -0.253 OA
ATOM      2  N   UNL     1      34.802 -23.727 -12.709  0.00  0.00    -0.289 N 
ATOM      3  N   UNL     1      36.589 -25.099 -12.718  0.00  0.00    -0.289 N 
ATOM      4  C   UNL     1      35.460 -23.466 -13.972  0.00  0.00    +0.091 C 
ATOM      5  C   UNL     1      36.519 -24.584 -14.073  0.00  0.00    +0.091 C 
ATOM      6  C   UNL     1      36.197 -25.718 -15.040  0.00  0.00    +0.023 C 
ATOM      7  C   UNL     1      35.528 -24.637 -11.927  0.00  0.00    +0.301 C 
ATOM      8  H   UNL     1      33.950 -23.317 -12.434  0.00  0.00    +0.151 HD
ATOM      9  H   UNL     1      37.297 -25.700 -12.393  0.00  0.00    +0.151 HD
ENDROOT
BRANCH   4  10
ATOM     10  C   UNL     1      34.466 -23.347 -15.115  0.00  0.00    +0.021 C 
BRANCH  10  11
ATOM     11  C   UNL     1      33.006 -23.463 -14.668  0.00  0.00    +0.002 C 
BRANCH  11  12
ATOM     12  C   UNL     1      32.015 -23.478 -15.833  0.00  0.00    +0.001 C 
BRANCH  12  13
ATOM     13  C   UNL     1      30.653 -22.917 -15.406  0.00  0.00    +0.012 C 
BRANCH  13  14
ATOM     14  C   UNL     1      29.505 -23.881 -15.707  0.00  0.00    +0.109 C 
BRANCH  14  16
ATOM     15  O   UNL     1      27.796 -24.074 -17.432  0.00  0.00    -0.250 OA
ATOM     16  C   UNL     1      28.576 -23.384 -16.792  0.00  0.00    +0.314 C 
BRANCH  16  17
ATOM     17  O   UNL     1      28.693 -22.042 -16.969  0.00  0.00    -0.480 OA
ATOM     18  H   UNL     1      29.439 -21.587 -16.629  0.00  0.00    +0.295 HD
ENDBRANCH  16  17
ENDBRANCH  14  16
ENDBRANCH  13  14
ENDBRANCH  12  13
ENDBRANCH  11  12
ENDBRANCH  10  11
ENDBRANCH   4  10
TORSDOF 7
ENDMDL
MODEL 7
REMARK VINA RESULT:      -6.8      2.180      2.960
REMARK  Name = 445027
REMARK  7 active torsions:
REMARK  status: ('A' for Active; 'I' for Inactive)
REMARK    1  A    between atoms: C_4  and  C_10
REMARK    2  A    between atoms: C_10  and  C_11
REMARK    3  A    between atoms: C_11  and  C_12
REMARK    4  A    between atoms: C_12  and  C_13
REMARK    5  A    between atoms: C_13  and  C_14
REMARK    6  A    between atoms: C_14  and  C_16
REMARK    7  A    between atoms: C_16  and  O_17
REMARK                            x       y       z     vdW  Elec       q    Type
REMARK                         _______ _______ _______ _____ _____    ______ ____
ROOT
ATOM      1  O   UNL     1      32.981 -22.217 -19.196  0.00  0.00    -0.253 OA
ATOM      2  N   UNL     1      31.920 -22.644 -17.148  0.00  0.00    -0.289 N 
ATOM      3  N   UNL     1      34.031 -23.375 -17.447  0.00  0.00    -0.289 N 
ATOM      4  C   UNL     1      32.208 -23.434 -15.969  0.00  0.00    +0.091 C 
ATOM      5  C   UNL     1      33.724 -23.705 -16.068  0.00  0.00    +0.091 C 
ATOM      6  C   UNL     1      34.608 -22.889 -15.133  0.00  0.00    +0.023 C 
ATOM      7  C   UNL     1      32.979 -22.685 -18.067  0.00  0.00    +0.301 C 
ATOM      8  H   UNL     1      31.086 -22.141 -17.287  0.00  0.00    +0.151 HD
ATOM      9  H   UNL     1      34.876 -23.607 -17.895  0.00  0.00    +0.151 HD
ENDROOT
BRANCH   4  10
ATOM     10  C   UNL     1      31.705 -22.762 -14.702  0.00  0.00    +0.021 C 
BRANCH  10  11
ATOM     11  C   UNL     1      30.782 -23.651 -13.865  0.00  0.00    +0.002 C 
BRANCH  11  12
ATOM     12  C   UNL     1      30.332 -24.917 -14.597  0.00  0.00    +0.001 C 
BRANCH  12  13
ATOM     13  C   UNL     1      28.842 -24.850 -14.951  0.00  0.00    +0.012 C 
BRANCH  13  14
ATOM     14  C   UNL     1      28.602 -24.369 -16.382  0.00  0.00    +0.109 C 
BRANCH  14  16
ATOM     15  O   UNL     1      28.860 -22.017 -16.962  0.00  0.00    -0.250 OA
ATOM     16  C   UNL     1      28.196 -22.915 -16.463  0.00  0.00    +0.314 C 
BRANCH  16  17
ATOM     17  O   UNL     1      26.965 -22.712 -15.923  0.00  0.00    -0.480 OA
ATOM     18  H   UNL     1      26.775 -23.023 -15.060  0.00  0.00    +0.295 HD
ENDBRANCH  16  17
ENDBRANCH  14  16
ENDBRANCH  13  14
ENDBRANCH  12  13
ENDBRANCH  11  12
ENDBRANCH  10  11
ENDBRANCH   4  10
TORSDOF 7
ENDMDL
MODEL 8
REMARK VINA RESULT:      -6.8      5.773      6.743
REMARK  Name = 445027
REMARK  7 active torsions:
REMARK  status: ('A' for Active; 'I' for Inactive)
REMARK    1  A    between atoms: C_4  and  C_10
REMARK    2  A    between atoms: C_10  and  C_11
REMARK    3  A    between atoms: C_11  and  C_12
REMARK    4  A    between atoms: C_12  and  C_13
REMARK    5  A    between atoms: C_13  and  C_14
REMARK    6  A    between atoms: C_14  and  C_16
REMARK    7  A    between atoms: C_16  and  O_17
REMARK                            x       y       z     vdW  Elec       q    Type
REMARK                         _______ _______ _______ _____ _____    ______ ____
ROOT
ATOM      1  O   UNL     1      35.338 -24.580  -9.796  0.00  0.00    -0.253 OA
ATOM      2  N   UNL     1      35.085 -24.536 -12.128  0.00  0.00    -0.289 N 
ATOM      3  N   UNL     1      37.023 -23.812 -11.236  0.00  0.00    -0.289 N 
ATOM      4  C   UNL     1      35.829 -24.000 -13.249  0.00  0.00    +0.091 C 
ATOM      5  C   UNL     1      37.237 -23.750 -12.670  0.00  0.00    +0.091 C 
ATOM      6  C   UNL     1      38.309 -24.754 -13.075  0.00  0.00    +0.023 C 
ATOM      7  C   UNL     1      35.765 -24.342 -10.917  0.00  0.00    +0.301 C 
ATOM      8  H   UNL     1      34.211 -24.983 -12.206  0.00  0.00    +0.151 HD
ATOM      9  H   UNL     1      37.682 -23.517 -10.567  0.00  0.00    +0.151 HD
ENDROOT
BRANCH   4  10
ATOM     10  C   UNL     1      35.730 -24.894 -14.473  0.00  0.00    +0.021 C 
BRANCH  10  11
ATOM     11  C   UNL     1      35.162 -24.184 -15.704  0.00  0.00    +0.002 C 
BRANCH  11  12
ATOM     12  C   UNL     1      34.184 -23.059 -15.357  0.00  0.00    +0.001 C 
BRANCH  12  13
ATOM     13  C   UNL     1      32.755 -23.421 -15.778  0.00  0.00    +0.012 C 
BRANCH  13  14
ATOM     14  C   UNL     1      31.791 -23.466 -14.592  0.00  0.00    +0.109 C 
BRANCH  14  16
ATOM     15  O   UNL     1      30.681 -25.632 -14.491  0.00  0.00    -0.250 OA
ATOM     16  C   UNL     1      31.540 -24.866 -14.078  0.00  0.00    +0.314 C 
BRANCH  16  17
ATOM     17  O   UNL     1      32.415 -25.197 -13.093  0.00  0.00    -0.480 OA
ATOM     18  H   UNL     1      32.273 -24.893 -12.217  0.00  0.00    +0.295 HD
ENDBRANCH  16  17
ENDBRANCH  14  16
ENDBRANCH  13  14
ENDBRANCH  12  13
ENDBRANCH  11  12
ENDBRANCH  10  11
ENDBRANCH   4  10
TORSDOF 7
ENDMDL
MODEL 9
REMARK VINA RESULT:      -6.7      4.808      6.903
REMARK  Name = 445027
REMARK  7 active torsions:
REMARK  status: ('A' for Active; 'I' for Inactive)
REMARK    1  A    between atoms: C_4  and  C_10
REMARK    2  A    between atoms: C_10  and  C_11
REMARK    3  A    between atoms: C_11  and  C_12
REMARK    4  A    between atoms: C_12  and  C_13
REMARK    5  A    between atoms: C_13  and  C_14
REMARK    6  A    between atoms: C_14  and  C_16
REMARK    7  A    between atoms: C_16  and  O_17
REMARK                            x       y       z     vdW  Elec       q    Type
REMARK                         _______ _______ _______ _____ _____    ______ ____
ROOT
ATOM      1  O   UNL     1      27.547 -23.038 -17.704  0.00  0.00    -0.253 OA
ATOM      2  N   UNL     1      29.754 -22.780 -16.953  0.00  0.00    -0.289 N 
ATOM      3  N   UNL     1      28.299 -23.924 -15.667  0.00  0.00    -0.289 N 
ATOM      4  C   UNL     1      30.477 -23.048 -15.727  0.00  0.00    +0.091 C 
ATOM      5  C   UNL     1      29.568 -24.043 -14.974  0.00  0.00    +0.091 C 
ATOM      6  C   UNL     1      30.026 -25.496 -14.980  0.00  0.00    +0.023 C 
ATOM      7  C   UNL     1      28.427 -23.227 -16.877  0.00  0.00    +0.301 C 
ATOM      8  H   UNL     1      30.145 -22.339 -17.741  0.00  0.00    +0.151 HD
ATOM      9  H   UNL     1      27.449 -24.289 -15.328  0.00  0.00    +0.151 HD
ENDROOT
BRANCH   4  10
ATOM     10  C   UNL     1      31.907 -23.484 -15.998  0.00  0.00    +0.021 C 
BRANCH  10  11
ATOM     11  C   UNL     1      32.885 -23.093 -14.887  0.00  0.00    +0.002 C 
BRANCH  11  12
ATOM     12  C   UNL     1      33.350 -24.281 -14.043  0.00  0.00    +0.001 C 
BRANCH  12  13
ATOM     13  C   UNL     1      34.862 -24.226 -13.798  0.00  0.00    +0.012 C 
BRANCH  13  14
ATOM     14  C   UNL     1      35.208 -23.820 -12.365  0.00  0.00    +0.109 C 
BRANCH  14  16
ATOM     15  O   UNL     1      36.623 -25.752 -11.920  0.00  0.00    -0.250 OA
ATOM     16  C   UNL     1      35.775 -24.956 -11.543  0.00  0.00    +0.314 C 
BRANCH  16  17
ATOM     17  O   UNL     1      35.238 -24.982 -10.295  0.00  0.00    -0.480 OA
ATOM     18  H   UNL     1      35.004 -24.181  -9.868  0.00  0.00    +0.295 HD
ENDBRANCH  16  17
ENDBRANCH  14  16
ENDBRANCH  13  14
ENDBRANCH  12  13
ENDBRANCH  11  12
ENDBRANCH  10  11
ENDBRANCH   4  10
TORSDOF 7
ENDMDL
