MODEL 1
REMARK VINA RESULT:      -4.7      0.000      0.000
REMARK  Name = 76839
REMARK  5 active torsions:
REMARK  status: ('A' for Active; 'I' for Inactive)
REMARK    1  A    between atoms: P_1  and  O_3
REMARK    2  A    between atoms: P_1  and  O_5
REMARK    3  A    between atoms: P_1  and  C_7
REMARK    4  A    between atoms: C_7  and  C_8
REMARK    5  A    between atoms: C_8  and  C_9
REMARK                            x       y       z     vdW  Elec       q    Type
REMARK                         _______ _______ _______ _____ _____    ______ ____
ROOT
ATOM      1  P   UNL     1      28.272 -22.918 -16.514  0.00  0.00    +0.337 P 
ATOM      2  O   UNL     1      27.553 -21.960 -15.629  0.00  0.00    -0.258 OA
ENDROOT
BRANCH   1   3
ATOM      3  O   UNL     1      27.445 -23.477 -17.778  0.00  0.00    -0.324 OA
ATOM      4  H   UNL     1      27.734 -23.016 -18.581  0.00  0.00    +0.220 HD
ENDBRANCH   1   3
BRANCH   1   5
ATOM      5  O   UNL     1      29.654 -22.396 -17.152  0.00  0.00    -0.324 OA
ATOM      6  H   UNL     1      29.505 -22.131 -18.073  0.00  0.00    +0.220 HD
ENDBRANCH   1   5
BRANCH   1   7
ATOM      7  C   UNL     1      28.778 -24.437 -15.677  0.00  0.00    +0.116 C 
BRANCH   7   8
ATOM      8  C   UNL     1      30.278 -24.530 -15.432  0.00  0.00    +0.013 C 
BRANCH   8   9
ATOM      9  C   UNL     1      30.688 -23.888 -14.108  0.00  0.00    +0.001 C 
ATOM     10  C   UNL     1      31.751 -22.820 -14.314  0.00  0.00    +0.000 C 
ENDBRANCH   8   9
ENDBRANCH   7   8
ENDBRANCH   1   7
TORSDOF 5
ENDMDL
MODEL 2
REMARK VINA RESULT:      -4.7      6.235      7.079
REMARK  Name = 76839
REMARK  5 active torsions:
REMARK  status: ('A' for Active; 'I' for Inactive)
REMARK    1  A    between atoms: P_1  and  O_3
REMARK    2  A    between atoms: P_1  and  O_5
REMARK    3  A    between atoms: P_1  and  C_7
REMARK    4  A    between atoms: C_7  and  C_8
REMARK    5  A    between atoms: C_8  and  C_9
REMARK                            x       y       z     vdW  Elec       q    Type
REMARK                         _______ _______ _______ _____ _____    ______ ____
ROOT
ATOM      1  P   UNL     1      33.970 -22.698 -18.547  0.00  0.00    +0.337 P 
ATOM      2  O   UNL     1      34.870 -22.835 -17.368  0.00  0.00    -0.258 OA
ENDROOT
BRANCH   1   3
ATOM      3  O   UNL     1      33.939 -23.944 -19.567  0.00  0.00    -0.324 OA
ATOM      4  H   UNL     1      33.462 -24.683 -19.157  0.00  0.00    +0.220 HD
ENDBRANCH   1   3
BRANCH   1   5
ATOM      5  O   UNL     1      32.419 -22.415 -18.229  0.00  0.00    -0.324 OA
ATOM      6  H   UNL     1      32.335 -22.037 -17.339  0.00  0.00    +0.220 HD
ENDBRANCH   1   5
BRANCH   1   7
ATOM      7  C   UNL     1      34.403 -21.319 -19.632  0.00  0.00    +0.116 C 
BRANCH   7   8
ATOM      8  C   UNL     1      33.197 -20.558 -20.164  0.00  0.00    +0.013 C 
BRANCH   8   9
ATOM      9  C   UNL     1      33.602 -19.386 -21.058  0.00  0.00    +0.001 C 
ATOM     10  C   UNL     1      35.106 -19.348 -21.276  0.00  0.00    +0.000 C 
ENDBRANCH   8   9
ENDBRANCH   7   8
ENDBRANCH   1   7
TORSDOF 5
ENDMDL
MODEL 3
REMARK VINA RESULT:      -4.7      8.253      9.155
REMARK  Name = 76839
REMARK  5 active torsions:
REMARK  status: ('A' for Active; 'I' for Inactive)
REMARK    1  A    between atoms: P_1  and  O_3
REMARK    2  A    between atoms: P_1  and  O_5
REMARK    3  A    between atoms: P_1  and  C_7
REMARK    4  A    between atoms: C_7  and  C_8
REMARK    5  A    between atoms: C_8  and  C_9
REMARK                            x       y       z     vdW  Elec       q    Type
REMARK                         _______ _______ _______ _____ _____    ______ ____
ROOT
ATOM      1  P   UNL     1      36.036 -24.118 -11.321  0.00  0.00    +0.337 P 
ATOM      2  O   UNL     1      37.021 -23.124 -10.809  0.00  0.00    -0.258 OA
ENDROOT
BRANCH   1   3
ATOM      3  O   UNL     1      35.339 -25.061 -10.218  0.00  0.00    -0.324 OA
ATOM      4  H   UNL     1      34.604 -24.582  -9.803  0.00  0.00    +0.220 HD
ENDBRANCH   1   3
BRANCH   1   5
ATOM      5  O   UNL     1      34.802 -23.525 -12.166  0.00  0.00    -0.324 OA
ATOM      6  H   UNL     1      34.291 -24.256 -12.548  0.00  0.00    +0.220 HD
ENDBRANCH   1   5
BRANCH   1   7
ATOM      7  C   UNL     1      36.750 -25.320 -12.465  0.00  0.00    +0.116 C 
BRANCH   7   8
ATOM      8  C   UNL     1      38.243 -25.130 -12.700  0.00  0.00    +0.013 C 
BRANCH   8   9
ATOM      9  C   UNL     1      38.691 -25.686 -14.050  0.00  0.00    +0.001 C 
ATOM     10  C   UNL     1      40.206 -25.706 -14.168  0.00  0.00    +0.000 C 
ENDBRANCH   8   9
ENDBRANCH   7   8
ENDBRANCH   1   7
TORSDOF 5
ENDMDL
MODEL 4
REMARK VINA RESULT:      -4.6      8.100      8.888
REMARK  Name = 76839
REMARK  5 active torsions:
REMARK  status: ('A' for Active; 'I' for Inactive)
REMARK    1  A    between atoms: P_1  and  O_3
REMARK    2  A    between atoms: P_1  and  O_5
REMARK    3  A    between atoms: P_1  and  C_7
REMARK    4  A    between atoms: C_7  and  C_8
REMARK    5  A    between atoms: C_8  and  C_9
REMARK                            x       y       z     vdW  Elec       q    Type
REMARK                         _______ _______ _______ _____ _____    ______ ____
ROOT
ATOM      1  P   UNL     1      37.235 -26.406 -14.661  0.00  0.00    +0.337 P 
ATOM      2  O   UNL     1      36.298 -26.730 -15.772  0.00  0.00    -0.258 OA
ENDROOT
BRANCH   1   3
ATOM      3  O   UNL     1      36.768 -26.849 -13.185  0.00  0.00    -0.324 OA
ATOM      4  H   UNL     1      36.204 -26.158 -12.805  0.00  0.00    +0.220 HD
ENDBRANCH   1   3
BRANCH   1   5
ATOM      5  O   UNL     1      38.726 -26.999 -14.793  0.00  0.00    -0.324 OA
ATOM      6  H   UNL     1      39.086 -27.166 -13.908  0.00  0.00    +0.220 HD
ENDBRANCH   1   5
BRANCH   1   7
ATOM      7  C   UNL     1      37.536 -24.636 -14.460  0.00  0.00    +0.116 C 
BRANCH   7   8
ATOM      8  C   UNL     1      36.744 -23.768 -15.428  0.00  0.00    +0.013 C 
BRANCH   8   9
ATOM      9  C   UNL     1      37.590 -22.640 -16.017  0.00  0.00    +0.001 C 
ATOM     10  C   UNL     1      36.862 -21.933 -17.150  0.00  0.00    +0.000 C 
ENDBRANCH   8   9
ENDBRANCH   7   8
ENDBRANCH   1   7
TORSDOF 5
ENDMDL
MODEL 5
REMARK VINA RESULT:      -4.6      0.937      2.060
REMARK  Name = 76839
REMARK  5 active torsions:
REMARK  status: ('A' for Active; 'I' for Inactive)
REMARK    1  A    between atoms: P_1  and  O_3
REMARK    2  A    between atoms: P_1  and  O_5
REMARK    3  A    between atoms: P_1  and  C_7
REMARK    4  A    between atoms: C_7  and  C_8
REMARK    5  A    between atoms: C_8  and  C_9
REMARK                            x       y       z     vdW  Elec       q    Type
REMARK                         _______ _______ _______ _____ _____    ______ ____
ROOT
ATOM      1  P   UNL     1      28.101 -23.255 -16.535  0.00  0.00    +0.337 P 
ATOM      2  O   UNL     1      27.732 -24.261 -17.569  0.00  0.00    -0.258 OA
ENDROOT
BRANCH   1   3
ATOM      3  O   UNL     1      28.906 -21.961 -17.056  0.00  0.00    -0.324 OA
ATOM      4  H   UNL     1      28.311 -21.195 -17.070  0.00  0.00    +0.220 HD
ENDBRANCH   1   3
BRANCH   1   5
ATOM      5  O   UNL     1      26.887 -22.639 -15.677  0.00  0.00    -0.324 OA
ATOM      6  H   UNL     1      27.137 -21.763 -15.345  0.00  0.00    +0.220 HD
ENDBRANCH   1   5
BRANCH   1   7
ATOM      7  C   UNL     1      29.195 -23.903 -15.252  0.00  0.00    +0.116 C 
BRANCH   7   8
ATOM      8  C   UNL     1      30.208 -22.887 -14.741  0.00  0.00    +0.013 C 
BRANCH   8   9
ATOM      9  C   UNL     1      31.460 -23.554 -14.173  0.00  0.00    +0.001 C 
ATOM     10  C   UNL     1      31.163 -24.959 -13.675  0.00  0.00    +0.000 C 
ENDBRANCH   8   9
ENDBRANCH   7   8
ENDBRANCH   1   7
TORSDOF 5
ENDMDL
MODEL 6
REMARK VINA RESULT:      -4.6      8.356      9.094
REMARK  Name = 76839
REMARK  5 active torsions:
REMARK  status: ('A' for Active; 'I' for Inactive)
REMARK    1  A    between atoms: P_1  and  O_3
REMARK    2  A    between atoms: P_1  and  O_5
REMARK    3  A    between atoms: P_1  and  C_7
REMARK    4  A    between atoms: C_7  and  C_8
REMARK    5  A    between atoms: C_8  and  C_9
REMARK                            x       y       z     vdW  Elec       q    Type
REMARK                         _______ _______ _______ _____ _____    ______ ____
ROOT
ATOM      1  P   UNL     1      35.880 -18.609 -21.328  0.00  0.00    +0.337 P 
ATOM      2  O   UNL     1      36.816 -19.353 -20.439  0.00  0.00    -0.258 OA
ENDROOT
BRANCH   1   3
ATOM      3  O   UNL     1      35.246 -17.259 -20.721  0.00  0.00    -0.324 OA
ATOM      4  H   UNL     1      34.324 -17.422 -20.467  0.00  0.00    +0.220 HD
ENDBRANCH   1   3
BRANCH   1   5
ATOM      5  O   UNL     1      36.465 -18.157 -22.757  0.00  0.00    -0.324 OA
ATOM      6  H   UNL     1      36.452 -18.913 -23.365  0.00  0.00    +0.220 HD
ENDBRANCH   1   5
BRANCH   1   7
ATOM      7  C   UNL     1      34.412 -19.556 -21.789  0.00  0.00    +0.116 C 
BRANCH   7   8
ATOM      8  C   UNL     1      33.278 -19.457 -20.778  0.00  0.00    +0.013 C 
BRANCH   8   9
ATOM      9  C   UNL     1      32.915 -20.816 -20.183  0.00  0.00    +0.001 C 
ATOM     10  C   UNL     1      34.121 -21.479 -19.536  0.00  0.00    +0.000 C 
ENDBRANCH   8   9
ENDBRANCH   7   8
ENDBRANCH   1   7
TORSDOF 5
ENDMDL
MODEL 7
REMARK VINA RESULT:      -4.5      8.414      9.085
REMARK  Name = 76839
REMARK  5 active torsions:
REMARK  status: ('A' for Active; 'I' for Inactive)
REMARK    1  A    between atoms: P_1  and  O_3
REMARK    2  A    between atoms: P_1  and  O_5
REMARK    3  A    between atoms: P_1  and  C_7
REMARK    4  A    between atoms: C_7  and  C_8
REMARK    5  A    between atoms: C_8  and  C_9
REMARK                            x       y       z     vdW  Elec       q    Type
REMARK                         _______ _______ _______ _____ _____    ______ ____
ROOT
ATOM      1  P   UNL     1      35.779 -18.418 -21.455  0.00  0.00    +0.337 P 
ATOM      2  O   UNL     1      35.278 -17.249 -20.680  0.00  0.00    -0.258 OA
ENDROOT
BRANCH   1   3
ATOM      3  O   UNL     1      36.301 -18.110 -22.947  0.00  0.00    -0.324 OA
ATOM      4  H   UNL     1      36.233 -17.159 -23.122  0.00  0.00    +0.220 HD
ENDBRANCH   1   3
BRANCH   1   5
ATOM      5  O   UNL     1      36.980 -19.253 -20.785  0.00  0.00    -0.324 OA
ATOM      6  H   UNL     1      36.753 -19.465 -19.866  0.00  0.00    +0.220 HD
ENDBRANCH   1   5
BRANCH   1   7
ATOM      7  C   UNL     1      34.528 -19.691 -21.735  0.00  0.00    +0.116 C 
BRANCH   7   8
ATOM      8  C   UNL     1      33.329 -19.586 -20.802  0.00  0.00    +0.013 C 
BRANCH   8   9
ATOM      9  C   UNL     1      33.140 -20.846 -19.960  0.00  0.00    +0.001 C 
ATOM     10  C   UNL     1      34.475 -21.454 -19.563  0.00  0.00    +0.000 C 
ENDBRANCH   8   9
ENDBRANCH   7   8
ENDBRANCH   1   7
TORSDOF 5
ENDMDL
MODEL 8
REMARK VINA RESULT:      -4.5      9.123     10.016
REMARK  Name = 76839
REMARK  5 active torsions:
REMARK  status: ('A' for Active; 'I' for Inactive)
REMARK    1  A    between atoms: P_1  and  O_3
REMARK    2  A    between atoms: P_1  and  O_5
REMARK    3  A    between atoms: P_1  and  C_7
REMARK    4  A    between atoms: C_7  and  C_8
REMARK    5  A    between atoms: C_8  and  C_9
REMARK                            x       y       z     vdW  Elec       q    Type
REMARK                         _______ _______ _______ _____ _____    ______ ____
ROOT
ATOM      1  P   UNL     1      35.248 -17.664 -23.227  0.00  0.00    +0.337 P 
ATOM      2  O   UNL     1      34.504 -18.298 -24.351  0.00  0.00    -0.258 OA
ENDROOT
BRANCH   1   3
ATOM      3  O   UNL     1      36.692 -18.290 -22.887  0.00  0.00    -0.324 OA
ATOM      4  H   UNL     1      37.104 -17.781 -22.172  0.00  0.00    +0.220 HD
ENDBRANCH   1   3
BRANCH   1   5
ATOM      5  O   UNL     1      35.529 -16.085 -23.361  0.00  0.00    -0.324 OA
ATOM      6  H   UNL     1      35.179 -15.628 -22.580  0.00  0.00    +0.220 HD
ENDBRANCH   1   5
BRANCH   1   7
ATOM      7  C   UNL     1      34.392 -17.775 -21.640  0.00  0.00    +0.116 C 
BRANCH   7   8
ATOM      8  C   UNL     1      34.505 -19.142 -20.978  0.00  0.00    +0.013 C 
BRANCH   8   9
ATOM      9  C   UNL     1      33.140 -19.790 -20.754  0.00  0.00    +0.001 C 
ATOM     10  C   UNL     1      33.239 -20.987 -19.822  0.00  0.00    +0.000 C 
ENDBRANCH   8   9
ENDBRANCH   7   8
ENDBRANCH   1   7
TORSDOF 5
ENDMDL
MODEL 9
REMARK VINA RESULT:      -4.4      7.425      8.341
REMARK  Name = 76839
REMARK  5 active torsions:
REMARK  status: ('A' for Active; 'I' for Inactive)
REMARK    1  A    between atoms: P_1  and  O_3
REMARK    2  A    between atoms: P_1  and  O_5
REMARK    3  A    between atoms: P_1  and  C_7
REMARK    4  A    between atoms: C_7  and  C_8
REMARK    5  A    between atoms: C_8  and  C_9
REMARK                            x       y       z     vdW  Elec       q    Type
REMARK                         _______ _______ _______ _____ _____    ______ ____
ROOT
ATOM      1  P   UNL     1      37.259 -26.613 -14.889  0.00  0.00    +0.337 P 
ATOM      2  O   UNL     1      36.717 -27.310 -16.088  0.00  0.00    -0.258 OA
ENDROOT
BRANCH   1   3
ATOM      3  O   UNL     1      36.706 -27.117 -13.463  0.00  0.00    -0.324 OA
ATOM      4  H   UNL     1      36.447 -28.049 -13.529  0.00  0.00    +0.220 HD
ENDBRANCH   1   3
BRANCH   1   5
ATOM      5  O   UNL     1      38.858 -26.632 -14.717  0.00  0.00    -0.324 OA
ATOM      6  H   UNL     1      39.085 -26.997 -13.848  0.00  0.00    +0.220 HD
ENDBRANCH   1   5
BRANCH   1   7
ATOM      7  C   UNL     1      36.884 -24.846 -14.849  0.00  0.00    +0.116 C 
BRANCH   7   8
ATOM      8  C   UNL     1      35.394 -24.538 -14.775  0.00  0.00    +0.013 C 
BRANCH   8   9
ATOM      9  C   UNL     1      34.988 -23.416 -15.730  0.00  0.00    +0.001 C 
ATOM     10  C   UNL     1      33.481 -23.371 -15.925  0.00  0.00    +0.000 C 
ENDBRANCH   8   9
ENDBRANCH   7   8
ENDBRANCH   1   7
TORSDOF 5
ENDMDL
