MODEL 1
REMARK VINA RESULT:      -6.5      0.000      0.000
REMARK  Name = 28360827
REMARK  0 active torsions:
REMARK  status: ('A' for Active; 'I' for Inactive)
REMARK                            x       y       z     vdW  Elec       q    Type
REMARK                         _______ _______ _______ _____ _____    ______ ____
ROOT
ATOM      1  O   UNL     1      32.751 -20.649 -20.473  0.00  0.00    -0.350 OA
ATOM      2  O   UNL     1      34.643 -23.088 -18.765  0.00  0.00    -0.219 OA
ATOM      3  N   UNL     1      35.637 -18.337 -20.841  0.00  0.00    +0.389 N 
ATOM      4  N   UNL     1      32.847 -21.868 -19.796  0.00  0.00    -0.001 NA
ATOM      5  C   UNL     1      36.684 -19.434 -20.844  0.00  0.00    -0.076 C 
ATOM      6  C   UNL     1      36.333 -20.517 -19.802  0.00  0.00    +0.018 C 
ATOM      7  C   UNL     1      34.234 -18.809 -21.182  0.00  0.00    -0.012 C 
ATOM      8  C   UNL     1      34.904 -20.896 -19.901  0.00  0.00    +0.092 C 
ATOM      9  C   UNL     1      33.981 -20.093 -20.518  0.00  0.00    +0.139 C 
ATOM     10  C   UNL     1      34.142 -21.990 -19.466  0.00  0.00    +0.188 C 
ATOM     11  H   UNL     1      35.912 -17.632 -21.526  0.00  0.00    -0.084 HD
ATOM     12  H   UNL     1      35.599 -17.972 -19.890  0.00  0.00    -0.084 HD
ENDROOT
TORSDOF 0
ENDMDL
MODEL 2
REMARK VINA RESULT:      -6.3      1.600      2.515
REMARK  Name = 28360827
REMARK  0 active torsions:
REMARK  status: ('A' for Active; 'I' for Inactive)
REMARK                            x       y       z     vdW  Elec       q    Type
REMARK                         _______ _______ _______ _____ _____    ______ ____
ROOT
ATOM      1  O   UNL     1      35.620 -22.242 -18.770  0.00  0.00    -0.350 OA
ATOM      2  O   UNL     1      32.167 -22.563 -18.127  0.00  0.00    -0.219 OA
ATOM      3  N   UNL     1      35.114 -19.799 -21.526  0.00  0.00    +0.389 N 
ATOM      4  N   UNL     1      34.555 -22.829 -18.082  0.00  0.00    -0.001 NA
ATOM      5  C   UNL     1      33.818 -19.241 -20.968  0.00  0.00    -0.076 C 
ATOM      6  C   UNL     1      32.943 -20.376 -20.397  0.00  0.00    +0.018 C 
ATOM      7  C   UNL     1      35.976 -20.522 -20.504  0.00  0.00    -0.012 C 
ATOM      8  C   UNL     1      33.750 -21.285 -19.549  0.00  0.00    +0.092 C 
ATOM      9  C   UNL     1      35.116 -21.336 -19.636  0.00  0.00    +0.139 C 
ATOM     10  C   UNL     1      33.452 -22.239 -18.566  0.00  0.00    +0.188 C 
ATOM     11  H   UNL     1      35.656 -19.025 -21.910  0.00  0.00    -0.084 HD
ATOM     12  H   UNL     1      34.855 -20.490 -22.229  0.00  0.00    -0.084 HD
ENDROOT
TORSDOF 0
ENDMDL
MODEL 3
REMARK VINA RESULT:      -6.2      3.448      4.658
REMARK  Name = 28360827
REMARK  0 active torsions:
REMARK  status: ('A' for Active; 'I' for Inactive)
REMARK                            x       y       z     vdW  Elec       q    Type
REMARK                         _______ _______ _______ _____ _____    ______ ____
ROOT
ATOM      1  O   UNL     1      34.842 -15.886 -21.572  0.00  0.00    -0.350 OA
ATOM      2  O   UNL     1      35.726 -19.142 -20.542  0.00  0.00    -0.219 OA
ATOM      3  N   UNL     1      34.796 -16.790 -25.177  0.00  0.00    +0.389 N 
ATOM      4  N   UNL     1      35.189 -16.799 -20.573  0.00  0.00    -0.001 NA
ATOM      5  C   UNL     1      34.432 -18.243 -24.942  0.00  0.00    -0.076 C 
ATOM      6  C   UNL     1      35.204 -18.804 -23.728  0.00  0.00    +0.018 C 
ATOM      7  C   UNL     1      34.477 -15.867 -24.012  0.00  0.00    -0.012 C 
ATOM      8  C   UNL     1      35.142 -17.860 -22.587  0.00  0.00    +0.092 C 
ATOM      9  C   UNL     1      34.826 -16.538 -22.754  0.00  0.00    +0.139 C 
ATOM     10  C   UNL     1      35.362 -17.969 -21.206  0.00  0.00    +0.188 C 
ATOM     11  H   UNL     1      34.283 -16.460 -25.995  0.00  0.00    -0.084 HD
ATOM     12  H   UNL     1      35.807 -16.760 -25.303  0.00  0.00    -0.084 HD
ENDROOT
TORSDOF 0
ENDMDL
MODEL 4
REMARK VINA RESULT:      -6.1      8.919      9.885
REMARK  Name = 28360827
REMARK  0 active torsions:
REMARK  status: ('A' for Active; 'I' for Inactive)
REMARK                            x       y       z     vdW  Elec       q    Type
REMARK                         _______ _______ _______ _____ _____    ______ ____
ROOT
ATOM      1  O   UNL     1      41.006 -16.631 -16.028  0.00  0.00    -0.350 OA
ATOM      2  O   UNL     1      42.958 -16.919 -18.953  0.00  0.00    -0.219 OA
ATOM      3  N   UNL     1      41.869 -13.050 -15.528  0.00  0.00    +0.389 N 
ATOM      4  N   UNL     1      41.536 -17.392 -17.073  0.00  0.00    -0.001 NA
ATOM      5  C   UNL     1      42.088 -12.763 -17.001  0.00  0.00    -0.076 C 
ATOM      6  C   UNL     1      42.828 -13.937 -17.676  0.00  0.00    +0.018 C 
ATOM      7  C   UNL     1      41.035 -14.290 -15.249  0.00  0.00    -0.012 C 
ATOM      8  C   UNL     1      42.222 -15.231 -17.286  0.00  0.00    +0.092 C 
ATOM      9  C   UNL     1      41.431 -15.357 -16.175  0.00  0.00    +0.139 C 
ATOM     10  C   UNL     1      42.258 -16.533 -17.808  0.00  0.00    +0.188 C 
ATOM     11  H   UNL     1      41.396 -12.247 -15.113  0.00  0.00    -0.084 HD
ATOM     12  H   UNL     1      42.789 -13.222 -15.124  0.00  0.00    -0.084 HD
ENDROOT
TORSDOF 0
ENDMDL
MODEL 5
REMARK VINA RESULT:      -6.1      8.072      8.955
REMARK  Name = 28360827
REMARK  0 active torsions:
REMARK  status: ('A' for Active; 'I' for Inactive)
REMARK                            x       y       z     vdW  Elec       q    Type
REMARK                         _______ _______ _______ _____ _____    ______ ____
ROOT
ATOM      1  O   UNL     1      38.823 -26.171 -13.518  0.00  0.00    -0.350 OA
ATOM      2  O   UNL     1      36.346 -26.954 -15.905  0.00  0.00    -0.219 OA
ATOM      3  N   UNL     1      36.905 -23.306 -12.129  0.00  0.00    +0.389 N 
ATOM      4  N   UNL     1      38.364 -26.928 -14.599  0.00  0.00    -0.001 NA
ATOM      5  C   UNL     1      35.544 -23.879 -12.479  0.00  0.00    -0.076 C 
ATOM      6  C   UNL     1      35.580 -24.542 -13.872  0.00  0.00    +0.018 C 
ATOM      7  C   UNL     1      38.023 -24.334 -12.077  0.00  0.00    -0.012 C 
ATOM      8  C   UNL     1      36.774 -25.408 -14.009  0.00  0.00    +0.092 C 
ATOM      9  C   UNL     1      37.865 -25.276 -13.192  0.00  0.00    +0.139 C 
ATOM     10  C   UNL     1      37.140 -26.452 -14.871  0.00  0.00    +0.188 C 
ATOM     11  H   UNL     1      36.838 -22.861 -11.213  0.00  0.00    -0.084 HD
ATOM     12  H   UNL     1      37.145 -22.651 -12.872  0.00  0.00    -0.084 HD
ENDROOT
TORSDOF 0
ENDMDL
MODEL 6
REMARK VINA RESULT:      -6.1      5.288      6.764
REMARK  Name = 28360827
REMARK  0 active torsions:
REMARK  status: ('A' for Active; 'I' for Inactive)
REMARK                            x       y       z     vdW  Elec       q    Type
REMARK                         _______ _______ _______ _____ _____    ______ ____
ROOT
ATOM      1  O   UNL     1      34.127 -17.198 -25.876  0.00  0.00    -0.350 OA
ATOM      2  O   UNL     1      32.934 -13.959 -25.142  0.00  0.00    -0.219 OA
ATOM      3  N   UNL     1      35.883 -17.538 -22.618  0.00  0.00    +0.389 N 
ATOM      4  N   UNL     1      33.444 -16.035 -26.243  0.00  0.00    -0.001 NA
ATOM      5  C   UNL     1      34.941 -16.619 -21.865  0.00  0.00    -0.076 C 
ATOM      6  C   UNL     1      34.568 -15.400 -22.734  0.00  0.00    +0.018 C 
ATOM      7  C   UNL     1      35.312 -18.101 -23.909  0.00  0.00    -0.012 C 
ATOM      8  C   UNL     1      34.202 -15.826 -24.106  0.00  0.00    +0.092 C 
ATOM      9  C   UNL     1      34.569 -17.046 -24.609  0.00  0.00    +0.139 C 
ATOM     10  C   UNL     1      33.505 -15.234 -25.169  0.00  0.00    +0.188 C 
ATOM     11  H   UNL     1      36.122 -18.320 -22.007  0.00  0.00    -0.084 HD
ATOM     12  H   UNL     1      36.693 -16.976 -22.878  0.00  0.00    -0.084 HD
ENDROOT
TORSDOF 0
ENDMDL
MODEL 7
REMARK VINA RESULT:      -6.1      3.610      5.304
REMARK  Name = 28360827
REMARK  0 active torsions:
REMARK  status: ('A' for Active; 'I' for Inactive)
REMARK                            x       y       z     vdW  Elec       q    Type
REMARK                         _______ _______ _______ _____ _____    ______ ____
ROOT
ATOM      1  O   UNL     1      34.670 -19.385 -23.673  0.00  0.00    -0.350 OA
ATOM      2  O   UNL     1      34.602 -16.640 -25.888  0.00  0.00    -0.219 OA
ATOM      3  N   UNL     1      35.266 -17.255 -20.686  0.00  0.00    +0.389 N 
ATOM      4  N   UNL     1      34.582 -18.860 -24.965  0.00  0.00    -0.001 NA
ATOM      5  C   UNL     1      34.566 -16.036 -21.254  0.00  0.00    -0.076 C 
ATOM      6  C   UNL     1      34.906 -15.866 -22.750  0.00  0.00    +0.018 C 
ATOM      7  C   UNL     1      34.885 -18.565 -21.356  0.00  0.00    -0.012 C 
ATOM      8  C   UNL     1      34.780 -17.157 -23.466  0.00  0.00    +0.092 C 
ATOM      9  C   UNL     1      34.791 -18.357 -22.806  0.00  0.00    +0.139 C 
ATOM     10  C   UNL     1      34.651 -17.529 -24.812  0.00  0.00    +0.188 C 
ATOM     11  H   UNL     1      35.034 -17.324 -19.695  0.00  0.00    -0.084 HD
ATOM     12  H   UNL     1      36.263 -17.122 -20.852  0.00  0.00    -0.084 HD
ENDROOT
TORSDOF 0
ENDMDL
MODEL 8
REMARK VINA RESULT:      -6.1      7.408      8.089
REMARK  Name = 28360827
REMARK  0 active torsions:
REMARK  status: ('A' for Active; 'I' for Inactive)
REMARK                            x       y       z     vdW  Elec       q    Type
REMARK                         _______ _______ _______ _____ _____    ______ ____
ROOT
ATOM      1  O   UNL     1      35.682 -26.165 -15.656  0.00  0.00    -0.350 OA
ATOM      2  O   UNL     1      38.948 -27.046 -14.656  0.00  0.00    -0.219 OA
ATOM      3  N   UNL     1      35.336 -23.554 -13.034  0.00  0.00    +0.389 N 
ATOM      4  N   UNL     1      36.821 -26.967 -15.772  0.00  0.00    -0.001 NA
ATOM      5  C   UNL     1      36.819 -23.248 -12.958  0.00  0.00    -0.076 C 
ATOM      6  C   UNL     1      37.643 -24.550 -13.041  0.00  0.00    +0.018 C 
ATOM      7  C   UNL     1      34.903 -24.245 -14.316  0.00  0.00    -0.012 C 
ATOM      8  C   UNL     1      37.150 -25.414 -14.139  0.00  0.00    +0.092 C 
ATOM      9  C   UNL     1      35.901 -25.258 -14.679  0.00  0.00    +0.139 C 
ATOM     10  C   UNL     1      37.680 -26.497 -14.855  0.00  0.00    +0.188 C 
ATOM     11  H   UNL     1      34.824 -22.674 -12.958  0.00  0.00    -0.084 HD
ATOM     12  H   UNL     1      35.132 -24.199 -12.272  0.00  0.00    -0.084 HD
ENDROOT
TORSDOF 0
ENDMDL
MODEL 9
REMARK VINA RESULT:      -6.1      4.451      5.658
REMARK  Name = 28360827
REMARK  0 active torsions:
REMARK  status: ('A' for Active; 'I' for Inactive)
REMARK                            x       y       z     vdW  Elec       q    Type
REMARK                         _______ _______ _______ _____ _____    ______ ____
ROOT
ATOM      1  O   UNL     1      34.102 -15.149 -22.893  0.00  0.00    -0.350 OA
ATOM      2  O   UNL     1      34.676 -16.893 -25.905  0.00  0.00    -0.219 OA
ATOM      3  N   UNL     1      35.303 -17.954 -20.771  0.00  0.00    +0.389 N 
ATOM      4  N   UNL     1      34.033 -15.237 -24.286  0.00  0.00    -0.001 NA
ATOM      5  C   UNL     1      36.255 -18.508 -21.814  0.00  0.00    -0.076 C 
ATOM      6  C   UNL     1      35.612 -18.452 -23.215  0.00  0.00    +0.018 C 
ATOM      7  C   UNL     1      34.903 -16.505 -20.994  0.00  0.00    -0.012 C 
ATOM      8  C   UNL     1      34.986 -17.130 -23.453  0.00  0.00    +0.092 C 
ATOM      9  C   UNL     1      34.665 -16.284 -22.425  0.00  0.00    +0.139 C 
ATOM     10  C   UNL     1      34.567 -16.429 -24.593  0.00  0.00    +0.188 C 
ATOM     11  H   UNL     1      35.753 -18.024 -19.858  0.00  0.00    -0.084 HD
ATOM     12  H   UNL     1      34.448 -18.505 -20.835  0.00  0.00    -0.084 HD
ENDROOT
TORSDOF 0
ENDMDL
