MODEL 1
REMARK VINA RESULT:      -9.1      0.000      0.000
REMARK  Name = 5472
REMARK  2 active torsions:
REMARK  status: ('A' for Active; 'I' for Inactive)
REMARK    1  A    between atoms: N_2  and  C_11
REMARK    2  A    between atoms: C_11  and  C_13
REMARK                            x       y       z     vdW  Elec       q    Type
REMARK                         _______ _______ _______ _____ _____    ______ ____
ROOT
ATOM      1  S   UNL     1      32.861 -13.850 -23.997  0.00  0.00    -0.091 S 
ATOM      2  N   UNL     1      34.731 -17.490 -22.217  0.00  0.00    +0.393 N 
ATOM      3  C   UNL     1      34.958 -16.263 -21.424  0.00  0.00    -0.071 C 
ATOM      4  C   UNL     1      34.957 -17.255 -23.661  0.00  0.00    -0.049 C 
ATOM      5  C   UNL     1      33.910 -15.184 -21.758  0.00  0.00    +0.010 C 
ATOM      6  C   UNL     1      34.164 -16.067 -24.119  0.00  0.00    -0.041 C 
ATOM      7  C   UNL     1      33.711 -15.109 -23.237  0.00  0.00    -0.001 C 
ATOM      8  C   UNL     1      33.803 -15.743 -25.461  0.00  0.00    +0.001 C 
ATOM      9  C   UNL     1      33.092 -14.565 -25.538  0.00  0.00    +0.035 C 
ATOM     10  H   UNL     1      33.757 -17.762 -22.090  0.00  0.00    -0.079 HD
ENDROOT
BRANCH   2  11
ATOM     11  C   UNL     1      35.596 -18.572 -21.745  0.00  0.00    -0.049 C 
BRANCH  11  13
ATOM     12 CL   UNL     1      37.204 -20.631 -20.110  0.00  0.00    -0.083 Cl
ATOM     13  C   UNL     1      34.828 -19.596 -20.950  0.00  0.00    -0.033 C 
ATOM     14  C   UNL     1      35.482 -20.556 -20.189  0.00  0.00    +0.052 C 
ATOM     15  C   UNL     1      33.440 -19.552 -21.000  0.00  0.00    -0.005 C 
ATOM     16  C   UNL     1      34.736 -21.487 -19.466  0.00  0.00    +0.011 C 
ATOM     17  C   UNL     1      32.694 -20.484 -20.278  0.00  0.00    -0.000 C 
ATOM     18  C   UNL     1      33.343 -21.451 -19.510  0.00  0.00    +0.001 C 
ENDBRANCH  11  13
ENDBRANCH   2  11
TORSDOF 2
ENDMDL
MODEL 2
REMARK VINA RESULT:      -9.0      3.095      6.458
REMARK  Name = 5472
REMARK  2 active torsions:
REMARK  status: ('A' for Active; 'I' for Inactive)
REMARK    1  A    between atoms: N_2  and  C_11
REMARK    2  A    between atoms: C_11  and  C_13
REMARK                            x       y       z     vdW  Elec       q    Type
REMARK                         _______ _______ _______ _____ _____    ______ ____
ROOT
ATOM      1  S   UNL     1      33.503 -22.231 -18.758  0.00  0.00    -0.091 S 
ATOM      2  N   UNL     1      35.077 -18.820 -21.166  0.00  0.00    +0.393 N 
ATOM      3  C   UNL     1      33.894 -19.469 -21.768  0.00  0.00    -0.071 C 
ATOM      4  C   UNL     1      36.062 -19.815 -20.687  0.00  0.00    -0.049 C 
ATOM      5  C   UNL     1      33.092 -20.254 -20.711  0.00  0.00    +0.010 C 
ATOM      6  C   UNL     1      35.388 -20.819 -19.798  0.00  0.00    -0.041 C 
ATOM      7  C   UNL     1      34.025 -21.028 -19.838  0.00  0.00    -0.001 C 
ATOM      8  C   UNL     1      36.015 -21.684 -18.853  0.00  0.00    +0.001 C 
ATOM      9  C   UNL     1      35.107 -22.503 -18.216  0.00  0.00    +0.035 C 
ATOM     10  H   UNL     1      34.755 -18.281 -20.362  0.00  0.00    -0.079 HD
ENDROOT
BRANCH   2  11
ATOM     11  C   UNL     1      35.708 -17.913 -22.127  0.00  0.00    -0.049 C 
BRANCH  11  13
ATOM     12 CL   UNL     1      34.961 -16.813 -24.907  0.00  0.00    -0.083 Cl
ATOM     13  C   UNL     1      35.001 -16.585 -22.192  0.00  0.00    -0.033 C 
ATOM     14  C   UNL     1      34.633 -16.024 -23.408  0.00  0.00    +0.052 C 
ATOM     15  C   UNL     1      34.727 -15.934 -20.996  0.00  0.00    -0.005 C 
ATOM     16  C   UNL     1      33.978 -14.792 -23.428  0.00  0.00    +0.011 C 
ATOM     17  C   UNL     1      34.074 -14.701 -21.016  0.00  0.00    -0.000 C 
ATOM     18  C   UNL     1      33.699 -14.131 -22.233  0.00  0.00    +0.001 C 
ENDBRANCH  11  13
ENDBRANCH   2  11
TORSDOF 2
ENDMDL
MODEL 3
REMARK VINA RESULT:      -8.5      2.868      6.337
REMARK  Name = 5472
REMARK  2 active torsions:
REMARK  status: ('A' for Active; 'I' for Inactive)
REMARK    1  A    between atoms: N_2  and  C_11
REMARK    2  A    between atoms: C_11  and  C_13
REMARK                            x       y       z     vdW  Elec       q    Type
REMARK                         _______ _______ _______ _____ _____    ______ ____
ROOT
ATOM      1  S   UNL     1      33.237 -22.086 -18.922  0.00  0.00    -0.091 S 
ATOM      2  N   UNL     1      35.300 -18.859 -21.211  0.00  0.00    +0.393 N 
ATOM      3  C   UNL     1      34.094 -19.382 -21.887  0.00  0.00    -0.071 C 
ATOM      4  C   UNL     1      36.144 -19.952 -20.679  0.00  0.00    -0.049 C 
ATOM      5  C   UNL     1      33.152 -20.078 -20.884  0.00  0.00    +0.010 C 
ATOM      6  C   UNL     1      35.318 -20.879 -19.839  0.00  0.00    -0.041 C 
ATOM      7  C   UNL     1      33.945 -20.945 -19.962  0.00  0.00    -0.001 C 
ATOM      8  C   UNL     1      35.793 -21.804 -18.863  0.00  0.00    +0.001 C 
ATOM      9  C   UNL     1      34.768 -22.525 -18.286  0.00  0.00    +0.035 C 
ATOM     10  H   UNL     1      34.988 -18.289 -20.424  0.00  0.00    -0.079 HD
ENDROOT
BRANCH   2  11
ATOM     11  C   UNL     1      36.078 -18.024 -22.126  0.00  0.00    -0.049 C 
BRANCH  11  13
ATOM     12 CL   UNL     1      34.744 -15.702 -20.600  0.00  0.00    -0.083 Cl
ATOM     13  C   UNL     1      35.202 -17.080 -22.906  0.00  0.00    -0.033 C 
ATOM     14  C   UNL     1      34.566 -16.011 -22.289  0.00  0.00    +0.052 C 
ATOM     15  C   UNL     1      35.046 -17.310 -24.267  0.00  0.00    -0.005 C 
ATOM     16  C   UNL     1      33.761 -15.157 -23.044  0.00  0.00    +0.011 C 
ATOM     17  C   UNL     1      34.240 -16.457 -25.023  0.00  0.00    -0.000 C 
ATOM     18  C   UNL     1      33.599 -15.381 -24.411  0.00  0.00    +0.001 C 
ENDBRANCH  11  13
ENDBRANCH   2  11
TORSDOF 2
ENDMDL
MODEL 4
REMARK VINA RESULT:      -8.3      1.585      1.966
REMARK  Name = 5472
REMARK  2 active torsions:
REMARK  status: ('A' for Active; 'I' for Inactive)
REMARK    1  A    between atoms: N_2  and  C_11
REMARK    2  A    between atoms: C_11  and  C_13
REMARK                            x       y       z     vdW  Elec       q    Type
REMARK                         _______ _______ _______ _____ _____    ______ ____
ROOT
ATOM      1  S   UNL     1      31.956 -12.577 -21.241  0.00  0.00    -0.091 S 
ATOM      2  N   UNL     1      34.036 -16.462 -21.941  0.00  0.00    +0.393 N 
ATOM      3  C   UNL     1      34.179 -15.958 -20.559  0.00  0.00    -0.071 C 
ATOM      4  C   UNL     1      34.258 -15.391 -22.938  0.00  0.00    -0.049 C 
ATOM      5  C   UNL     1      33.067 -14.946 -20.219  0.00  0.00    +0.010 C 
ATOM      6  C   UNL     1      33.396 -14.205 -22.620  0.00  0.00    -0.041 C 
ATOM      7  C   UNL     1      32.877 -13.999 -21.359  0.00  0.00    -0.001 C 
ATOM      8  C   UNL     1      33.027 -13.151 -23.508  0.00  0.00    +0.001 C 
ATOM      9  C   UNL     1      32.244 -12.200 -22.888  0.00  0.00    +0.035 C 
ATOM     10  H   UNL     1      33.079 -16.799 -22.048  0.00  0.00    -0.079 HD
ENDROOT
BRANCH   2  11
ATOM     11  C   UNL     1      34.963 -17.569 -22.181  0.00  0.00    -0.049 C 
BRANCH  11  13
ATOM     12 CL   UNL     1      37.265 -19.245 -21.001  0.00  0.00    -0.083 Cl
ATOM     13  C   UNL     1      34.604 -18.786 -21.368  0.00  0.00    -0.033 C 
ATOM     14  C   UNL     1      35.586 -19.591 -20.804  0.00  0.00    +0.052 C 
ATOM     15  C   UNL     1      33.258 -19.081 -21.198  0.00  0.00    -0.005 C 
ATOM     16  C   UNL     1      35.215 -20.709 -20.057  0.00  0.00    +0.011 C 
ATOM     17  C   UNL     1      32.886 -20.200 -20.452  0.00  0.00    -0.000 C 
ATOM     18  C   UNL     1      33.865 -21.014 -19.881  0.00  0.00    +0.001 C 
ENDBRANCH  11  13
ENDBRANCH   2  11
TORSDOF 2
ENDMDL
MODEL 5
REMARK VINA RESULT:      -8.2      4.769      6.505
REMARK  Name = 5472
REMARK  2 active torsions:
REMARK  status: ('A' for Active; 'I' for Inactive)
REMARK    1  A    between atoms: N_2  and  C_11
REMARK    2  A    between atoms: C_11  and  C_13
REMARK                            x       y       z     vdW  Elec       q    Type
REMARK                         _______ _______ _______ _____ _____    ______ ____
ROOT
ATOM      1  S   UNL     1      34.639  -7.679 -23.746  0.00  0.00    -0.091 S 
ATOM      2  N   UNL     1      33.349 -11.941 -23.455  0.00  0.00    +0.393 N 
ATOM      3  C   UNL     1      33.926 -11.589 -24.769  0.00  0.00    -0.071 C 
ATOM      4  C   UNL     1      32.391 -10.915 -22.987  0.00  0.00    -0.049 C 
ATOM      5  C   UNL     1      34.806 -10.327 -24.670  0.00  0.00    +0.010 C 
ATOM      6  C   UNL     1      33.025  -9.557 -23.040  0.00  0.00    -0.041 C 
ATOM      7  C   UNL     1      34.119  -9.294 -23.838  0.00  0.00    -0.001 C 
ATOM      8  C   UNL     1      32.603  -8.386 -22.342  0.00  0.00    +0.001 C 
ATOM      9  C   UNL     1      33.393  -7.294 -22.633  0.00  0.00    +0.035 C 
ATOM     10  H   UNL     1      34.116 -11.985 -22.785  0.00  0.00    -0.079 HD
ENDROOT
BRANCH   2  11
ATOM     11  C   UNL     1      32.692 -13.248 -23.517  0.00  0.00    -0.049 C 
BRANCH  11  13
ATOM     12 CL   UNL     1      32.291 -13.291 -20.462  0.00  0.00    -0.083 Cl
ATOM     13  C   UNL     1      33.438 -14.288 -22.724  0.00  0.00    -0.033 C 
ATOM     14  C   UNL     1      33.310 -14.370 -21.343  0.00  0.00    +0.052 C 
ATOM     15  C   UNL     1      34.264 -15.166 -23.414  0.00  0.00    -0.005 C 
ATOM     16  C   UNL     1      34.017 -15.347 -20.642  0.00  0.00    +0.011 C 
ATOM     17  C   UNL     1      34.972 -16.143 -22.713  0.00  0.00    -0.000 C 
ATOM     18  C   UNL     1      34.848 -16.233 -21.327  0.00  0.00    +0.001 C 
ENDBRANCH  11  13
ENDBRANCH   2  11
TORSDOF 2
ENDMDL
MODEL 6
REMARK VINA RESULT:      -8.2      5.201      8.192
REMARK  Name = 5472
REMARK  2 active torsions:
REMARK  status: ('A' for Active; 'I' for Inactive)
REMARK    1  A    between atoms: N_2  and  C_11
REMARK    2  A    between atoms: C_11  and  C_13
REMARK                            x       y       z     vdW  Elec       q    Type
REMARK                         _______ _______ _______ _____ _____    ______ ____
ROOT
ATOM      1  S   UNL     1      34.932 -16.357 -22.396  0.00  0.00    -0.091 S 
ATOM      2  N   UNL     1      32.386 -12.712 -22.010  0.00  0.00    +0.393 N 
ATOM      3  C   UNL     1      32.299 -13.618 -20.845  0.00  0.00    -0.071 C 
ATOM      4  C   UNL     1      32.306 -13.457 -23.287  0.00  0.00    -0.049 C 
ATOM      5  C   UNL     1      33.527 -14.548 -20.771  0.00  0.00    +0.010 C 
ATOM      6  C   UNL     1      33.307 -14.574 -23.295  0.00  0.00    -0.041 C 
ATOM      7  C   UNL     1      33.841 -15.082 -22.130  0.00  0.00    -0.001 C 
ATOM      8  C   UNL     1      33.811 -15.264 -24.437  0.00  0.00    +0.001 C 
ATOM      9  C   UNL     1      34.703 -16.257 -24.092  0.00  0.00    +0.035 C 
ATOM     10  H   UNL     1      33.294 -12.249 -21.972  0.00  0.00    -0.079 HD
ENDROOT
BRANCH   2  11
ATOM     11  C   UNL     1      31.329 -11.701 -21.953  0.00  0.00    -0.049 C 
BRANCH  11  13
ATOM     12 CL   UNL     1      31.118 -10.615 -19.076  0.00  0.00    -0.083 Cl
ATOM     13  C   UNL     1      31.883 -10.328 -21.676  0.00  0.00    -0.033 C 
ATOM     14  C   UNL     1      31.824  -9.771 -20.405  0.00  0.00    +0.052 C 
ATOM     15  C   UNL     1      32.455  -9.632 -22.732  0.00  0.00    -0.005 C 
ATOM     16  C   UNL     1      32.348  -8.496 -20.187  0.00  0.00    +0.011 C 
ATOM     17  C   UNL     1      32.978  -8.356 -22.515  0.00  0.00    -0.000 C 
ATOM     18  C   UNL     1      32.924  -7.789 -21.241  0.00  0.00    +0.001 C 
ENDBRANCH  11  13
ENDBRANCH   2  11
TORSDOF 2
ENDMDL
MODEL 7
REMARK VINA RESULT:      -8.2      5.156      8.455
REMARK  Name = 5472
REMARK  2 active torsions:
REMARK  status: ('A' for Active; 'I' for Inactive)
REMARK    1  A    between atoms: N_2  and  C_11
REMARK    2  A    between atoms: C_11  and  C_13
REMARK                            x       y       z     vdW  Elec       q    Type
REMARK                         _______ _______ _______ _____ _____    ______ ____
ROOT
ATOM      1  S   UNL     1      34.313 -16.274 -21.161  0.00  0.00    -0.091 S 
ATOM      2  N   UNL     1      33.291 -12.473 -23.263  0.00  0.00    +0.393 N 
ATOM      3  C   UNL     1      32.262 -12.906 -22.295  0.00  0.00    -0.071 C 
ATOM      4  C   UNL     1      33.761 -13.599 -24.100  0.00  0.00    -0.049 C 
ATOM      5  C   UNL     1      32.852 -13.877 -21.253  0.00  0.00    +0.010 C 
ATOM      6  C   UNL     1      34.174 -14.750 -23.231  0.00  0.00    -0.041 C 
ATOM      7  C   UNL     1      33.728 -14.878 -21.932  0.00  0.00    -0.001 C 
ATOM      8  C   UNL     1      35.016 -15.841 -23.597  0.00  0.00    +0.001 C 
ATOM      9  C   UNL     1      35.177 -16.743 -22.566  0.00  0.00    +0.035 C 
ATOM     10  H   UNL     1      34.087 -12.123 -22.729  0.00  0.00    -0.079 HD
ENDROOT
BRANCH   2  11
ATOM     11  C   UNL     1      32.776 -11.398 -24.112  0.00  0.00    -0.049 C 
BRANCH  11  13
ATOM     12 CL   UNL     1      35.363 -10.367 -25.433  0.00  0.00    -0.083 Cl
ATOM     13  C   UNL     1      33.295 -10.050 -23.687  0.00  0.00    -0.033 C 
ATOM     14  C   UNL     1      34.455  -9.518 -24.236  0.00  0.00    +0.052 C 
ATOM     15  C   UNL     1      32.578  -9.351 -22.724  0.00  0.00    -0.005 C 
ATOM     16  C   UNL     1      34.905  -8.266 -23.816  0.00  0.00    +0.011 C 
ATOM     17  C   UNL     1      33.028  -8.099 -22.304  0.00  0.00    -0.000 C 
ATOM     18  C   UNL     1      34.192  -7.557 -22.850  0.00  0.00    +0.001 C 
ENDBRANCH  11  13
ENDBRANCH   2  11
TORSDOF 2
ENDMDL
MODEL 8
REMARK VINA RESULT:      -8.1      4.510      6.296
REMARK  Name = 5472
REMARK  2 active torsions:
REMARK  status: ('A' for Active; 'I' for Inactive)
REMARK    1  A    between atoms: N_2  and  C_11
REMARK    2  A    between atoms: C_11  and  C_13
REMARK                            x       y       z     vdW  Elec       q    Type
REMARK                         _______ _______ _______ _____ _____    ______ ____
ROOT
ATOM      1  S   UNL     1      34.572  -7.748 -23.624  0.00  0.00    -0.091 S 
ATOM      2  N   UNL     1      33.627 -12.104 -23.833  0.00  0.00    +0.393 N 
ATOM      3  C   UNL     1      34.147 -11.552 -25.102  0.00  0.00    -0.071 C 
ATOM      4  C   UNL     1      32.601 -11.221 -23.235  0.00  0.00    -0.049 C 
ATOM      5  C   UNL     1      34.927 -10.244 -24.862  0.00  0.00    +0.010 C 
ATOM      6  C   UNL     1      33.125  -9.819 -23.131  0.00  0.00    -0.041 C 
ATOM      7  C   UNL     1      34.179  -9.376 -23.904  0.00  0.00    -0.001 C 
ATOM      8  C   UNL     1      32.628  -8.778 -22.292  0.00  0.00    +0.001 C 
ATOM      9  C   UNL     1      33.323  -7.599 -22.459  0.00  0.00    +0.035 C 
ATOM     10  H   UNL     1      34.409 -12.166 -23.182  0.00  0.00    -0.079 HD
ENDROOT
BRANCH   2  11
ATOM     11  C   UNL     1      33.074 -13.442 -24.045  0.00  0.00    -0.049 C 
BRANCH  11  13
ATOM     12 CL   UNL     1      34.085 -16.074 -25.290  0.00  0.00    -0.083 Cl
ATOM     13  C   UNL     1      33.702 -14.459 -23.129  0.00  0.00    -0.033 C 
ATOM     14  C   UNL     1      34.181 -15.669 -23.615  0.00  0.00    +0.052 C 
ATOM     15  C   UNL     1      33.789 -14.152 -21.777  0.00  0.00    -0.005 C 
ATOM     16  C   UNL     1      34.757 -16.586 -22.735  0.00  0.00    +0.011 C 
ATOM     17  C   UNL     1      34.364 -15.069 -20.897  0.00  0.00    -0.000 C 
ATOM     18  C   UNL     1      34.848 -16.286 -21.377  0.00  0.00    +0.001 C 
ENDBRANCH  11  13
ENDBRANCH   2  11
TORSDOF 2
ENDMDL
MODEL 9
REMARK VINA RESULT:      -8.1      4.338      7.796
REMARK  Name = 5472
REMARK  2 active torsions:
REMARK  status: ('A' for Active; 'I' for Inactive)
REMARK    1  A    between atoms: N_2  and  C_11
REMARK    2  A    between atoms: C_11  and  C_13
REMARK                            x       y       z     vdW  Elec       q    Type
REMARK                         _______ _______ _______ _____ _____    ______ ____
ROOT
ATOM      1  S   UNL     1      35.318 -17.491 -21.551  0.00  0.00    -0.091 S 
ATOM      2  N   UNL     1      33.620 -13.892 -23.571  0.00  0.00    +0.393 N 
ATOM      3  C   UNL     1      33.081 -14.115 -22.213  0.00  0.00    -0.071 C 
ATOM      4  C   UNL     1      33.660 -15.147 -24.354  0.00  0.00    -0.049 C 
ATOM      5  C   UNL     1      34.025 -15.003 -21.378  0.00  0.00    +0.010 C 
ATOM      6  C   UNL     1      34.367 -16.217 -23.576  0.00  0.00    -0.041 C 
ATOM      7  C   UNL     1      34.505 -16.151 -22.205  0.00  0.00    -0.001 C 
ATOM      8  C   UNL     1      34.944 -17.415 -24.095  0.00  0.00    +0.001 C 
ATOM      9  C   UNL     1      35.497 -18.197 -23.103  0.00  0.00    +0.035 C 
ATOM     10  H   UNL     1      34.576 -13.553 -23.469  0.00  0.00    -0.079 HD
ENDROOT
BRANCH   2  11
ATOM     11  C   UNL     1      32.827 -12.885 -24.278  0.00  0.00    -0.049 C 
BRANCH  11  13
ATOM     12 CL   UNL     1      31.785 -10.717 -22.351  0.00  0.00    -0.083 Cl
ATOM     13  C   UNL     1      33.510 -11.543 -24.292  0.00  0.00    -0.033 C 
ATOM     14  C   UNL     1      33.098 -10.516 -23.454  0.00  0.00    +0.052 C 
ATOM     15  C   UNL     1      34.569 -11.361 -25.173  0.00  0.00    -0.005 C 
ATOM     16  C   UNL     1      33.755  -9.286 -23.495  0.00  0.00    +0.011 C 
ATOM     17  C   UNL     1      35.227 -10.131 -25.215  0.00  0.00    -0.000 C 
ATOM     18  C   UNL     1      34.819  -9.094 -24.376  0.00  0.00    +0.001 C 
ENDBRANCH  11  13
ENDBRANCH   2  11
TORSDOF 2
ENDMDL
