MODEL 1
REMARK VINA RESULT:     -10.1      0.000      0.000
REMARK  Name = 6852220
REMARK  10 active torsions:
REMARK  status: ('A' for Active; 'I' for Inactive)
REMARK    1  A    between atoms: CA_1  and  C_4
REMARK    2  A    between atoms: CA_1  and  C_19
REMARK    3  A    between atoms: CA_1  and  N_22
REMARK    4  A    between atoms: C_3  and  O_9
REMARK    5  A    between atoms: C_8  and  O_15
REMARK    6  A    between atoms: O_9  and  C_11
REMARK    7  A    between atoms: O_15  and  C_16
REMARK    8  A    between atoms: C_19  and  O_20
REMARK    9  A    between atoms: N_22  and  C_24
REMARK   10  A    between atoms: C_29  and  C_32
REMARK                            x       y       z     vdW  Elec       q    Type
REMARK                         _______ _______ _______ _____ _____    ______ ____
ROOT
ATOM      1  CA  UNL     1      34.430 -22.412 -17.493  0.00  0.00    +0.195 C 
ENDROOT
BRANCH   1   4
ATOM      2  F   UNL     1      37.134 -22.769 -16.773  0.00  0.00    -0.201 F 
ATOM      3  C   UNL     1      36.589 -23.729 -14.678  0.00  0.00    +0.168 C 
ATOM      4  C   UNL     1      34.848 -23.015 -16.193  0.00  0.00    +0.040 C 
ATOM      5  C   UNL     1      36.202 -23.165 -15.894  0.00  0.00    +0.172 C 
ATOM      6  C   UNL     1      35.622 -24.142 -13.762  0.00  0.00    +0.076 C 
ATOM      7  C   UNL     1      33.881 -23.427 -15.276  0.00  0.00    +0.037 C 
ATOM      8  C   UNL     1      34.268 -23.991 -14.061  0.00  0.00    +0.141 C 
BRANCH   3   9
ATOM      9  O   UNL     1      37.919 -23.880 -14.384  0.00  0.00    -0.474 OA
BRANCH   9  11
ATOM     10  O   UNL     1      39.126 -26.599 -15.017  0.00  0.00    -0.350 OA
ATOM     11  C   UNL     1      38.266 -24.964 -13.530  0.00  0.00    +0.198 C 
ATOM     12  C   UNL     1      39.766 -25.011 -13.377  0.00  0.00    +0.078 C 
ATOM     13  C   UNL     1      37.971 -26.280 -14.221  0.00  0.00    +0.185 C 
ATOM     14  C   UNL     1      40.194 -25.715 -14.650  0.00  0.00    +0.146 C 
ENDBRANCH   9  11
ENDBRANCH   3   9
BRANCH   8  15
ATOM     15  O   UNL     1      33.324 -24.394 -13.167  0.00  0.00    -0.475 OA
BRANCH  15  16
ATOM     16  C   UNL     1      32.104 -24.909 -13.699  0.00  0.00    +0.206 C 
ATOM     17  C   UNL     1      30.973 -23.972 -13.331  0.00  0.00    +0.051 C 
ENDBRANCH  15  16
ENDBRANCH   8  15
ENDBRANCH   1   4
BRANCH   1  19
ATOM     18  OXT UNL     1      33.670 -24.250 -18.866  0.00  0.00    -0.248 OA
ATOM     19  C   UNL     1      33.383 -23.258 -18.204  0.00  0.00    +0.336 C 
BRANCH  19  20
ATOM     20  O   UNL     1      32.115 -22.791 -18.105  0.00  0.00    -0.479 OA
ATOM     21  H   UNL     1      31.496 -23.230 -17.555  0.00  0.00    +0.295 HD
ENDBRANCH  19  20
ENDBRANCH   1  19
BRANCH   1  22
ATOM     22  N   UNL     1      35.570 -22.166 -18.366  0.00  0.00    -0.322 N 
ATOM     23  H   UNL     1      36.367 -22.735 -18.266  0.00  0.00    +0.148 HD
BRANCH  22  24
ATOM     24  C   UNL     1      35.588 -21.177 -19.326  0.00  0.00    +0.045 C 
ATOM     25  C   UNL     1      36.790 -20.553 -19.660  0.00  0.00    +0.014 C 
ATOM     26  C   UNL     1      34.406 -20.801 -19.963  0.00  0.00    +0.014 C 
ATOM     27  C   UNL     1      36.809 -19.550 -20.630  0.00  0.00    +0.004 C 
ATOM     28  C   UNL     1      34.424 -19.799 -20.933  0.00  0.00    +0.004 C 
ATOM     29  C   UNL     1      35.625 -19.174 -21.267  0.00  0.00    +0.031 C 
BRANCH  29  32
ATOM     30  N   UNL     1      35.197 -16.840 -21.998  0.00  0.00    -0.343 N 
ATOM     31  N   UNL     1      36.090 -18.397 -23.493  0.00  0.00    -0.285 NA
ATOM     32  C   UNL     1      35.645 -18.129 -22.278  0.00  0.00    +0.117 C 
ATOM     33  H   UNL     1      35.218 -16.147 -22.698  0.00  0.00    +0.144 HD
ATOM     34  H   UNL     1      34.858 -16.621 -21.100  0.00  0.00    +0.144 HD
ATOM     35  H   UNL     1      36.103 -17.692 -24.179  0.00  0.00    +0.188 HD
ENDBRANCH  29  32
ENDBRANCH  22  24
ENDBRANCH   1  22
TORSDOF 10
ENDMDL
MODEL 2
REMARK VINA RESULT:     -10.0      8.862     13.635
REMARK  Name = 6852220
REMARK  10 active torsions:
REMARK  status: ('A' for Active; 'I' for Inactive)
REMARK    1  A    between atoms: CA_1  and  C_4
REMARK    2  A    between atoms: CA_1  and  C_19
REMARK    3  A    between atoms: CA_1  and  N_22
REMARK    4  A    between atoms: C_3  and  O_9
REMARK    5  A    between atoms: C_8  and  O_15
REMARK    6  A    between atoms: O_9  and  C_11
REMARK    7  A    between atoms: O_15  and  C_16
REMARK    8  A    between atoms: C_19  and  O_20
REMARK    9  A    between atoms: N_22  and  C_24
REMARK   10  A    between atoms: C_29  and  C_32
REMARK                            x       y       z     vdW  Elec       q    Type
REMARK                         _______ _______ _______ _____ _____    ______ ____
ROOT
ATOM      1  CA  UNL     1      33.655 -14.279 -24.343  0.00  0.00    +0.195 C 
ENDROOT
BRANCH   1   4
ATOM      2  F   UNL     1      34.549 -11.775 -25.285  0.00  0.00    -0.201 F 
ATOM      3  C   UNL     1      33.250 -10.570 -23.713  0.00  0.00    +0.168 C 
ATOM      4  C   UNL     1      33.199 -12.985 -23.755  0.00  0.00    +0.040 C 
ATOM      5  C   UNL     1      33.678 -11.778 -24.265  0.00  0.00    +0.172 C 
ATOM      6  C   UNL     1      32.344 -10.570 -22.653  0.00  0.00    +0.076 C 
ATOM      7  C   UNL     1      32.294 -12.985 -22.696  0.00  0.00    +0.037 C 
ATOM      8  C   UNL     1      31.866 -11.777 -22.143  0.00  0.00    +0.141 C 
BRANCH   3   9
ATOM      9  O   UNL     1      33.720  -9.383 -24.211  0.00  0.00    -0.474 OA
BRANCH   9  11
ATOM     10  O   UNL     1      34.772  -6.553 -24.576  0.00  0.00    -0.350 OA
ATOM     11  C   UNL     1      33.757  -8.282 -23.311  0.00  0.00    +0.198 C 
ATOM     12  C   UNL     1      32.694  -7.286 -23.704  0.00  0.00    +0.078 C 
ATOM     13  C   UNL     1      35.032  -7.490 -23.517  0.00  0.00    +0.185 C 
ATOM     14  C   UNL     1      33.362  -6.538 -24.840  0.00  0.00    +0.146 C 
ENDBRANCH   9  11
ENDBRANCH   3   9
BRANCH   8  15
ATOM     15  O   UNL     1      30.982 -11.778 -21.108  0.00  0.00    -0.475 OA
BRANCH  15  16
ATOM     16  C   UNL     1      31.525 -11.691 -19.792  0.00  0.00    +0.206 C 
ATOM     17  C   UNL     1      31.123 -10.365 -19.180  0.00  0.00    +0.051 C 
ENDBRANCH  15  16
ENDBRANCH   8  15
ENDBRANCH   1   4
BRANCH   1  19
ATOM     18  OXT UNL     1      33.956 -14.943 -26.647  0.00  0.00    -0.248 OA
ATOM     19  C   UNL     1      33.238 -14.424 -25.799  0.00  0.00    +0.336 C 
BRANCH  19  20
ATOM     20  O   UNL     1      32.035 -13.876 -26.102  0.00  0.00    -0.479 OA
ATOM     21  H   UNL     1      31.773 -13.071 -25.698  0.00  0.00    +0.295 HD
ENDBRANCH  19  20
ENDBRANCH   1  19
BRANCH   1  22
ATOM     22  N   UNL     1      33.196 -15.420 -23.562  0.00  0.00    -0.322 N 
ATOM     23  H   UNL     1      32.226 -15.562 -23.468  0.00  0.00    +0.148 HD
BRANCH  22  24
ATOM     24  C   UNL     1      34.051 -16.309 -22.948  0.00  0.00    +0.045 C 
ATOM     25  C   UNL     1      34.706 -17.281 -23.704  0.00  0.00    +0.014 C 
ATOM     26  C   UNL     1      34.260 -16.239 -21.571  0.00  0.00    +0.014 C 
ATOM     27  C   UNL     1      35.570 -18.183 -23.083  0.00  0.00    +0.004 C 
ATOM     28  C   UNL     1      35.124 -17.141 -20.949  0.00  0.00    +0.004 C 
ATOM     29  C   UNL     1      35.779 -18.112 -21.705  0.00  0.00    +0.031 C 
BRANCH  29  32
ATOM     30  N   UNL     1      36.229 -19.924 -20.067  0.00  0.00    -0.343 N 
ATOM     31  N   UNL     1      37.955 -19.087 -21.402  0.00  0.00    -0.285 NA
ATOM     32  C   UNL     1      36.680 -19.052 -21.057  0.00  0.00    +0.117 C 
ATOM     33  H   UNL     1      36.856 -20.552 -19.640  0.00  0.00    +0.144 HD
ATOM     34  H   UNL     1      35.283 -19.911 -19.793  0.00  0.00    +0.144 HD
ATOM     35  H   UNL     1      38.566 -19.722 -20.964  0.00  0.00    +0.188 HD
ENDBRANCH  29  32
ENDBRANCH  22  24
ENDBRANCH   1  22
TORSDOF 10
ENDMDL
MODEL 3
REMARK VINA RESULT:      -9.8      5.805     11.562
REMARK  Name = 6852220
REMARK  10 active torsions:
REMARK  status: ('A' for Active; 'I' for Inactive)
REMARK    1  A    between atoms: CA_1  and  C_4
REMARK    2  A    between atoms: CA_1  and  C_19
REMARK    3  A    between atoms: CA_1  and  N_22
REMARK    4  A    between atoms: C_3  and  O_9
REMARK    5  A    between atoms: C_8  and  O_15
REMARK    6  A    between atoms: O_9  and  C_11
REMARK    7  A    between atoms: O_15  and  C_16
REMARK    8  A    between atoms: C_19  and  O_20
REMARK    9  A    between atoms: N_22  and  C_24
REMARK   10  A    between atoms: C_29  and  C_32
REMARK                            x       y       z     vdW  Elec       q    Type
REMARK                         _______ _______ _______ _____ _____    ______ ____
ROOT
ATOM      1  CA  UNL     1      34.919 -17.690 -22.148  0.00  0.00    +0.195 C 
ENDROOT
BRANCH   1   4
ATOM      2  F   UNL     1      34.263 -15.344 -20.728  0.00  0.00    -0.201 F 
ATOM      3  C   UNL     1      33.649 -14.168 -22.690  0.00  0.00    +0.168 C 
ATOM      4  C   UNL     1      34.423 -16.453 -22.818  0.00  0.00    +0.040 C 
ATOM      5  C   UNL     1      34.114 -15.323 -22.060  0.00  0.00    +0.172 C 
ATOM      6  C   UNL     1      33.494 -14.143 -24.075  0.00  0.00    +0.076 C 
ATOM      7  C   UNL     1      34.267 -16.428 -24.203  0.00  0.00    +0.037 C 
ATOM      8  C   UNL     1      33.802 -15.273 -24.832  0.00  0.00    +0.141 C 
BRANCH   3   9
ATOM      9  O   UNL     1      33.344 -13.057 -21.947  0.00  0.00    -0.474 OA
BRANCH   9  11
ATOM     10  O   UNL     1      31.987 -10.958 -20.214  0.00  0.00    -0.350 OA
ATOM     11  C   UNL     1      31.969 -12.847 -21.647  0.00  0.00    +0.198 C 
ATOM     12  C   UNL     1      31.472 -11.652 -22.421  0.00  0.00    +0.078 C 
ATOM     13  C   UNL     1      31.819 -12.386 -20.211  0.00  0.00    +0.185 C 
ATOM     14  C   UNL     1      31.961 -10.495 -21.572  0.00  0.00    +0.146 C 
ENDBRANCH   9  11
ENDBRANCH   3   9
BRANCH   8  15
ATOM     15  O   UNL     1      33.650 -15.249 -26.184  0.00  0.00    -0.475 OA
BRANCH  15  16
ATOM     16  C   UNL     1      32.731 -14.297 -26.718  0.00  0.00    +0.206 C 
ATOM     17  C   UNL     1      33.506 -13.214 -27.438  0.00  0.00    +0.051 C 
ENDBRANCH  15  16
ENDBRANCH   8  15
ENDBRANCH   1   4
BRANCH   1  19
ATOM     18  OXT UNL     1      35.705 -19.139 -23.916  0.00  0.00    -0.248 OA
ATOM     19  C   UNL     1      35.981 -18.402 -22.976  0.00  0.00    +0.336 C 
BRANCH  19  20
ATOM     20  O   UNL     1      37.254 -18.209 -22.551  0.00  0.00    -0.479 OA
ATOM     21  H   UNL     1      37.972 -18.498 -23.080  0.00  0.00    +0.295 HD
ENDBRANCH  19  20
ENDBRANCH   1  19
BRANCH   1  22
ATOM     22  N   UNL     1      33.831 -18.602 -21.819  0.00  0.00    -0.322 N 
ATOM     23  H   UNL     1      32.964 -18.475 -22.267  0.00  0.00    +0.148 HD
BRANCH  22  24
ATOM     24  C   UNL     1      33.956 -19.632 -20.913  0.00  0.00    +0.045 C 
ATOM     25  C   UNL     1      32.815 -20.216 -20.361  0.00  0.00    +0.014 C 
ATOM     26  C   UNL     1      35.221 -20.091 -20.547  0.00  0.00    +0.014 C 
ATOM     27  C   UNL     1      32.941 -21.258 -19.442  0.00  0.00    +0.004 C 
ATOM     28  C   UNL     1      35.346 -21.134 -19.628  0.00  0.00    +0.004 C 
ATOM     29  C   UNL     1      34.207 -21.717 -19.076  0.00  0.00    +0.031 C 
BRANCH  29  32
ATOM     30  N   UNL     1      35.140 -22.679 -16.986  0.00  0.00    -0.343 N 
ATOM     31  N   UNL     1      33.690 -23.938 -18.317  0.00  0.00    -0.285 NA
ATOM     32  C   UNL     1      34.337 -22.804 -18.118  0.00  0.00    +0.117 C 
ATOM     33  H   UNL     1      35.216 -23.428 -16.350  0.00  0.00    +0.144 HD
ATOM     34  H   UNL     1      35.634 -21.843 -16.821  0.00  0.00    +0.144 HD
ATOM     35  H   UNL     1      33.778 -24.675 -17.670  0.00  0.00    +0.188 HD
ENDBRANCH  29  32
ENDBRANCH  22  24
ENDBRANCH   1  22
TORSDOF 10
ENDMDL
MODEL 4
REMARK VINA RESULT:      -9.7      3.560      7.240
REMARK  Name = 6852220
REMARK  10 active torsions:
REMARK  status: ('A' for Active; 'I' for Inactive)
REMARK    1  A    between atoms: CA_1  and  C_4
REMARK    2  A    between atoms: CA_1  and  C_19
REMARK    3  A    between atoms: CA_1  and  N_22
REMARK    4  A    between atoms: C_3  and  O_9
REMARK    5  A    between atoms: C_8  and  O_15
REMARK    6  A    between atoms: O_9  and  C_11
REMARK    7  A    between atoms: O_15  and  C_16
REMARK    8  A    between atoms: C_19  and  O_20
REMARK    9  A    between atoms: N_22  and  C_24
REMARK   10  A    between atoms: C_29  and  C_32
REMARK                            x       y       z     vdW  Elec       q    Type
REMARK                         _______ _______ _______ _____ _____    ______ ____
ROOT
ATOM      1  CA  UNL     1      34.629 -23.649 -13.661  0.00  0.00    +0.195 C 
ENDROOT
BRANCH   1   4
ATOM      2  F   UNL     1      34.371 -21.918 -15.872  0.00  0.00    -0.201 F 
ATOM      3  C   UNL     1      36.619 -22.229 -16.548  0.00  0.00    +0.168 C 
ATOM      4  C   UNL     1      35.755 -23.361 -14.597  0.00  0.00    +0.040 C 
ATOM      5  C   UNL     1      35.565 -22.495 -15.674  0.00  0.00    +0.172 C 
ATOM      6  C   UNL     1      37.862 -22.827 -16.345  0.00  0.00    +0.076 C 
ATOM      7  C   UNL     1      36.997 -23.959 -14.394  0.00  0.00    +0.037 C 
ATOM      8  C   UNL     1      38.051 -23.693 -15.268  0.00  0.00    +0.141 C 
BRANCH   3   9
ATOM      9  O   UNL     1      36.434 -21.379 -17.608  0.00  0.00    -0.474 OA
BRANCH   9  11
ATOM     10  O   UNL     1      34.744 -20.318 -19.902  0.00  0.00    -0.350 OA
ATOM     11  C   UNL     1      36.073 -21.975 -18.848  0.00  0.00    +0.198 C 
ATOM     12  C   UNL     1      36.881 -21.342 -19.954  0.00  0.00    +0.078 C 
ATOM     13  C   UNL     1      34.657 -21.579 -19.218  0.00  0.00    +0.185 C 
ATOM     14  C   UNL     1      36.120 -20.055 -20.209  0.00  0.00    +0.146 C 
ENDBRANCH   9  11
ENDBRANCH   3   9
BRANCH   8  15
ATOM     15  O   UNL     1      39.264 -24.278 -15.069  0.00  0.00    -0.475 OA
BRANCH  15  16
ATOM     16  C   UNL     1      39.324 -25.342 -14.120  0.00  0.00    +0.206 C 
ATOM     17  C   UNL     1      40.582 -26.148 -14.363  0.00  0.00    +0.051 C 
ENDBRANCH  15  16
ENDBRANCH   8  15
ENDBRANCH   1   4
BRANCH   1  19
ATOM     18  OXT UNL     1      35.937 -23.344 -11.652  0.00  0.00    -0.248 OA
ATOM     19  C   UNL     1      35.123 -24.021 -12.270  0.00  0.00    +0.336 C 
BRANCH  19  20
ATOM     20  O   UNL     1      34.643 -25.196 -11.794  0.00  0.00    -0.479 OA
ATOM     21  H   UNL     1      35.235 -25.891 -11.580  0.00  0.00    +0.295 HD
ENDBRANCH  19  20
ENDBRANCH   1  19
BRANCH   1  22
ATOM     22  N   UNL     1      33.742 -24.680 -14.182  0.00  0.00    -0.322 N 
ATOM     23  H   UNL     1      34.066 -25.610 -14.200  0.00  0.00    +0.148 HD
BRANCH  22  24
ATOM     24  C   UNL     1      32.472 -24.420 -14.651  0.00  0.00    +0.045 C 
ATOM     25  C   UNL     1      31.368 -25.014 -14.039  0.00  0.00    +0.014 C 
ATOM     26  C   UNL     1      32.291 -23.564 -15.737  0.00  0.00    +0.014 C 
ATOM     27  C   UNL     1      30.083 -24.752 -14.514  0.00  0.00    +0.004 C 
ATOM     28  C   UNL     1      31.006 -23.302 -16.212  0.00  0.00    +0.004 C 
ATOM     29  C   UNL     1      29.902 -23.895 -15.600  0.00  0.00    +0.031 C 
BRANCH  29  32
ATOM     30  N   UNL     1      27.777 -22.612 -15.543  0.00  0.00    -0.343 N 
ATOM     31  N   UNL     1      28.067 -24.342 -17.087  0.00  0.00    -0.285 NA
ATOM     32  C   UNL     1      28.563 -23.622 -16.096  0.00  0.00    +0.117 C 
ATOM     33  H   UNL     1      26.872 -22.443 -15.894  0.00  0.00    +0.144 HD
ATOM     34  H   UNL     1      28.127 -22.066 -14.802  0.00  0.00    +0.144 HD
ATOM     35  H   UNL     1      27.161 -24.158 -17.424  0.00  0.00    +0.188 HD
ENDBRANCH  29  32
ENDBRANCH  22  24
ENDBRANCH   1  22
TORSDOF 10
ENDMDL
MODEL 5
REMARK VINA RESULT:      -9.5      1.599      2.303
REMARK  Name = 6852220
REMARK  10 active torsions:
REMARK  status: ('A' for Active; 'I' for Inactive)
REMARK    1  A    between atoms: CA_1  and  C_4
REMARK    2  A    between atoms: CA_1  and  C_19
REMARK    3  A    between atoms: CA_1  and  N_22
REMARK    4  A    between atoms: C_3  and  O_9
REMARK    5  A    between atoms: C_8  and  O_15
REMARK    6  A    between atoms: O_9  and  C_11
REMARK    7  A    between atoms: O_15  and  C_16
REMARK    8  A    between atoms: C_19  and  O_20
REMARK    9  A    between atoms: N_22  and  C_24
REMARK   10  A    between atoms: C_29  and  C_32
REMARK                            x       y       z     vdW  Elec       q    Type
REMARK                         _______ _______ _______ _____ _____    ______ ____
ROOT
ATOM      1  CA  UNL     1      33.851 -22.852 -18.794  0.00  0.00    +0.195 C 
ENDROOT
BRANCH   1   4
ATOM      2  F   UNL     1      35.897 -22.933 -16.855  0.00  0.00    -0.201 F 
ATOM      3  C   UNL     1      34.375 -23.239 -15.068  0.00  0.00    +0.168 C 
ATOM      4  C   UNL     1      33.578 -23.035 -17.339  0.00  0.00    +0.040 C 
ATOM      5  C   UNL     1      34.634 -23.067 -16.427  0.00  0.00    +0.172 C 
ATOM      6  C   UNL     1      33.062 -23.378 -14.619  0.00  0.00    +0.076 C 
ATOM      7  C   UNL     1      32.265 -23.175 -16.891  0.00  0.00    +0.037 C 
ATOM      8  C   UNL     1      32.007 -23.347 -15.531  0.00  0.00    +0.141 C 
BRANCH   3   9
ATOM      9  O   UNL     1      35.411 -23.272 -14.171  0.00  0.00    -0.474 OA
BRANCH   9  11
ATOM     10  O   UNL     1      38.238 -23.962 -13.286  0.00  0.00    -0.350 OA
ATOM     11  C   UNL     1      36.039 -24.532 -13.966  0.00  0.00    +0.198 C 
ATOM     12  C   UNL     1      36.165 -24.785 -12.484  0.00  0.00    +0.078 C 
ATOM     13  C   UNL     1      37.488 -24.464 -14.405  0.00  0.00    +0.185 C 
ATOM     14  C   UNL     1      37.395 -23.976 -12.125  0.00  0.00    +0.146 C 
ENDBRANCH   9  11
ENDBRANCH   3   9
BRANCH   8  15
ATOM     15  O   UNL     1      30.725 -23.483 -15.094  0.00  0.00    -0.475 OA
BRANCH  15  16
ATOM     16  C   UNL     1      30.001 -24.625 -15.551  0.00  0.00    +0.206 C 
ATOM     17  C   UNL     1      28.695 -24.167 -16.163  0.00  0.00    +0.051 C 
ENDBRANCH  15  16
ENDBRANCH   8  15
ENDBRANCH   1   4
BRANCH   1  19
ATOM     18  OXT UNL     1      34.504 -24.278 -20.633  0.00  0.00    -0.248 OA
ATOM     19  C   UNL     1      33.999 -24.182 -19.520  0.00  0.00    +0.336 C 
BRANCH  19  20
ATOM     20  O   UNL     1      33.469 -25.246 -18.867  0.00  0.00    -0.479 OA
ATOM     21  H   UNL     1      33.974 -25.697 -18.219  0.00  0.00    +0.295 HD
ENDBRANCH  19  20
ENDBRANCH   1  19
BRANCH   1  22
ATOM     22  N   UNL     1      35.017 -22.011 -19.025  0.00  0.00    -0.322 N 
ATOM     23  H   UNL     1      35.861 -22.247 -18.574  0.00  0.00    +0.148 HD
BRANCH  22  24
ATOM     24  C   UNL     1      35.000 -20.901 -19.842  0.00  0.00    +0.045 C 
ATOM     25  C   UNL     1      36.199 -20.292 -20.215  0.00  0.00    +0.014 C 
ATOM     26  C   UNL     1      33.786 -20.387 -20.296  0.00  0.00    +0.014 C 
ATOM     27  C   UNL     1      36.182 -19.168 -21.041  0.00  0.00    +0.004 C 
ATOM     28  C   UNL     1      33.769 -19.263 -21.121  0.00  0.00    +0.004 C 
ATOM     29  C   UNL     1      34.967 -18.654 -21.494  0.00  0.00    +0.031 C 
BRANCH  29  32
ATOM     30  N   UNL     1      35.698 -17.433 -23.529  0.00  0.00    -0.343 N 
ATOM     31  N   UNL     1      34.215 -16.434 -22.026  0.00  0.00    -0.285 NA
ATOM     32  C   UNL     1      34.949 -17.482 -22.355  0.00  0.00    +0.117 C 
ATOM     33  H   UNL     1      35.672 -16.629 -24.098  0.00  0.00    +0.144 HD
ATOM     34  H   UNL     1      36.255 -18.202 -23.790  0.00  0.00    +0.144 HD
ATOM     35  H   UNL     1      34.201 -15.640 -22.608  0.00  0.00    +0.188 HD
ENDBRANCH  29  32
ENDBRANCH  22  24
ENDBRANCH   1  22
TORSDOF 10
ENDMDL
MODEL 6
REMARK VINA RESULT:      -9.5      1.587      4.363
REMARK  Name = 6852220
REMARK  10 active torsions:
REMARK  status: ('A' for Active; 'I' for Inactive)
REMARK    1  A    between atoms: CA_1  and  C_4
REMARK    2  A    between atoms: CA_1  and  C_19
REMARK    3  A    between atoms: CA_1  and  N_22
REMARK    4  A    between atoms: C_3  and  O_9
REMARK    5  A    between atoms: C_8  and  O_15
REMARK    6  A    between atoms: O_9  and  C_11
REMARK    7  A    between atoms: O_15  and  C_16
REMARK    8  A    between atoms: C_19  and  O_20
REMARK    9  A    between atoms: N_22  and  C_24
REMARK   10  A    between atoms: C_29  and  C_32
REMARK                            x       y       z     vdW  Elec       q    Type
REMARK                         _______ _______ _______ _____ _____    ______ ____
ROOT
ATOM      1  CA  UNL     1      34.503 -21.892 -18.555  0.00  0.00    +0.195 C 
ENDROOT
BRANCH   1   4
ATOM      2  F   UNL     1      32.642 -23.455 -17.123  0.00  0.00    -0.201 F 
ATOM      3  C   UNL     1      34.211 -24.023 -15.443  0.00  0.00    +0.168 C 
ATOM      4  C   UNL     1      34.849 -22.602 -17.289  0.00  0.00    +0.040 C 
ATOM      5  C   UNL     1      33.884 -23.361 -16.626  0.00  0.00    +0.172 C 
ATOM      6  C   UNL     1      35.501 -23.926 -14.923  0.00  0.00    +0.076 C 
ATOM      7  C   UNL     1      36.139 -22.506 -16.770  0.00  0.00    +0.037 C 
ATOM      8  C   UNL     1      36.466 -23.168 -15.586  0.00  0.00    +0.141 C 
BRANCH   3   9
ATOM      9  O   UNL     1      33.264 -24.767 -14.788  0.00  0.00    -0.474 OA
BRANCH   9  11
ATOM     10  O   UNL     1      30.675 -23.179 -14.646  0.00  0.00    -0.350 OA
ATOM     11  C   UNL     1      32.614 -24.148 -13.685  0.00  0.00    +0.198 C 
ATOM     12  C   UNL     1      31.416 -24.975 -13.290  0.00  0.00    +0.078 C 
ATOM     13  C   UNL     1      31.974 -22.847 -14.127  0.00  0.00    +0.185 C 
ATOM     14  C   UNL     1      30.378 -24.540 -14.305  0.00  0.00    +0.146 C 
ENDBRANCH   9  11
ENDBRANCH   3   9
BRANCH   8  15
ATOM     15  O   UNL     1      37.725 -23.073 -15.079  0.00  0.00    -0.475 OA
BRANCH  15  16
ATOM     16  C   UNL     1      38.121 -24.065 -14.133  0.00  0.00    +0.206 C 
ATOM     17  C   UNL     1      39.028 -25.064 -14.818  0.00  0.00    +0.051 C 
ENDBRANCH  15  16
ENDBRANCH   8  15
ENDBRANCH   1   4
BRANCH   1  19
ATOM     18  OXT UNL     1      34.264 -23.908 -19.866  0.00  0.00    -0.248 OA
ATOM     19  C   UNL     1      33.815 -22.810 -19.556  0.00  0.00    +0.336 C 
BRANCH  19  20
ATOM     20  O   UNL     1      32.702 -22.291 -20.129  0.00  0.00    -0.479 OA
ATOM     21  H   UNL     1      32.260 -21.570 -19.725  0.00  0.00    +0.295 HD
ENDBRANCH  19  20
ENDBRANCH   1  19
BRANCH   1  22
ATOM     22  N   UNL     1      35.668 -21.259 -19.157  0.00  0.00    -0.322 N 
ATOM     23  H   UNL     1      36.562 -21.551 -18.864  0.00  0.00    +0.148 HD
BRANCH  22  24
ATOM     24  C   UNL     1      35.583 -20.273 -20.116  0.00  0.00    +0.045 C 
ATOM     25  C   UNL     1      36.746 -19.695 -20.626  0.00  0.00    +0.014 C 
ATOM     26  C   UNL     1      34.336 -19.853 -20.577  0.00  0.00    +0.014 C 
ATOM     27  C   UNL     1      36.661 -18.695 -21.596  0.00  0.00    +0.004 C 
ATOM     28  C   UNL     1      34.250 -18.853 -21.546  0.00  0.00    +0.004 C 
ATOM     29  C   UNL     1      35.412 -18.275 -22.056  0.00  0.00    +0.031 C 
BRANCH  29  32
ATOM     30  N   UNL     1      35.296 -17.542 -24.425  0.00  0.00    -0.343 N 
ATOM     31  N   UNL     1      35.270 -15.965 -22.702  0.00  0.00    -0.285 NA
ATOM     32  C   UNL     1      35.323 -17.233 -23.067  0.00  0.00    +0.117 C 
ATOM     33  H   UNL     1      35.235 -16.821 -25.094  0.00  0.00    +0.144 HD
ATOM     34  H   UNL     1      35.338 -18.481 -24.718  0.00  0.00    +0.144 HD
ATOM     35  H   UNL     1      35.209 -15.258 -23.385  0.00  0.00    +0.188 HD
ENDBRANCH  29  32
ENDBRANCH  22  24
ENDBRANCH   1  22
TORSDOF 10
ENDMDL
MODEL 7
REMARK VINA RESULT:      -9.4      6.781     12.538
REMARK  Name = 6852220
REMARK  10 active torsions:
REMARK  status: ('A' for Active; 'I' for Inactive)
REMARK    1  A    between atoms: CA_1  and  C_4
REMARK    2  A    between atoms: CA_1  and  C_19
REMARK    3  A    between atoms: CA_1  and  N_22
REMARK    4  A    between atoms: C_3  and  O_9
REMARK    5  A    between atoms: C_8  and  O_15
REMARK    6  A    between atoms: O_9  and  C_11
REMARK    7  A    between atoms: O_15  and  C_16
REMARK    8  A    between atoms: C_19  and  O_20
REMARK    9  A    between atoms: N_22  and  C_24
REMARK   10  A    between atoms: C_29  and  C_32
REMARK                            x       y       z     vdW  Elec       q    Type
REMARK                         _______ _______ _______ _____ _____    ______ ____
ROOT
ATOM      1  CA  UNL     1      33.731 -16.152 -21.505  0.00  0.00    +0.195 C 
ENDROOT
BRANCH   1   4
ATOM      2  F   UNL     1      32.444 -13.719 -20.890  0.00  0.00    -0.201 F 
ATOM      3  C   UNL     1      32.314 -13.059 -23.160  0.00  0.00    +0.168 C 
ATOM      4  C   UNL     1      33.326 -15.166 -22.549  0.00  0.00    +0.040 C 
ATOM      5  C   UNL     1      32.692 -13.978 -22.182  0.00  0.00    +0.172 C 
ATOM      6  C   UNL     1      32.571 -13.325 -24.504  0.00  0.00    +0.076 C 
ATOM      7  C   UNL     1      33.583 -15.432 -23.893  0.00  0.00    +0.037 C 
ATOM      8  C   UNL     1      33.205 -14.512 -24.872  0.00  0.00    +0.141 C 
BRANCH   3   9
ATOM      9  O   UNL     1      31.690 -11.893 -22.802  0.00  0.00    -0.474 OA
BRANCH   9  11
ATOM     10  O   UNL     1      32.144  -9.105 -23.929  0.00  0.00    -0.350 OA
ATOM     11  C   UNL     1      32.525 -10.833 -22.351  0.00  0.00    +0.198 C 
ATOM     12  C   UNL     1      31.670  -9.771 -21.704  0.00  0.00    +0.078 C 
ATOM     13  C   UNL     1      33.110 -10.096 -23.538  0.00  0.00    +0.185 C 
ATOM     14  C   UNL     1      31.143  -9.010 -22.905  0.00  0.00    +0.146 C 
ENDBRANCH   9  11
ENDBRANCH   3   9
BRANCH   8  15
ATOM     15  O   UNL     1      33.456 -14.774 -26.183  0.00  0.00    -0.475 OA
BRANCH  15  16
ATOM     16  C   UNL     1      33.028 -13.798 -27.133  0.00  0.00    +0.206 C 
ATOM     17  C   UNL     1      34.193 -12.888 -27.462  0.00  0.00    +0.051 C 
ENDBRANCH  15  16
ENDBRANCH   8  15
ENDBRANCH   1   4
BRANCH   1  19
ATOM     18  OXT UNL     1      35.018 -16.070 -19.462  0.00  0.00    -0.248 OA
ATOM     19  C   UNL     1      34.789 -15.590 -20.567  0.00  0.00    +0.336 C 
BRANCH  19  20
ATOM     20  O   UNL     1      35.416 -14.477 -21.021  0.00  0.00    -0.479 OA
ATOM     21  H   UNL     1      36.186 -14.557 -21.551  0.00  0.00    +0.295 HD
ENDBRANCH  19  20
ENDBRANCH   1  19
BRANCH   1  22
ATOM     22  N   UNL     1      34.181 -17.407 -22.092  0.00  0.00    -0.322 N 
ATOM     23  H   UNL     1      34.431 -17.415 -23.044  0.00  0.00    +0.148 HD
BRANCH  22  24
ATOM     24  C   UNL     1      34.274 -18.584 -21.382  0.00  0.00    +0.045 C 
ATOM     25  C   UNL     1      33.117 -19.212 -20.920  0.00  0.00    +0.014 C 
ATOM     26  C   UNL     1      35.523 -19.148 -21.124  0.00  0.00    +0.014 C 
ATOM     27  C   UNL     1      33.210 -20.403 -20.199  0.00  0.00    +0.004 C 
ATOM     28  C   UNL     1      35.616 -20.339 -20.404  0.00  0.00    +0.004 C 
ATOM     29  C   UNL     1      34.460 -20.966 -19.942  0.00  0.00    +0.031 C 
BRANCH  29  32
ATOM     30  N   UNL     1      33.670 -23.259 -19.410  0.00  0.00    -0.343 N 
ATOM     31  N   UNL     1      35.501 -22.353 -18.277  0.00  0.00    -0.285 NA
ATOM     32  C   UNL     1      34.558 -22.208 -19.191  0.00  0.00    +0.117 C 
ATOM     33  H   UNL     1      33.753 -24.092 -18.890  0.00  0.00    +0.144 HD
ATOM     34  H   UNL     1      32.958 -23.170 -20.084  0.00  0.00    +0.144 HD
ATOM     35  H   UNL     1      35.569 -23.193 -17.768  0.00  0.00    +0.188 HD
ENDBRANCH  29  32
ENDBRANCH  22  24
ENDBRANCH   1  22
TORSDOF 10
ENDMDL
MODEL 8
REMARK VINA RESULT:      -9.4      2.537      5.326
REMARK  Name = 6852220
REMARK  10 active torsions:
REMARK  status: ('A' for Active; 'I' for Inactive)
REMARK    1  A    between atoms: CA_1  and  C_4
REMARK    2  A    between atoms: CA_1  and  C_19
REMARK    3  A    between atoms: CA_1  and  N_22
REMARK    4  A    between atoms: C_3  and  O_9
REMARK    5  A    between atoms: C_8  and  O_15
REMARK    6  A    between atoms: O_9  and  C_11
REMARK    7  A    between atoms: O_15  and  C_16
REMARK    8  A    between atoms: C_19  and  O_20
REMARK    9  A    between atoms: N_22  and  C_24
REMARK   10  A    between atoms: C_29  and  C_32
REMARK                            x       y       z     vdW  Elec       q    Type
REMARK                         _______ _______ _______ _____ _____    ______ ____
ROOT
ATOM      1  CA  UNL     1      35.284 -21.098 -19.959  0.00  0.00    +0.195 C 
ENDROOT
BRANCH   1   4
ATOM      2  F   UNL     1      32.787 -22.266 -19.363  0.00  0.00    -0.201 F 
ATOM      3  C   UNL     1      33.522 -23.089 -17.267  0.00  0.00    +0.168 C 
ATOM      4  C   UNL     1      35.022 -21.841 -18.691  0.00  0.00    +0.040 C 
ATOM      5  C   UNL     1      33.764 -22.397 -18.454  0.00  0.00    +0.172 C 
ATOM      6  C   UNL     1      34.536 -23.227 -16.320  0.00  0.00    +0.076 C 
ATOM      7  C   UNL     1      36.035 -21.978 -17.744  0.00  0.00    +0.037 C 
ATOM      8  C   UNL     1      35.793 -22.671 -16.558  0.00  0.00    +0.141 C 
BRANCH   3   9
ATOM      9  O   UNL     1      32.287 -23.635 -17.031  0.00  0.00    -0.474 OA
BRANCH   9  11
ATOM     10  O   UNL     1      29.382 -24.047 -16.231  0.00  0.00    -0.350 OA
ATOM     11  C   UNL     1      31.519 -23.050 -15.986  0.00  0.00    +0.198 C 
ATOM     12  C   UNL     1      31.332 -24.064 -14.884  0.00  0.00    +0.078 C 
ATOM     13  C   UNL     1      30.097 -22.820 -16.457  0.00  0.00    +0.185 C 
ATOM     14  C   UNL     1      30.191 -24.907 -15.417  0.00  0.00    +0.146 C 
ENDBRANCH   9  11
ENDBRANCH   3   9
BRANCH   8  15
ATOM     15  O   UNL     1      36.783 -22.804 -15.633  0.00  0.00    -0.475 OA
BRANCH  15  16
ATOM     16  C   UNL     1      36.789 -24.001 -14.857  0.00  0.00    +0.206 C 
ATOM     17  C   UNL     1      38.203 -24.539 -14.793  0.00  0.00    +0.051 C 
ENDBRANCH  15  16
ENDBRANCH   8  15
ENDBRANCH   1   4
BRANCH   1  19
ATOM     18  OXT UNL     1      37.101 -19.511 -19.812  0.00  0.00    -0.248 OA
ATOM     19  C   UNL     1      36.736 -20.653 -20.070  0.00  0.00    +0.336 C 
BRANCH  19  20
ATOM     20  O   UNL     1      37.585 -21.599 -20.540  0.00  0.00    -0.479 OA
ATOM     21  H   UNL     1      38.272 -21.359 -21.131  0.00  0.00    +0.295 HD
ENDBRANCH  19  20
ENDBRANCH   1  19
BRANCH   1  22
ATOM     22  N   UNL     1      34.387 -19.962 -20.117  0.00  0.00    -0.322 N 
ATOM     23  H   UNL     1      33.718 -19.793 -19.413  0.00  0.00    +0.148 HD
BRANCH  22  24
ATOM     24  C   UNL     1      34.425 -19.112 -21.201  0.00  0.00    +0.045 C 
ATOM     25  C   UNL     1      34.577 -19.630 -22.487  0.00  0.00    +0.014 C 
ATOM     26  C   UNL     1      34.312 -17.735 -21.013  0.00  0.00    +0.014 C 
ATOM     27  C   UNL     1      34.618 -18.771 -23.585  0.00  0.00    +0.004 C 
ATOM     28  C   UNL     1      34.352 -16.875 -22.111  0.00  0.00    +0.004 C 
ATOM     29  C   UNL     1      34.505 -17.393 -23.396  0.00  0.00    +0.031 C 
BRANCH  29  32
ATOM     30  N   UNL     1      34.177 -15.158 -24.426  0.00  0.00    -0.343 N 
ATOM     31  N   UNL     1      34.937 -16.950 -25.718  0.00  0.00    -0.285 NA
ATOM     32  C   UNL     1      34.546 -16.496 -24.541  0.00  0.00    +0.117 C 
ATOM     33  H   UNL     1      34.212 -14.567 -25.214  0.00  0.00    +0.144 HD
ATOM     34  H   UNL     1      33.879 -14.801 -23.558  0.00  0.00    +0.144 HD
ATOM     35  H   UNL     1      34.966 -16.344 -26.494  0.00  0.00    +0.188 HD
ENDBRANCH  29  32
ENDBRANCH  22  24
ENDBRANCH   1  22
TORSDOF 10
ENDMDL
MODEL 9
REMARK VINA RESULT:      -9.3      6.943     11.203
REMARK  Name = 6852220
REMARK  10 active torsions:
REMARK  status: ('A' for Active; 'I' for Inactive)
REMARK    1  A    between atoms: CA_1  and  C_4
REMARK    2  A    between atoms: CA_1  and  C_19
REMARK    3  A    between atoms: CA_1  and  N_22
REMARK    4  A    between atoms: C_3  and  O_9
REMARK    5  A    between atoms: C_8  and  O_15
REMARK    6  A    between atoms: O_9  and  C_11
REMARK    7  A    between atoms: O_15  and  C_16
REMARK    8  A    between atoms: C_19  and  O_20
REMARK    9  A    between atoms: N_22  and  C_24
REMARK   10  A    between atoms: C_29  and  C_32
REMARK                            x       y       z     vdW  Elec       q    Type
REMARK                         _______ _______ _______ _____ _____    ______ ____
ROOT
ATOM      1  CA  UNL     1      32.970 -14.293 -21.485  0.00  0.00    +0.195 C 
ENDROOT
BRANCH   1   4
ATOM      2  F   UNL     1      34.846 -16.242 -20.685  0.00  0.00    -0.201 F 
ATOM      3  C   UNL     1      35.264 -16.944 -22.907  0.00  0.00    +0.168 C 
ATOM      4  C   UNL     1      33.682 -15.175 -22.455  0.00  0.00    +0.040 C 
ATOM      5  C   UNL     1      34.600 -16.122 -21.998  0.00  0.00    +0.172 C 
ATOM      6  C   UNL     1      35.011 -16.822 -24.273  0.00  0.00    +0.076 C 
ATOM      7  C   UNL     1      33.429 -15.053 -23.821  0.00  0.00    +0.037 C 
ATOM      8  C   UNL     1      34.093 -15.876 -24.730  0.00  0.00    +0.141 C 
BRANCH   3   9
ATOM      9  O   UNL     1      36.167 -17.873 -22.460  0.00  0.00    -0.474 OA
BRANCH   9  11
ATOM     10  O   UNL     1      35.267 -19.824 -20.307  0.00  0.00    -0.350 OA
ATOM     11  C   UNL     1      35.776 -19.239 -22.548  0.00  0.00    +0.198 C 
ATOM     12  C   UNL     1      34.277 -19.333 -22.404  0.00  0.00    +0.078 C 
ATOM     13  C   UNL     1      36.265 -19.995 -21.329  0.00  0.00    +0.185 C 
ATOM     14  C   UNL     1      34.095 -19.250 -20.901  0.00  0.00    +0.146 C 
ENDBRANCH   9  11
ENDBRANCH   3   9
BRANCH   8  15
ATOM     15  O   UNL     1      33.846 -15.756 -26.063  0.00  0.00    -0.475 OA
BRANCH  15  16
ATOM     16  C   UNL     1      32.803 -14.863 -26.452  0.00  0.00    +0.206 C 
ATOM     17  C   UNL     1      33.414 -13.668 -27.153  0.00  0.00    +0.051 C 
ENDBRANCH  15  16
ENDBRANCH   8  15
ENDBRANCH   1   4
BRANCH   1  19
ATOM     18  OXT UNL     1      32.237 -14.788 -19.236  0.00  0.00    -0.248 OA
ATOM     19  C   UNL     1      32.227 -15.092 -20.424  0.00  0.00    +0.336 C 
BRANCH  19  20
ATOM     20  O   UNL     1      31.605 -16.205 -20.885  0.00  0.00    -0.479 OA
ATOM     21  H   UNL     1      32.112 -16.942 -21.166  0.00  0.00    +0.295 HD
ENDBRANCH  19  20
ENDBRANCH   1  19
BRANCH   1  22
ATOM     22  N   UNL     1      32.067 -13.369 -22.157  0.00  0.00    -0.322 N 
ATOM     23  H   UNL     1      31.444 -13.729 -22.829  0.00  0.00    +0.148 HD
BRANCH  22  24
ATOM     24  C   UNL     1      32.039 -12.015 -21.899  0.00  0.00    +0.045 C 
ATOM     25  C   UNL     1      32.466 -11.111 -22.872  0.00  0.00    +0.014 C 
ATOM     26  C   UNL     1      31.586 -11.549 -20.665  0.00  0.00    +0.014 C 
ATOM     27  C   UNL     1      32.440  -9.741 -22.611  0.00  0.00    +0.004 C 
ATOM     28  C   UNL     1      31.560 -10.179 -20.404  0.00  0.00    +0.004 C 
ATOM     29  C   UNL     1      31.986  -9.275 -21.376  0.00  0.00    +0.031 C 
BRANCH  29  32
ATOM     30  N   UNL     1      31.494  -6.937 -22.051  0.00  0.00    -0.343 N 
ATOM     31  N   UNL     1      32.385  -7.390 -19.939  0.00  0.00    -0.285 NA
ATOM     32  C   UNL     1      31.959  -7.847 -21.104  0.00  0.00    +0.117 C 
ATOM     33  H   UNL     1      31.484  -5.973 -21.847  0.00  0.00    +0.144 HD
ATOM     34  H   UNL     1      31.176  -7.257 -22.926  0.00  0.00    +0.144 HD
ATOM     35  H   UNL     1      32.367  -6.424 -19.753  0.00  0.00    +0.188 HD
ENDBRANCH  29  32
ENDBRANCH  22  24
ENDBRANCH   1  22
TORSDOF 10
ENDMDL
