MODEL 1
REMARK VINA RESULT:     -12.5      0.000      0.000
REMARK  Name = 11987860
REMARK  5 active torsions:
REMARK  status: ('A' for Active; 'I' for Inactive)
REMARK    1  A    between atoms: N_2  and  C_19
REMARK    2  A    between atoms: C_3  and  C_11
REMARK    3  A    between atoms: N_9  and  O_17
REMARK    4  A    between atoms: C_19  and  C_20
REMARK    5  A    between atoms: C_23  and  C_26
REMARK                            x       y       z     vdW  Elec       q    Type
REMARK                         _______ _______ _______ _____ _____    ______ ____
ROOT
ATOM      1  O   UNL     1      33.782 -22.789 -15.117  0.00  0.00    -0.272 OA
ATOM      2  N   UNL     1      34.438 -23.396 -17.266  0.00  0.00    -0.298 N 
ATOM      3  C   UNL     1      34.595 -23.278 -15.896  0.00  0.00    +0.253 C 
ATOM      4  H   UNL     1      35.164 -23.809 -17.787  0.00  0.00    +0.150 HD
ENDROOT
BRANCH   3  11
ATOM      5  O   UNL     1      35.372 -24.725 -13.366  0.00  0.00    -0.327 OA
ATOM      6  O   UNL     1      35.784 -25.265 -15.587  0.00  0.00    -0.320 OA
ATOM      7  O   UNL     1      40.294 -24.377 -13.783  0.00  0.00    -0.250 OA
ATOM      8  N   UNL     1      38.103 -25.144 -13.863  0.00  0.00    -0.255 N 
ATOM      9  N   UNL     1      39.913 -26.574 -14.311  0.00  0.00    -0.181 N 
ATOM     10  C   UNL     1      36.111 -23.635 -13.935  0.00  0.00    +0.174 C 
ATOM     11  C   UNL     1      35.894 -23.849 -15.423  0.00  0.00    +0.222 C 
ATOM     12  C   UNL     1      35.738 -25.788 -14.251  0.00  0.00    +0.256 C 
ATOM     13  C   UNL     1      37.571 -23.819 -13.509  0.00  0.00    +0.128 C 
ATOM     14  C   UNL     1      37.140 -26.263 -13.869  0.00  0.00    +0.156 C 
ATOM     15  C   UNL     1      39.498 -25.304 -13.972  0.00  0.00    +0.326 C 
ATOM     16  H   UNL     1      39.280 -27.312 -14.462  0.00  0.00    +0.184 HD
BRANCH   9  17
ATOM     17  O   UNL     1      41.302 -26.740 -14.427  0.00  0.00    -0.294 OA
ATOM     18  H   UNL     1      41.529 -27.674 -14.292  0.00  0.00    +0.241 HD
ENDBRANCH   9  17
ENDBRANCH   3  11
BRANCH   2  19
ATOM     19  C   UNL     1      33.259 -22.942 -17.968  0.00  0.00    +0.116 C 
BRANCH  19  20
ATOM     20  C   UNL     1      33.616 -21.867 -18.957  0.00  0.00    -0.003 C 
ATOM     21  C   UNL     1      32.613 -21.064 -19.488  0.00  0.00    -0.003 C 
ATOM     22  C   UNL     1      34.942 -21.689 -19.328  0.00  0.00    -0.003 C 
ATOM     23  C   UNL     1      34.273 -19.881 -20.784  0.00  0.00    -0.000 C 
ATOM     24  C   UNL     1      32.944 -20.067 -20.405  0.00  0.00    -0.000 C 
ATOM     25  C   UNL     1      35.272 -20.692 -20.245  0.00  0.00    -0.000 C 
BRANCH  23  26
ATOM     26  C   UNL     1      34.616 -18.846 -21.735  0.00  0.00    -0.000 C 
ATOM     27  C   UNL     1      34.893 -19.181 -23.060  0.00  0.00    -0.000 C 
ATOM     28  C   UNL     1      34.670 -17.514 -21.327  0.00  0.00    -0.000 C 
ATOM     29  C   UNL     1      35.223 -18.183 -23.978  0.00  0.00    +0.000 C 
ATOM     30  C   UNL     1      35.000 -16.516 -22.243  0.00  0.00    +0.000 C 
ATOM     31  C   UNL     1      35.277 -16.850 -23.569  0.00  0.00    +0.000 C 
ENDBRANCH  23  26
ENDBRANCH  19  20
ENDBRANCH   2  19
TORSDOF 5
ENDMDL
MODEL 2
REMARK VINA RESULT:     -11.9      1.722      2.178
REMARK  Name = 11987860
REMARK  5 active torsions:
REMARK  status: ('A' for Active; 'I' for Inactive)
REMARK    1  A    between atoms: N_2  and  C_19
REMARK    2  A    between atoms: C_3  and  C_11
REMARK    3  A    between atoms: N_9  and  O_17
REMARK    4  A    between atoms: C_19  and  C_20
REMARK    5  A    between atoms: C_23  and  C_26
REMARK                            x       y       z     vdW  Elec       q    Type
REMARK                         _______ _______ _______ _____ _____    ______ ____
ROOT
ATOM      1  O   UNL     1      32.633 -23.210 -16.157  0.00  0.00    -0.272 OA
ATOM      2  N   UNL     1      34.440 -23.049 -17.616  0.00  0.00    -0.298 N 
ATOM      3  C   UNL     1      33.840 -23.140 -16.372  0.00  0.00    +0.253 C 
ATOM      4  H   UNL     1      35.423 -23.000 -17.660  0.00  0.00    +0.150 HD
ENDROOT
BRANCH   3  11
ATOM      5  O   UNL     1      34.622 -25.294 -14.410  0.00  0.00    -0.327 OA
ATOM      6  O   UNL     1      35.947 -23.937 -15.751  0.00  0.00    -0.320 OA
ATOM      7  O   UNL     1      37.115 -22.496 -11.175  0.00  0.00    -0.250 OA
ATOM      8  N   UNL     1      36.568 -23.920 -12.926  0.00  0.00    -0.255 N 
ATOM      9  N   UNL     1      38.801 -23.598 -12.268  0.00  0.00    -0.181 N 
ATOM     10  C   UNL     1      34.334 -23.936 -14.049  0.00  0.00    +0.174 C 
ATOM     11  C   UNL     1      34.841 -23.173 -15.261  0.00  0.00    +0.222 C 
ATOM     12  C   UNL     1      35.925 -25.150 -14.983  0.00  0.00    +0.256 C 
ATOM     13  C   UNL     1      35.133 -23.638 -12.776  0.00  0.00    +0.128 C 
ATOM     14  C   UNL     1      36.934 -25.018 -13.843  0.00  0.00    +0.156 C 
ATOM     15  C   UNL     1      37.475 -23.283 -12.057  0.00  0.00    +0.326 C 
ATOM     16  H   UNL     1      39.088 -24.224 -12.970  0.00  0.00    +0.184 HD
BRANCH   9  17
ATOM     17  O   UNL     1      39.711 -22.962 -11.409  0.00  0.00    -0.294 OA
ATOM     18  H   UNL     1      39.562 -22.003 -11.432  0.00  0.00    +0.241 HD
ENDBRANCH   9  17
ENDBRANCH   3  11
BRANCH   2  19
ATOM     19  C   UNL     1      33.693 -23.023 -18.853  0.00  0.00    +0.116 C 
BRANCH  19  20
ATOM     20  C   UNL     1      33.910 -21.721 -19.572  0.00  0.00    -0.003 C 
ATOM     21  C   UNL     1      35.203 -21.315 -19.880  0.00  0.00    -0.003 C 
ATOM     22  C   UNL     1      32.816 -20.940 -19.920  0.00  0.00    -0.003 C 
ATOM     23  C   UNL     1      34.312 -19.316 -20.901  0.00  0.00    -0.000 C 
ATOM     24  C   UNL     1      35.404 -20.107 -20.547  0.00  0.00    -0.000 C 
ATOM     25  C   UNL     1      33.018 -19.732 -20.588  0.00  0.00    -0.000 C 
BRANCH  23  26
ATOM     26  C   UNL     1      34.520 -18.062 -21.594  0.00  0.00    -0.000 C 
ATOM     27  C   UNL     1      34.891 -18.062 -22.938  0.00  0.00    -0.000 C 
ATOM     28  C   UNL     1      34.347 -16.855 -20.918  0.00  0.00    -0.000 C 
ATOM     29  C   UNL     1      35.091 -16.854 -23.607  0.00  0.00    +0.000 C 
ATOM     30  C   UNL     1      34.547 -15.647 -21.586  0.00  0.00    +0.000 C 
ATOM     31  C   UNL     1      34.919 -15.646 -22.931  0.00  0.00    +0.000 C 
ENDBRANCH  23  26
ENDBRANCH  19  20
ENDBRANCH   2  19
TORSDOF 5
ENDMDL
MODEL 3
REMARK VINA RESULT:     -11.2      8.602     13.065
REMARK  Name = 11987860
REMARK  5 active torsions:
REMARK  status: ('A' for Active; 'I' for Inactive)
REMARK    1  A    between atoms: N_2  and  C_19
REMARK    2  A    between atoms: C_3  and  C_11
REMARK    3  A    between atoms: N_9  and  O_17
REMARK    4  A    between atoms: C_19  and  C_20
REMARK    5  A    between atoms: C_23  and  C_26
REMARK                            x       y       z     vdW  Elec       q    Type
REMARK                         _______ _______ _______ _____ _____    ______ ____
ROOT
ATOM      1  O   UNL     1      32.611 -14.989 -26.604  0.00  0.00    -0.272 OA
ATOM      2  N   UNL     1      34.012 -15.341 -24.779  0.00  0.00    -0.298 N 
ATOM      3  C   UNL     1      33.082 -14.638 -25.526  0.00  0.00    +0.253 C 
ATOM      4  H   UNL     1      34.315 -14.955 -23.925  0.00  0.00    +0.150 HD
ENDROOT
BRANCH   3  11
ATOM      5  O   UNL     1      34.463 -12.850 -23.527  0.00  0.00    -0.327 OA
ATOM      6  O   UNL     1      33.388 -12.322 -25.517  0.00  0.00    -0.320 OA
ATOM      7  O   UNL     1      30.557 -10.166 -22.095  0.00  0.00    -0.250 OA
ATOM      8  N   UNL     1      32.481 -10.894 -23.171  0.00  0.00    -0.255 N 
ATOM      9  N   UNL     1      31.699  -8.693 -23.428  0.00  0.00    -0.181 N 
ATOM     10  C   UNL     1      33.108 -13.303 -23.407  0.00  0.00    +0.174 C 
ATOM     11  C   UNL     1      32.665 -13.366 -24.859  0.00  0.00    +0.222 C 
ATOM     12  C   UNL     1      34.322 -11.846 -24.537  0.00  0.00    +0.256 C 
ATOM     13  C   UNL     1      32.356 -12.242 -22.597  0.00  0.00    +0.128 C 
ATOM     14  C   UNL     1      33.740 -10.593 -23.883  0.00  0.00    +0.156 C 
ATOM     15  C   UNL     1      31.511  -9.928 -22.844  0.00  0.00    +0.326 C 
ATOM     16  H   UNL     1      32.458  -8.503 -24.024  0.00  0.00    +0.184 HD
BRANCH   9  17
ATOM     17  O   UNL     1      30.732  -7.727 -23.110  0.00  0.00    -0.294 OA
ATOM     18  H   UNL     1      30.861  -6.944 -23.671  0.00  0.00    +0.241 HD
ENDBRANCH   9  17
ENDBRANCH   3  11
BRANCH   2  19
ATOM     19  C   UNL     1      34.558 -16.614 -25.192  0.00  0.00    +0.116 C 
BRANCH  19  20
ATOM     20  C   UNL     1      34.618 -17.564 -24.029  0.00  0.00    -0.003 C 
ATOM     21  C   UNL     1      34.553 -17.066 -22.733  0.00  0.00    -0.003 C 
ATOM     22  C   UNL     1      34.739 -18.928 -24.262  0.00  0.00    -0.003 C 
ATOM     23  C   UNL     1      34.730 -19.319 -21.879  0.00  0.00    -0.000 C 
ATOM     24  C   UNL     1      34.609 -17.948 -21.654  0.00  0.00    -0.000 C 
ATOM     25  C   UNL     1      34.795 -19.809 -23.183  0.00  0.00    -0.000 C 
BRANCH  23  26
ATOM     26  C   UNL     1      34.787 -20.234 -20.759  0.00  0.00    -0.000 C 
ATOM     27  C   UNL     1      33.610 -20.756 -20.224  0.00  0.00    -0.000 C 
ATOM     28  C   UNL     1      36.020 -20.596 -20.216  0.00  0.00    -0.000 C 
ATOM     29  C   UNL     1      33.665 -21.640 -19.146  0.00  0.00    +0.000 C 
ATOM     30  C   UNL     1      36.076 -21.478 -19.138  0.00  0.00    +0.000 C 
ATOM     31  C   UNL     1      34.898 -22.001 -18.602  0.00  0.00    +0.000 C 
ENDBRANCH  23  26
ENDBRANCH  19  20
ENDBRANCH   2  19
TORSDOF 5
ENDMDL
MODEL 4
REMARK VINA RESULT:     -10.9      5.779     10.791
REMARK  Name = 11987860
REMARK  5 active torsions:
REMARK  status: ('A' for Active; 'I' for Inactive)
REMARK    1  A    between atoms: N_2  and  C_19
REMARK    2  A    between atoms: C_3  and  C_11
REMARK    3  A    between atoms: N_9  and  O_17
REMARK    4  A    between atoms: C_19  and  C_20
REMARK    5  A    between atoms: C_23  and  C_26
REMARK                            x       y       z     vdW  Elec       q    Type
REMARK                         _______ _______ _______ _____ _____    ______ ____
ROOT
ATOM      1  O   UNL     1      34.619 -19.520 -23.094  0.00  0.00    -0.272 OA
ATOM      2  N   UNL     1      35.163 -19.346 -20.837  0.00  0.00    -0.298 N 
ATOM      3  C   UNL     1      34.649 -18.892 -22.039  0.00  0.00    +0.253 C 
ATOM      4  H   UNL     1      35.130 -18.746 -20.057  0.00  0.00    +0.150 HD
ENDROOT
BRANCH   3  11
ATOM      5  O   UNL     1      35.861 -16.164 -22.473  0.00  0.00    -0.327 OA
ATOM      6  O   UNL     1      33.873 -17.064 -23.270  0.00  0.00    -0.320 OA
ATOM      7  O   UNL     1      32.357 -13.429 -20.292  0.00  0.00    -0.250 OA
ATOM      8  N   UNL     1      33.649 -14.545 -21.865  0.00  0.00    -0.255 N 
ATOM      9  N   UNL     1      31.965 -13.042 -22.516  0.00  0.00    -0.181 N 
ATOM     10  C   UNL     1      35.075 -16.528 -21.330  0.00  0.00    +0.174 C 
ATOM     11  C   UNL     1      34.083 -17.512 -21.928  0.00  0.00    +0.222 C 
ATOM     12  C   UNL     1      34.841 -16.022 -23.466  0.00  0.00    +0.256 C 
ATOM     13  C   UNL     1      34.412 -15.244 -20.821  0.00  0.00    +0.128 C 
ATOM     14  C   UNL     1      34.151 -14.675 -23.249  0.00  0.00    +0.156 C 
ATOM     15  C   UNL     1      32.634 -13.651 -21.475  0.00  0.00    +0.326 C 
ATOM     16  H   UNL     1      32.185 -13.217 -23.458  0.00  0.00    +0.184 HD
BRANCH   9  17
ATOM     17  O   UNL     1      30.948 -12.152 -22.135  0.00  0.00    -0.294 OA
ATOM     18  H   UNL     1      30.740 -12.282 -21.195  0.00  0.00    +0.241 HD
ENDBRANCH   9  17
ENDBRANCH   3  11
BRANCH   2  19
ATOM     19  C   UNL     1      35.748 -20.658 -20.673  0.00  0.00    +0.116 C 
BRANCH  19  20
ATOM     20  C   UNL     1      35.127 -21.369 -19.503  0.00  0.00    -0.003 C 
ATOM     21  C   UNL     1      35.928 -21.768 -18.440  0.00  0.00    -0.003 C 
ATOM     22  C   UNL     1      33.761 -21.619 -19.499  0.00  0.00    -0.003 C 
ATOM     23  C   UNL     1      33.982 -22.683 -17.341  0.00  0.00    -0.000 C 
ATOM     24  C   UNL     1      35.352 -22.427 -17.354  0.00  0.00    -0.000 C 
ATOM     25  C   UNL     1      33.186 -22.279 -18.413  0.00  0.00    -0.000 C 
BRANCH  23  26
ATOM     26  C   UNL     1      33.383 -23.367 -16.214  0.00  0.00    -0.000 C 
ATOM     27  C   UNL     1      34.194 -23.906 -15.215  0.00  0.00    -0.000 C 
ATOM     28  C   UNL     1      31.997 -23.486 -16.127  0.00  0.00    -0.000 C 
ATOM     29  C   UNL     1      33.618 -24.564 -14.129  0.00  0.00    +0.000 C 
ATOM     30  C   UNL     1      31.420 -24.144 -15.041  0.00  0.00    +0.000 C 
ATOM     31  C   UNL     1      32.230 -24.684 -14.042  0.00  0.00    +0.000 C 
ENDBRANCH  23  26
ENDBRANCH  19  20
ENDBRANCH   2  19
TORSDOF 5
ENDMDL
MODEL 5
REMARK VINA RESULT:     -10.7      8.317     12.484
REMARK  Name = 11987860
REMARK  5 active torsions:
REMARK  status: ('A' for Active; 'I' for Inactive)
REMARK    1  A    between atoms: N_2  and  C_19
REMARK    2  A    between atoms: C_3  and  C_11
REMARK    3  A    between atoms: N_9  and  O_17
REMARK    4  A    between atoms: C_19  and  C_20
REMARK    5  A    between atoms: C_23  and  C_26
REMARK                            x       y       z     vdW  Elec       q    Type
REMARK                         _______ _______ _______ _____ _____    ______ ____
ROOT
ATOM      1  O   UNL     1      32.756 -14.113 -25.063  0.00  0.00    -0.272 OA
ATOM      2  N   UNL     1      34.495 -14.538 -23.575  0.00  0.00    -0.298 N 
ATOM      3  C   UNL     1      33.417 -13.824 -24.069  0.00  0.00    +0.253 C 
ATOM      4  H   UNL     1      34.947 -14.205 -22.766  0.00  0.00    +0.150 HD
ENDROOT
BRANCH   3  11
ATOM      5  O   UNL     1      31.296 -13.319 -21.985  0.00  0.00    -0.327 OA
ATOM      6  O   UNL     1      33.584 -12.926 -21.919  0.00  0.00    -0.320 OA
ATOM      7  O   UNL     1      31.650  -8.387 -21.731  0.00  0.00    -0.250 OA
ATOM      8  N   UNL     1      31.893 -10.659 -21.316  0.00  0.00    -0.255 N 
ATOM      9  N   UNL     1      32.671  -9.051 -19.790  0.00  0.00    -0.181 N 
ATOM     10  C   UNL     1      31.601 -12.424 -23.063  0.00  0.00    +0.174 C 
ATOM     11  C   UNL     1      33.097 -12.628 -23.230  0.00  0.00    +0.222 C 
ATOM     12  C   UNL     1      32.405 -13.079 -21.114  0.00  0.00    +0.256 C 
ATOM     13  C   UNL     1      31.238 -11.015 -22.584  0.00  0.00    +0.128 C 
ATOM     14  C   UNL     1      32.152 -11.766 -20.373  0.00  0.00    +0.156 C 
ATOM     15  C   UNL     1      32.043  -9.297 -20.993  0.00  0.00    +0.326 C 
ATOM     16  H   UNL     1      32.984  -9.774 -19.201  0.00  0.00    +0.184 HD
BRANCH   9  17
ATOM     17  O   UNL     1      32.829  -7.695 -19.463  0.00  0.00    -0.294 OA
ATOM     18  H   UNL     1      33.725  -7.407 -19.703  0.00  0.00    +0.241 HD
ENDBRANCH   9  17
ENDBRANCH   3  11
BRANCH   2  19
ATOM     19  C   UNL     1      34.991 -15.747 -24.192  0.00  0.00    +0.116 C 
BRANCH  19  20
ATOM     20  C   UNL     1      34.893 -16.904 -23.236  0.00  0.00    -0.003 C 
ATOM     21  C   UNL     1      34.880 -18.203 -23.732  0.00  0.00    -0.003 C 
ATOM     22  C   UNL     1      34.815 -16.662 -21.871  0.00  0.00    -0.003 C 
ATOM     23  C   UNL     1      34.711 -19.043 -21.473  0.00  0.00    -0.000 C 
ATOM     24  C   UNL     1      34.789 -19.276 -22.845  0.00  0.00    -0.000 C 
ATOM     25  C   UNL     1      34.724 -17.735 -20.986  0.00  0.00    -0.000 C 
BRANCH  23  26
ATOM     26  C   UNL     1      34.617 -20.156 -20.553  0.00  0.00    -0.000 C 
ATOM     27  C   UNL     1      35.777 -20.760 -20.070  0.00  0.00    -0.000 C 
ATOM     28  C   UNL     1      33.366 -20.623 -20.150  0.00  0.00    -0.000 C 
ATOM     29  C   UNL     1      35.687 -21.833 -19.182  0.00  0.00    +0.000 C 
ATOM     30  C   UNL     1      33.275 -21.695 -19.263  0.00  0.00    +0.000 C 
ATOM     31  C   UNL     1      34.436 -22.301 -18.779  0.00  0.00    +0.000 C 
ENDBRANCH  23  26
ENDBRANCH  19  20
ENDBRANCH   2  19
TORSDOF 5
ENDMDL
MODEL 6
REMARK VINA RESULT:     -10.6      3.897      6.228
REMARK  Name = 11987860
REMARK  5 active torsions:
REMARK  status: ('A' for Active; 'I' for Inactive)
REMARK    1  A    between atoms: N_2  and  C_19
REMARK    2  A    between atoms: C_3  and  C_11
REMARK    3  A    between atoms: N_9  and  O_17
REMARK    4  A    between atoms: C_19  and  C_20
REMARK    5  A    between atoms: C_23  and  C_26
REMARK                            x       y       z     vdW  Elec       q    Type
REMARK                         _______ _______ _______ _____ _____    ______ ____
ROOT
ATOM      1  O   UNL     1      34.327 -23.926 -16.639  0.00  0.00    -0.272 OA
ATOM      2  N   UNL     1      33.738 -22.339 -18.237  0.00  0.00    -0.298 N 
ATOM      3  C   UNL     1      33.490 -23.227 -17.204  0.00  0.00    +0.253 C 
ATOM      4  H   UNL     1      32.981 -21.832 -18.610  0.00  0.00    +0.150 HD
ENDROOT
BRANCH   3  11
ATOM      5  O   UNL     1      32.093 -24.173 -14.704  0.00  0.00    -0.327 OA
ATOM      6  O   UNL     1      31.893 -22.171 -15.866  0.00  0.00    -0.320 OA
ATOM      7  O   UNL     1      27.450 -24.253 -16.423  0.00  0.00    -0.250 OA
ATOM      8  N   UNL     1      29.429 -23.611 -15.392  0.00  0.00    -0.255 N 
ATOM      9  N   UNL     1      27.448 -22.383 -15.099  0.00  0.00    -0.181 N 
ATOM     10  C   UNL     1      31.676 -24.499 -16.037  0.00  0.00    +0.174 C 
ATOM     11  C   UNL     1      32.050 -23.241 -16.802  0.00  0.00    +0.222 C 
ATOM     12  C   UNL     1      31.646 -22.817 -14.608  0.00  0.00    +0.256 C 
ATOM     13  C   UNL     1      30.164 -24.740 -15.982  0.00  0.00    +0.128 C 
ATOM     14  C   UNL     1      30.138 -22.830 -14.358  0.00  0.00    +0.156 C 
ATOM     15  C   UNL     1      28.060 -23.469 -15.688  0.00  0.00    +0.326 C 
ATOM     16  H   UNL     1      27.933 -21.759 -14.513  0.00  0.00    +0.184 HD
BRANCH   9  17
ATOM     17  O   UNL     1      26.084 -22.232 -15.393  0.00  0.00    -0.294 OA
ATOM     18  H   UNL     1      25.567 -22.857 -14.860  0.00  0.00    +0.241 HD
ENDBRANCH   9  17
ENDBRANCH   3  11
BRANCH   2  19
ATOM     19  C   UNL     1      35.054 -22.122 -18.793  0.00  0.00    +0.116 C 
BRANCH  19  20
ATOM     20  C   UNL     1      35.014 -21.040 -19.836  0.00  0.00    -0.003 C 
ATOM     21  C   UNL     1      33.788 -20.606 -20.326  0.00  0.00    -0.003 C 
ATOM     22  C   UNL     1      36.201 -20.487 -20.297  0.00  0.00    -0.003 C 
ATOM     23  C   UNL     1      34.938 -19.040 -21.762  0.00  0.00    -0.000 C 
ATOM     24  C   UNL     1      33.751 -19.602 -21.293  0.00  0.00    -0.000 C 
ATOM     25  C   UNL     1      36.163 -19.483 -21.264  0.00  0.00    -0.000 C 
BRANCH  23  26
ATOM     26  C   UNL     1      34.899 -17.997 -22.765  0.00  0.00    -0.000 C 
ATOM     27  C   UNL     1      34.827 -18.333 -24.117  0.00  0.00    -0.000 C 
ATOM     28  C   UNL     1      34.933 -16.658 -22.379  0.00  0.00    -0.000 C 
ATOM     29  C   UNL     1      34.788 -17.328 -25.084  0.00  0.00    +0.000 C 
ATOM     30  C   UNL     1      34.895 -15.653 -23.345  0.00  0.00    +0.000 C 
ATOM     31  C   UNL     1      34.823 -15.987 -24.698  0.00  0.00    +0.000 C 
ENDBRANCH  23  26
ENDBRANCH  19  20
ENDBRANCH   2  19
TORSDOF 5
ENDMDL
MODEL 7
REMARK VINA RESULT:     -10.4      5.406     10.303
REMARK  Name = 11987860
REMARK  5 active torsions:
REMARK  status: ('A' for Active; 'I' for Inactive)
REMARK    1  A    between atoms: N_2  and  C_19
REMARK    2  A    between atoms: C_3  and  C_11
REMARK    3  A    between atoms: N_9  and  O_17
REMARK    4  A    between atoms: C_19  and  C_20
REMARK    5  A    between atoms: C_23  and  C_26
REMARK                            x       y       z     vdW  Elec       q    Type
REMARK                         _______ _______ _______ _____ _____    ______ ____
ROOT
ATOM      1  O   UNL     1      38.068 -19.089 -21.404  0.00  0.00    -0.272 OA
ATOM      2  N   UNL     1      36.101 -19.970 -20.524  0.00  0.00    -0.298 N 
ATOM      3  C   UNL     1      36.859 -19.029 -21.201  0.00  0.00    +0.253 C 
ATOM      4  H   UNL     1      35.135 -19.809 -20.425  0.00  0.00    +0.150 HD
ENDROOT
BRANCH   3  11
ATOM      5  O   UNL     1      33.932 -18.807 -21.894  0.00  0.00    -0.327 OA
ATOM      6  O   UNL     1      35.270 -17.430 -20.587  0.00  0.00    -0.320 OA
ATOM      7  O   UNL     1      34.078 -14.548 -24.415  0.00  0.00    -0.250 OA
ATOM      8  N   UNL     1      33.831 -16.130 -22.733  0.00  0.00    -0.255 N 
ATOM      9  N   UNL     1      33.128 -13.908 -22.430  0.00  0.00    -0.181 N 
ATOM     10  C   UNL     1      35.000 -18.340 -22.730  0.00  0.00    +0.174 C 
ATOM     11  C   UNL     1      36.030 -17.892 -21.707  0.00  0.00    +0.222 C 
ATOM     12  C   UNL     1      33.914 -17.789 -20.889  0.00  0.00    +0.256 C 
ATOM     13  C   UNL     1      34.438 -17.183 -23.561  0.00  0.00    +0.128 C 
ATOM     14  C   UNL     1      33.206 -16.563 -21.467  0.00  0.00    +0.156 C 
ATOM     15  C   UNL     1      33.702 -14.836 -23.274  0.00  0.00    +0.326 C 
ATOM     16  H   UNL     1      32.828 -14.137 -21.522  0.00  0.00    +0.184 HD
BRANCH   9  17
ATOM     17  O   UNL     1      33.001 -12.615 -22.960  0.00  0.00    -0.294 OA
ATOM     18  H   UNL     1      33.534 -12.543 -23.769  0.00  0.00    +0.241 HD
ENDBRANCH   9  17
ENDBRANCH   3  11
BRANCH   2  19
ATOM     19  C   UNL     1      36.661 -21.175 -19.956  0.00  0.00    +0.116 C 
BRANCH  19  20
ATOM     20  C   UNL     1      35.722 -21.766 -18.941  0.00  0.00    -0.003 C 
ATOM     21  C   UNL     1      36.189 -22.067 -17.668  0.00  0.00    -0.003 C 
ATOM     22  C   UNL     1      34.399 -22.003 -19.289  0.00  0.00    -0.003 C 
ATOM     23  C   UNL     1      33.987 -22.857 -17.067  0.00  0.00    -0.000 C 
ATOM     24  C   UNL     1      35.318 -22.615 -16.727  0.00  0.00    -0.000 C 
ATOM     25  C   UNL     1      33.528 -22.551 -18.348  0.00  0.00    -0.000 C 
BRANCH  23  26
ATOM     26  C   UNL     1      33.082 -23.425 -16.091  0.00  0.00    -0.000 C 
ATOM     27  C   UNL     1      33.583 -23.959 -14.904  0.00  0.00    -0.000 C 
ATOM     28  C   UNL     1      31.710 -23.437 -16.337  0.00  0.00    -0.000 C 
ATOM     29  C   UNL     1      32.710 -24.506 -13.962  0.00  0.00    +0.000 C 
ATOM     30  C   UNL     1      30.837 -23.983 -15.396  0.00  0.00    +0.000 C 
ATOM     31  C   UNL     1      31.337 -24.518 -14.208  0.00  0.00    +0.000 C 
ENDBRANCH  23  26
ENDBRANCH  19  20
ENDBRANCH   2  19
TORSDOF 5
ENDMDL
MODEL 8
REMARK VINA RESULT:     -10.3      6.932     11.418
REMARK  Name = 11987860
REMARK  5 active torsions:
REMARK  status: ('A' for Active; 'I' for Inactive)
REMARK    1  A    between atoms: N_2  and  C_19
REMARK    2  A    between atoms: C_3  and  C_11
REMARK    3  A    between atoms: N_9  and  O_17
REMARK    4  A    between atoms: C_19  and  C_20
REMARK    5  A    between atoms: C_23  and  C_26
REMARK                            x       y       z     vdW  Elec       q    Type
REMARK                         _______ _______ _______ _____ _____    ______ ____
ROOT
ATOM      1  O   UNL     1      35.314 -15.641 -24.346  0.00  0.00    -0.272 OA
ATOM      2  N   UNL     1      35.051 -16.703 -22.292  0.00  0.00    -0.298 N 
ATOM      3  C   UNL     1      34.924 -15.651 -23.182  0.00  0.00    +0.253 C 
ATOM      4  H   UNL     1      34.697 -16.591 -21.380  0.00  0.00    +0.150 HD
ENDROOT
BRANCH   3  11
ATOM      5  O   UNL     1      32.236 -15.383 -21.840  0.00  0.00    -0.327 OA
ATOM      6  O   UNL     1      34.330 -14.639 -21.162  0.00  0.00    -0.320 OA
ATOM      7  O   UNL     1      31.836 -10.449 -21.937  0.00  0.00    -0.250 OA
ATOM      8  N   UNL     1      32.248 -12.634 -21.269  0.00  0.00    -0.255 N 
ATOM      9  N   UNL     1      32.320 -10.856 -19.735  0.00  0.00    -0.181 N 
ATOM     10  C   UNL     1      32.722 -14.502 -22.862  0.00  0.00    +0.174 C 
ATOM     11  C   UNL     1      34.215 -14.481 -22.578  0.00  0.00    +0.222 C 
ATOM     12  C   UNL     1      32.998 -14.934 -20.715  0.00  0.00    +0.256 C 
ATOM     13  C   UNL     1      32.050 -13.144 -22.634  0.00  0.00    +0.128 C 
ATOM     14  C   UNL     1      32.365 -13.643 -20.196  0.00  0.00    +0.156 C 
ATOM     15  C   UNL     1      32.113 -11.251 -21.039  0.00  0.00    +0.326 C 
ATOM     16  H   UNL     1      32.540 -11.494 -19.019  0.00  0.00    +0.184 HD
BRANCH   9  17
ATOM     17  O   UNL     1      32.193  -9.478 -19.499  0.00  0.00    -0.294 OA
ATOM     18  H   UNL     1      32.221  -9.309 -18.543  0.00  0.00    +0.241 HD
ENDBRANCH   9  17
ENDBRANCH   3  11
BRANCH   2  19
ATOM     19  C   UNL     1      35.679 -17.958 -22.636  0.00  0.00    +0.116 C 
BRANCH  19  20
ATOM     20  C   UNL     1      35.447 -18.978 -21.557  0.00  0.00    -0.003 C 
ATOM     21  C   UNL     1      36.534 -19.519 -20.880  0.00  0.00    -0.003 C 
ATOM     22  C   UNL     1      34.150 -19.368 -21.249  0.00  0.00    -0.003 C 
ATOM     23  C   UNL     1      35.020 -20.863 -19.562  0.00  0.00    -0.000 C 
ATOM     24  C   UNL     1      36.318 -20.465 -19.878  0.00  0.00    -0.000 C 
ATOM     25  C   UNL     1      33.935 -20.314 -20.247  0.00  0.00    -0.000 C 
BRANCH  23  26
ATOM     26  C   UNL     1      34.796 -21.844 -18.522  0.00  0.00    -0.000 C 
ATOM     27  C   UNL     1      35.767 -22.059 -17.545  0.00  0.00    -0.000 C 
ATOM     28  C   UNL     1      33.607 -22.573 -18.496  0.00  0.00    -0.000 C 
ATOM     29  C   UNL     1      35.551 -23.004 -16.541  0.00  0.00    +0.000 C 
ATOM     30  C   UNL     1      33.391 -23.518 -17.493  0.00  0.00    +0.000 C 
ATOM     31  C   UNL     1      34.363 -23.734 -16.516  0.00  0.00    +0.000 C 
ENDBRANCH  23  26
ENDBRANCH  19  20
ENDBRANCH   2  19
TORSDOF 5
ENDMDL
MODEL 9
REMARK VINA RESULT:     -10.3     11.171     15.505
REMARK  Name = 11987860
REMARK  5 active torsions:
REMARK  status: ('A' for Active; 'I' for Inactive)
REMARK    1  A    between atoms: N_2  and  C_19
REMARK    2  A    between atoms: C_3  and  C_11
REMARK    3  A    between atoms: N_9  and  O_17
REMARK    4  A    between atoms: C_19  and  C_20
REMARK    5  A    between atoms: C_23  and  C_26
REMARK                            x       y       z     vdW  Elec       q    Type
REMARK                         _______ _______ _______ _____ _____    ______ ____
ROOT
ATOM      1  O   UNL     1      32.402  -9.371 -18.928  0.00  0.00    -0.272 OA
ATOM      2  N   UNL     1      31.465 -10.689 -20.602  0.00  0.00    -0.298 N 
ATOM      3  C   UNL     1      31.890  -9.500 -20.037  0.00  0.00    +0.253 C 
ATOM      4  H   UNL     1      31.069 -10.664 -21.504  0.00  0.00    +0.150 HD
ENDROOT
BRANCH   3  11
ATOM      5  O   UNL     1      33.823  -7.654 -21.435  0.00  0.00    -0.327 OA
ATOM      6  O   UNL     1      31.985  -8.805 -22.265  0.00  0.00    -0.320 OA
ATOM      7  O   UNL     1      30.653  -4.072 -22.712  0.00  0.00    -0.250 OA
ATOM      8  N   UNL     1      32.014  -5.953 -22.744  0.00  0.00    -0.255 N 
ATOM      9  N   UNL     1      31.021  -5.133 -24.709  0.00  0.00    -0.181 N 
ATOM     10  C   UNL     1      32.679  -7.214 -20.690  0.00  0.00    +0.174 C 
ATOM     11  C   UNL     1      31.684  -8.333 -20.950  0.00  0.00    +0.222 C 
ATOM     12  C   UNL     1      33.198  -8.131 -22.630  0.00  0.00    +0.256 C 
ATOM     13  C   UNL     1      32.246  -5.875 -21.294  0.00  0.00    +0.128 C 
ATOM     14  C   UNL     1      32.839  -6.922 -23.494  0.00  0.00    +0.156 C 
ATOM     15  C   UNL     1      31.190  -4.985 -23.349  0.00  0.00    +0.326 C 
ATOM     16  H   UNL     1      31.448  -5.859 -25.217  0.00  0.00    +0.184 HD
BRANCH   9  17
ATOM     17  O   UNL     1      30.197  -4.174 -25.319  0.00  0.00    -0.294 OA
ATOM     18  H   UNL     1      30.493  -4.025 -26.231  0.00  0.00    +0.241 HD
ENDBRANCH   9  17
ENDBRANCH   3  11
BRANCH   2  19
ATOM     19  C   UNL     1      31.575 -11.966 -19.933  0.00  0.00    +0.116 C 
BRANCH  19  20
ATOM     20  C   UNL     1      32.177 -12.992 -20.852  0.00  0.00    -0.003 C 
ATOM     21  C   UNL     1      32.150 -12.783 -22.226  0.00  0.00    -0.003 C 
ATOM     22  C   UNL     1      32.753 -14.137 -20.318  0.00  0.00    -0.003 C 
ATOM     23  C   UNL     1      33.289 -14.888 -22.550  0.00  0.00    -0.000 C 
ATOM     24  C   UNL     1      32.708 -13.736 -23.077  0.00  0.00    -0.000 C 
ATOM     25  C   UNL     1      33.311 -15.089 -21.170  0.00  0.00    -0.000 C 
BRANCH  23  26
ATOM     26  C   UNL     1      33.869 -15.876 -23.434  0.00  0.00    -0.000 C 
ATOM     27  C   UNL     1      34.538 -16.979 -22.904  0.00  0.00    -0.000 C 
ATOM     28  C   UNL     1      33.758 -15.726 -24.816  0.00  0.00    -0.000 C 
ATOM     29  C   UNL     1      35.096 -17.933 -23.755  0.00  0.00    +0.000 C 
ATOM     30  C   UNL     1      34.317 -16.679 -25.668  0.00  0.00    +0.000 C 
ATOM     31  C   UNL     1      34.986 -17.782 -25.138  0.00  0.00    +0.000 C 
ENDBRANCH  23  26
ENDBRANCH  19  20
ENDBRANCH   2  19
TORSDOF 5
ENDMDL
