MODEL 1
REMARK VINA RESULT:      -7.6      0.000      0.000
REMARK  Name = 5288643
REMARK  5 active torsions:
REMARK  status: ('A' for Active; 'I' for Inactive)
REMARK    1  A    between atoms: C_1  and  C_4
REMARK    2  A    between atoms: C_1  and  N_8
REMARK    3  A    between atoms: C_1  and  C_12
REMARK    4  A    between atoms: N_3  and  O_6
REMARK    5  A    between atoms: C_12  and  C_14
REMARK                            x       y       z     vdW  Elec       q    Type
REMARK                         _______ _______ _______ _____ _____    ______ ____
ROOT
ATOM      1  C   UNL     1      34.654 -17.553 -22.092  0.00  0.00    +0.019 C 
ENDROOT
BRANCH   1   4
ATOM      2  O   UNL     1      35.300 -15.652 -23.447  0.00  0.00    -0.275 OA
ATOM      3  N   UNL     1      34.596 -17.580 -24.505  0.00  0.00    -0.199 N 
ATOM      4  C   UNL     1      34.882 -16.809 -23.404  0.00  0.00    +0.224 C 
ATOM      5  H   UNL     1      34.263 -18.504 -24.423  0.00  0.00    +0.182 HD
BRANCH   3   6
ATOM      6  O   UNL     1      34.808 -16.974 -25.749  0.00  0.00    -0.295 OA
ATOM      7  H   UNL     1      35.699 -17.188 -26.067  0.00  0.00    +0.241 HD
ENDBRANCH   3   6
ENDBRANCH   1   4
BRANCH   1   8
ATOM      8  N   UNL     1      34.976 -16.628 -21.006  0.00  0.00    +0.388 N 
ATOM      9  H   UNL     1      35.935 -16.297 -21.113  0.00  0.00    -0.089 HD
ATOM     10  H   UNL     1      34.880 -17.107 -20.111  0.00  0.00    -0.089 HD
ATOM     11  H   UNL     1      34.337 -15.832 -21.035  0.00  0.00    -0.089 HD
ENDBRANCH   1   8
BRANCH   1  12
ATOM     12  C   UNL     1      35.557 -18.792 -22.002  0.00  0.00    +0.013 C 
BRANCH  12  14
ATOM     13  I   UNL     1      33.456 -23.068 -17.791  0.00  0.00    -0.043 I 
ATOM     14  C   UNL     1      35.059 -19.808 -21.001  0.00  0.00    -0.024 C 
ATOM     15  C   UNL     1      35.973 -20.589 -20.314  0.00  0.00    -0.004 C 
ATOM     16  C   UNL     1      33.695 -19.938 -20.790  0.00  0.00    -0.004 C 
ATOM     17  C   UNL     1      35.512 -21.527 -19.389  0.00  0.00    +0.005 C 
ATOM     18  C   UNL     1      33.235 -20.876 -19.866  0.00  0.00    +0.005 C 
ATOM     19  C   UNL     1      34.143 -21.670 -19.166  0.00  0.00    +0.030 C 
ENDBRANCH  12  14
ENDBRANCH   1  12
TORSDOF 5
ENDMDL
MODEL 2
REMARK VINA RESULT:      -7.6      0.040      1.292
REMARK  Name = 5288643
REMARK  5 active torsions:
REMARK  status: ('A' for Active; 'I' for Inactive)
REMARK    1  A    between atoms: C_1  and  C_4
REMARK    2  A    between atoms: C_1  and  N_8
REMARK    3  A    between atoms: C_1  and  C_12
REMARK    4  A    between atoms: N_3  and  O_6
REMARK    5  A    between atoms: C_12  and  C_14
REMARK                            x       y       z     vdW  Elec       q    Type
REMARK                         _______ _______ _______ _____ _____    ______ ____
ROOT
ATOM      1  C   UNL     1      34.663 -17.539 -22.089  0.00  0.00    +0.019 C 
ENDROOT
BRANCH   1   4
ATOM      2  O   UNL     1      35.294 -15.636 -23.446  0.00  0.00    -0.275 OA
ATOM      3  N   UNL     1      34.598 -17.568 -24.501  0.00  0.00    -0.199 N 
ATOM      4  C   UNL     1      34.882 -16.794 -23.402  0.00  0.00    +0.224 C 
ATOM      5  H   UNL     1      34.270 -18.493 -24.417  0.00  0.00    +0.182 HD
BRANCH   3   6
ATOM      6  O   UNL     1      34.804 -16.962 -25.747  0.00  0.00    -0.295 OA
ATOM      7  H   UNL     1      34.907 -16.004 -25.627  0.00  0.00    +0.241 HD
ENDBRANCH   3   6
ENDBRANCH   1   4
BRANCH   1   8
ATOM      8  N   UNL     1      34.961 -16.604 -21.003  0.00  0.00    +0.388 N 
ATOM      9  H   UNL     1      35.137 -17.125 -20.145  0.00  0.00    -0.089 HD
ATOM     10  H   UNL     1      34.167 -15.978 -20.865  0.00  0.00    -0.089 HD
ATOM     11  H   UNL     1      35.787 -16.055 -21.243  0.00  0.00    -0.089 HD
ENDBRANCH   1   8
BRANCH   1  12
ATOM     12  C   UNL     1      35.588 -18.760 -21.990  0.00  0.00    +0.013 C 
BRANCH  12  14
ATOM     13  I   UNL     1      33.517 -23.094 -17.823  0.00  0.00    -0.043 I 
ATOM     14  C   UNL     1      35.095 -19.790 -21.000  0.00  0.00    -0.024 C 
ATOM     15  C   UNL     1      33.734 -19.929 -20.787  0.00  0.00    -0.004 C 
ATOM     16  C   UNL     1      36.016 -20.576 -20.326  0.00  0.00    -0.004 C 
ATOM     17  C   UNL     1      33.279 -20.881 -19.873  0.00  0.00    +0.005 C 
ATOM     18  C   UNL     1      35.561 -21.527 -19.412  0.00  0.00    +0.005 C 
ATOM     19  C   UNL     1      34.193 -21.679 -19.186  0.00  0.00    +0.030 C 
ENDBRANCH  12  14
ENDBRANCH   1  12
TORSDOF 5
ENDMDL
MODEL 3
REMARK VINA RESULT:      -7.3      6.381      7.585
REMARK  Name = 5288643
REMARK  5 active torsions:
REMARK  status: ('A' for Active; 'I' for Inactive)
REMARK    1  A    between atoms: C_1  and  C_4
REMARK    2  A    between atoms: C_1  and  N_8
REMARK    3  A    between atoms: C_1  and  C_12
REMARK    4  A    between atoms: N_3  and  O_6
REMARK    5  A    between atoms: C_12  and  C_14
REMARK                            x       y       z     vdW  Elec       q    Type
REMARK                         _______ _______ _______ _____ _____    ______ ____
ROOT
ATOM      1  C   UNL     1      35.257 -22.741 -16.013  0.00  0.00    +0.019 C 
ENDROOT
BRANCH   1   4
ATOM      2  O   UNL     1      36.276 -24.873 -15.484  0.00  0.00    -0.275 OA
ATOM      3  N   UNL     1      37.646 -23.057 -15.883  0.00  0.00    -0.199 N 
ATOM      4  C   UNL     1      36.429 -23.682 -15.753  0.00  0.00    +0.224 C 
ATOM      5  H   UNL     1      37.720 -22.099 -16.100  0.00  0.00    +0.182 HD
BRANCH   3   6
ATOM      6  O   UNL     1      38.773 -23.865 -15.686  0.00  0.00    -0.295 OA
ATOM      7  H   UNL     1      39.221 -24.007 -16.535  0.00  0.00    +0.241 HD
ENDBRANCH   3   6
ENDBRANCH   1   4
BRANCH   1   8
ATOM      8  N   UNL     1      34.404 -22.770 -14.825  0.00  0.00    +0.388 N 
ATOM      9  H   UNL     1      34.174 -23.736 -14.595  0.00  0.00    -0.089 HD
ATOM     10  H   UNL     1      33.545 -22.251 -15.009  0.00  0.00    -0.089 HD
ATOM     11  H   UNL     1      34.897 -22.342 -14.041  0.00  0.00    -0.089 HD
ENDBRANCH   1   8
BRANCH   1  12
ATOM     12  C   UNL     1      34.452 -23.194 -17.240  0.00  0.00    +0.013 C 
BRANCH  12  14
ATOM     13  I   UNL     1      34.782 -19.066 -22.065  0.00  0.00    -0.043 I 
ATOM     14  C   UNL     1      34.529 -22.213 -18.387  0.00  0.00    -0.024 C 
ATOM     15  C   UNL     1      33.359 -21.759 -18.972  0.00  0.00    -0.004 C 
ATOM     16  C   UNL     1      35.771 -21.786 -18.829  0.00  0.00    -0.004 C 
ATOM     17  C   UNL     1      33.432 -20.853 -20.030  0.00  0.00    +0.005 C 
ATOM     18  C   UNL     1      35.843 -20.880 -19.888  0.00  0.00    +0.005 C 
ATOM     19  C   UNL     1      34.674 -20.414 -20.488  0.00  0.00    +0.030 C 
ENDBRANCH  12  14
ENDBRANCH   1  12
TORSDOF 5
ENDMDL
MODEL 4
REMARK VINA RESULT:      -7.3      1.390      2.060
REMARK  Name = 5288643
REMARK  5 active torsions:
REMARK  status: ('A' for Active; 'I' for Inactive)
REMARK    1  A    between atoms: C_1  and  C_4
REMARK    2  A    between atoms: C_1  and  N_8
REMARK    3  A    between atoms: C_1  and  C_12
REMARK    4  A    between atoms: N_3  and  O_6
REMARK    5  A    between atoms: C_12  and  C_14
REMARK                            x       y       z     vdW  Elec       q    Type
REMARK                         _______ _______ _______ _____ _____    ______ ____
ROOT
ATOM      1  C   UNL     1      34.452 -16.716 -22.990  0.00  0.00    +0.019 C 
ENDROOT
BRANCH   1   4
ATOM      2  O   UNL     1      34.832 -17.707 -25.167  0.00  0.00    -0.275 OA
ATOM      3  N   UNL     1      33.791 -15.649 -25.051  0.00  0.00    -0.199 N 
ATOM      4  C   UNL     1      34.397 -16.759 -24.515  0.00  0.00    +0.224 C 
ATOM      5  H   UNL     1      33.457 -14.913 -24.489  0.00  0.00    +0.182 HD
BRANCH   3   6
ATOM      6  O   UNL     1      33.677 -15.628 -26.447  0.00  0.00    -0.295 OA
ATOM      7  H   UNL     1      34.466 -16.031 -26.842  0.00  0.00    +0.241 HD
ENDBRANCH   3   6
ENDBRANCH   1   4
BRANCH   1   8
ATOM      8  N   UNL     1      34.584 -15.312 -22.599  0.00  0.00    +0.388 N 
ATOM      9  H   UNL     1      33.659 -14.888 -22.538  0.00  0.00    -0.089 HD
ATOM     10  H   UNL     1      35.140 -14.816 -23.296  0.00  0.00    -0.089 HD
ATOM     11  H   UNL     1      35.046 -15.253 -21.691  0.00  0.00    -0.089 HD
ENDBRANCH   1   8
BRANCH   1  12
ATOM     12  C   UNL     1      35.652 -17.516 -22.463  0.00  0.00    +0.013 C 
BRANCH  12  14
ATOM     13  I   UNL     1      33.929 -22.432 -18.816  0.00  0.00    -0.043 I 
ATOM     14  C   UNL     1      35.242 -18.685 -21.597  0.00  0.00    -0.024 C 
ATOM     15  C   UNL     1      33.896 -18.969 -21.435  0.00  0.00    -0.004 C 
ATOM     16  C   UNL     1      36.221 -19.448 -20.982  0.00  0.00    -0.004 C 
ATOM     17  C   UNL     1      33.518 -20.049 -20.635  0.00  0.00    +0.005 C 
ATOM     18  C   UNL     1      35.843 -20.526 -20.182  0.00  0.00    +0.005 C 
ATOM     19  C   UNL     1      34.492 -20.826 -20.008  0.00  0.00    +0.030 C 
ENDBRANCH  12  14
ENDBRANCH   1  12
TORSDOF 5
ENDMDL
MODEL 5
REMARK VINA RESULT:      -7.3      1.745      2.420
REMARK  Name = 5288643
REMARK  5 active torsions:
REMARK  status: ('A' for Active; 'I' for Inactive)
REMARK    1  A    between atoms: C_1  and  C_4
REMARK    2  A    between atoms: C_1  and  N_8
REMARK    3  A    between atoms: C_1  and  C_12
REMARK    4  A    between atoms: N_3  and  O_6
REMARK    5  A    between atoms: C_12  and  C_14
REMARK                            x       y       z     vdW  Elec       q    Type
REMARK                         _______ _______ _______ _____ _____    ______ ____
ROOT
ATOM      1  C   UNL     1      35.434 -17.802 -21.871  0.00  0.00    +0.019 C 
ENDROOT
BRANCH   1   4
ATOM      2  O   UNL     1      35.009 -16.190 -20.115  0.00  0.00    -0.275 OA
ATOM      3  N   UNL     1      34.579 -15.587 -22.302  0.00  0.00    -0.199 N 
ATOM      4  C   UNL     1      34.982 -16.455 -21.316  0.00  0.00    +0.224 C 
ATOM      5  H   UNL     1      34.574 -15.843 -23.253  0.00  0.00    +0.182 HD
BRANCH   3   6
ATOM      6  O   UNL     1      34.175 -14.316 -21.872  0.00  0.00    -0.295 OA
ATOM      7  H   UNL     1      34.894 -13.902 -21.368  0.00  0.00    +0.241 HD
ENDBRANCH   3   6
ENDBRANCH   1   4
BRANCH   1   8
ATOM      8  N   UNL     1      36.092 -17.546 -23.153  0.00  0.00    +0.388 N 
ATOM      9  H   UNL     1      36.646 -16.692 -23.085  0.00  0.00    -0.089 HD
ATOM     10  H   UNL     1      35.386 -17.436 -23.881  0.00  0.00    -0.089 HD
ATOM     11  H   UNL     1      36.701 -18.330 -23.386  0.00  0.00    -0.089 HD
ENDBRANCH   1   8
BRANCH   1  12
ATOM     12  C   UNL     1      34.235 -18.738 -22.081  0.00  0.00    +0.013 C 
BRANCH  12  14
ATOM     13  I   UNL     1      33.769 -23.192 -17.567  0.00  0.00    -0.043 I 
ATOM     14  C   UNL     1      34.123 -19.797 -21.009  0.00  0.00    -0.024 C 
ATOM     15  C   UNL     1      32.875 -20.125 -20.507  0.00  0.00    -0.004 C 
ATOM     16  C   UNL     1      35.273 -20.418 -20.549  0.00  0.00    -0.004 C 
ATOM     17  C   UNL     1      32.773 -21.103 -19.517  0.00  0.00    +0.005 C 
ATOM     18  C   UNL     1      35.170 -21.395 -19.558  0.00  0.00    +0.005 C 
ATOM     19  C   UNL     1      33.921 -21.737 -19.043  0.00  0.00    +0.030 C 
ENDBRANCH  12  14
ENDBRANCH   1  12
TORSDOF 5
ENDMDL
MODEL 6
REMARK VINA RESULT:      -7.3      6.027      7.383
REMARK  Name = 5288643
REMARK  5 active torsions:
REMARK  status: ('A' for Active; 'I' for Inactive)
REMARK    1  A    between atoms: C_1  and  C_4
REMARK    2  A    between atoms: C_1  and  N_8
REMARK    3  A    between atoms: C_1  and  C_12
REMARK    4  A    between atoms: N_3  and  O_6
REMARK    5  A    between atoms: C_12  and  C_14
REMARK                            x       y       z     vdW  Elec       q    Type
REMARK                         _______ _______ _______ _____ _____    ______ ____
ROOT
ATOM      1  C   UNL     1      33.303 -22.854 -16.897  0.00  0.00    +0.019 C 
ENDROOT
BRANCH   1   4
ATOM      2  O   UNL     1      35.466 -23.750 -16.277  0.00  0.00    -0.275 OA
ATOM      3  N   UNL     1      34.105 -22.891 -14.621  0.00  0.00    -0.199 N 
ATOM      4  C   UNL     1      34.411 -23.228 -15.917  0.00  0.00    +0.224 C 
ATOM      5  H   UNL     1      33.247 -22.473 -14.379  0.00  0.00    +0.182 HD
BRANCH   3   6
ATOM      6  O   UNL     1      35.088 -23.178 -13.665  0.00  0.00    -0.295 OA
ATOM      7  H   UNL     1      35.332 -24.116 -13.724  0.00  0.00    +0.241 HD
ENDBRANCH   3   6
ENDBRANCH   1   4
BRANCH   1   8
ATOM      8  N   UNL     1      32.098 -23.575 -16.486  0.00  0.00    +0.388 N 
ATOM      9  H   UNL     1      31.274 -23.086 -16.835  0.00  0.00    -0.089 HD
ATOM     10  H   UNL     1      32.060 -23.622 -15.468  0.00  0.00    -0.089 HD
ATOM     11  H   UNL     1      32.120 -24.520 -16.870  0.00  0.00    -0.089 HD
ENDBRANCH   1   8
BRANCH   1  12
ATOM     12  C   UNL     1      33.682 -23.251 -18.331  0.00  0.00    +0.013 C 
BRANCH  12  14
ATOM     13  I   UNL     1      35.457 -18.278 -21.875  0.00  0.00    -0.043 I 
ATOM     14  C   UNL     1      34.105 -22.069 -19.173  0.00  0.00    -0.024 C 
ATOM     15  C   UNL     1      35.453 -21.837 -19.387  0.00  0.00    -0.004 C 
ATOM     16  C   UNL     1      33.134 -21.242 -19.715  0.00  0.00    -0.004 C 
ATOM     17  C   UNL     1      35.843 -20.746 -20.166  0.00  0.00    +0.005 C 
ATOM     18  C   UNL     1      33.524 -20.152 -20.492  0.00  0.00    +0.005 C 
ATOM     19  C   UNL     1      34.878 -19.904 -20.718  0.00  0.00    +0.030 C 
ENDBRANCH  12  14
ENDBRANCH   1  12
TORSDOF 5
ENDMDL
MODEL 7
REMARK VINA RESULT:      -7.0      8.467      9.500
REMARK  Name = 5288643
REMARK  5 active torsions:
REMARK  status: ('A' for Active; 'I' for Inactive)
REMARK    1  A    between atoms: C_1  and  C_4
REMARK    2  A    between atoms: C_1  and  N_8
REMARK    3  A    between atoms: C_1  and  C_12
REMARK    4  A    between atoms: N_3  and  O_6
REMARK    5  A    between atoms: C_12  and  C_14
REMARK                            x       y       z     vdW  Elec       q    Type
REMARK                         _______ _______ _______ _____ _____    ______ ____
ROOT
ATOM      1  C   UNL     1      29.405 -24.247 -15.728  0.00  0.00    +0.019 C 
ENDROOT
BRANCH   1   4
ATOM      2  O   UNL     1      27.750 -24.262 -17.496  0.00  0.00    -0.275 OA
ATOM      3  N   UNL     1      27.588 -22.663 -15.838  0.00  0.00    -0.199 N 
ATOM      4  C   UNL     1      28.172 -23.737 -16.466  0.00  0.00    +0.224 C 
ATOM      5  H   UNL     1      27.961 -22.275 -15.013  0.00  0.00    +0.182 HD
BRANCH   3   6
ATOM      6  O   UNL     1      26.431 -22.155 -16.442  0.00  0.00    -0.295 OA
ATOM      7  H   UNL     1      25.827 -21.824 -15.758  0.00  0.00    +0.241 HD
ENDBRANCH   3   6
ENDBRANCH   1   4
BRANCH   1   8
ATOM      8  N   UNL     1      28.939 -25.145 -14.671  0.00  0.00    +0.388 N 
ATOM      9  H   UNL     1      29.657 -25.844 -14.478  0.00  0.00    -0.089 HD
ATOM     10  H   UNL     1      28.084 -25.611 -14.973  0.00  0.00    -0.089 HD
ATOM     11  H   UNL     1      28.753 -24.607 -13.825  0.00  0.00    -0.089 HD
ENDBRANCH   1   8
BRANCH   1  12
ATOM     12  C   UNL     1      30.195 -23.084 -15.110  0.00  0.00    +0.013 C 
BRANCH  12  14
ATOM     13  I   UNL     1      36.448 -24.208 -14.859  0.00  0.00    -0.043 I 
ATOM     14  C   UNL     1      31.681 -23.350 -15.052  0.00  0.00    -0.024 C 
ATOM     15  C   UNL     1      32.441 -23.213 -16.201  0.00  0.00    -0.004 C 
ATOM     16  C   UNL     1      32.254 -23.727 -13.847  0.00  0.00    -0.004 C 
ATOM     17  C   UNL     1      33.813 -23.459 -16.146  0.00  0.00    +0.005 C 
ATOM     18  C   UNL     1      33.626 -23.973 -13.793  0.00  0.00    +0.005 C 
ATOM     19  C   UNL     1      34.405 -23.839 -14.942  0.00  0.00    +0.030 C 
ENDBRANCH  12  14
ENDBRANCH   1  12
TORSDOF 5
ENDMDL
MODEL 8
REMARK VINA RESULT:      -7.0      8.433      9.712
REMARK  Name = 5288643
REMARK  5 active torsions:
REMARK  status: ('A' for Active; 'I' for Inactive)
REMARK    1  A    between atoms: C_1  and  C_4
REMARK    2  A    between atoms: C_1  and  N_8
REMARK    3  A    between atoms: C_1  and  C_12
REMARK    4  A    between atoms: N_3  and  O_6
REMARK    5  A    between atoms: C_12  and  C_14
REMARK                            x       y       z     vdW  Elec       q    Type
REMARK                         _______ _______ _______ _____ _____    ______ ____
ROOT
ATOM      1  C   UNL     1      35.420 -24.333 -15.392  0.00  0.00    +0.019 C 
ENDROOT
BRANCH   1   4
ATOM      2  O   UNL     1      36.231 -26.588 -15.742  0.00  0.00    -0.275 OA
ATOM      3  N   UNL     1      36.257 -25.719 -13.603  0.00  0.00    -0.199 N 
ATOM      4  C   UNL     1      36.001 -25.673 -14.952  0.00  0.00    +0.224 C 
ATOM      5  H   UNL     1      36.057 -24.961 -13.007  0.00  0.00    +0.182 HD
BRANCH   3   6
ATOM      6  O   UNL     1      36.819 -26.910 -13.127  0.00  0.00    -0.295 OA
ATOM      7  H   UNL     1      36.216 -27.649 -13.310  0.00  0.00    +0.241 HD
ENDBRANCH   3   6
ENDBRANCH   1   4
BRANCH   1   8
ATOM      8  N   UNL     1      36.546 -23.437 -15.658  0.00  0.00    +0.388 N 
ATOM      9  H   UNL     1      36.252 -22.471 -15.519  0.00  0.00    -0.089 HD
ATOM     10  H   UNL     1      36.859 -23.561 -16.621  0.00  0.00    -0.089 HD
ATOM     11  H   UNL     1      37.313 -23.655 -15.021  0.00  0.00    -0.089 HD
ENDBRANCH   1   8
BRANCH   1  12
ATOM     12  C   UNL     1      34.530 -23.734 -14.293  0.00  0.00    +0.013 C 
BRANCH  12  14
ATOM     13  I   UNL     1      28.516 -22.900 -16.181  0.00  0.00    -0.043 I 
ATOM     14  C   UNL     1      33.101 -23.535 -14.741  0.00  0.00    -0.024 C 
ATOM     15  C   UNL     1      32.087 -23.549 -13.798  0.00  0.00    -0.004 C 
ATOM     16  C   UNL     1      32.834 -23.343 -16.087  0.00  0.00    -0.004 C 
ATOM     17  C   UNL     1      30.767 -23.365 -14.212  0.00  0.00    +0.005 C 
ATOM     18  C   UNL     1      31.514 -23.160 -16.500  0.00  0.00    +0.005 C 
ATOM     19  C   UNL     1      30.481 -23.171 -15.563  0.00  0.00    +0.030 C 
ENDBRANCH  12  14
ENDBRANCH   1  12
TORSDOF 5
ENDMDL
MODEL 9
REMARK VINA RESULT:      -6.8      8.790      9.914
REMARK  Name = 5288643
REMARK  5 active torsions:
REMARK  status: ('A' for Active; 'I' for Inactive)
REMARK    1  A    between atoms: C_1  and  C_4
REMARK    2  A    between atoms: C_1  and  N_8
REMARK    3  A    between atoms: C_1  and  C_12
REMARK    4  A    between atoms: N_3  and  O_6
REMARK    5  A    between atoms: C_12  and  C_14
REMARK                            x       y       z     vdW  Elec       q    Type
REMARK                         _______ _______ _______ _____ _____    ______ ____
ROOT
ATOM      1  C   UNL     1      36.735 -25.617 -14.337  0.00  0.00    +0.019 C 
ENDROOT
BRANCH   1   4
ATOM      2  O   UNL     1      38.819 -26.180 -13.239  0.00  0.00    -0.275 OA
ATOM      3  N   UNL     1      38.871 -25.546 -15.459  0.00  0.00    -0.199 N 
ATOM      4  C   UNL     1      38.247 -25.807 -14.263  0.00  0.00    +0.224 C 
ATOM      5  H   UNL     1      38.371 -25.250 -16.254  0.00  0.00    +0.182 HD
BRANCH   3   6
ATOM      6  O   UNL     1      40.260 -25.727 -15.477  0.00  0.00    -0.295 OA
ATOM      7  H   UNL     1      40.544 -25.956 -16.376  0.00  0.00    +0.241 HD
ENDBRANCH   3   6
ENDBRANCH   1   4
BRANCH   1   8
ATOM      8  N   UNL     1      36.201 -26.695 -15.170  0.00  0.00    +0.388 N 
ATOM      9  H   UNL     1      36.597 -27.585 -14.867  0.00  0.00    -0.089 HD
ATOM     10  H   UNL     1      36.449 -26.526 -16.145  0.00  0.00    -0.089 HD
ATOM     11  H   UNL     1      35.186 -26.725 -15.078  0.00  0.00    -0.089 HD
ENDBRANCH   1   8
BRANCH   1  12
ATOM     12  C   UNL     1      36.384 -24.258 -14.960  0.00  0.00    +0.013 C 
BRANCH  12  14
ATOM     13  I   UNL     1      30.120 -23.191 -15.182  0.00  0.00    -0.043 I 
ATOM     14  C   UNL     1      34.896 -24.004 -15.011  0.00  0.00    -0.024 C 
ATOM     15  C   UNL     1      34.134 -24.202 -13.872  0.00  0.00    -0.004 C 
ATOM     16  C   UNL     1      34.323 -23.578 -16.199  0.00  0.00    -0.004 C 
ATOM     17  C   UNL     1      32.759 -23.967 -13.921  0.00  0.00    +0.005 C 
ATOM     18  C   UNL     1      32.948 -23.344 -16.247  0.00  0.00    +0.005 C 
ATOM     19  C   UNL     1      32.167 -23.539 -15.109  0.00  0.00    +0.030 C 
ENDBRANCH  12  14
ENDBRANCH   1  12
TORSDOF 5
ENDMDL
