MODEL 1
REMARK VINA RESULT:     -10.6      0.000      0.000
REMARK  Name = 2802
REMARK  2 active torsions:
REMARK  status: ('A' for Active; 'I' for Inactive)
REMARK    1  A    between atoms: C_6  and  C_15
REMARK    2  A    between atoms: C_10  and  N_23
REMARK                            x       y       z     vdW  Elec       q    Type
REMARK                         _______ _______ _______ _____ _____    ______ ____
ROOT
ATOM      1  O   UNL     1      36.345 -24.141 -12.594  0.00  0.00    -0.273 OA
ATOM      2  N   UNL     1      34.216 -23.527 -13.172  0.00  0.00    -0.282 N 
ATOM      3  N   UNL     1      35.562 -24.314 -15.758  0.00  0.00    -0.260 NA
ATOM      4  C   UNL     1      33.227 -23.570 -15.457  0.00  0.00    +0.032 C 
ATOM      5  C   UNL     1      33.127 -23.432 -14.063  0.00  0.00    +0.052 C 
ATOM      6  C   UNL     1      34.546 -23.629 -16.158  0.00  0.00    +0.079 C 
ATOM      7  C   UNL     1      32.062 -23.537 -16.243  0.00  0.00    +0.027 C 
ATOM      8  C   UNL     1      31.875 -23.157 -13.492  0.00  0.00    +0.016 C 
ATOM      9  C   UNL     1      35.436 -25.129 -14.568  0.00  0.00    +0.210 C 
ATOM     10  C   UNL     1      30.818 -23.313 -15.654  0.00  0.00    +0.143 C 
ATOM     11  C   UNL     1      35.395 -24.210 -13.376  0.00  0.00    +0.251 C 
ATOM     12  C   UNL     1      30.727 -23.105 -14.282  0.00  0.00    +0.025 C 
ATOM     13  H   UNL     1      34.124 -23.055 -12.313  0.00  0.00    +0.155 HD
ENDROOT
BRANCH   6  15
ATOM     14 CL   UNL     1      37.200 -22.083 -16.479  0.00  0.00    -0.082 Cl
ATOM     15  C   UNL     1      34.737 -22.816 -17.393  0.00  0.00    +0.028 C 
ATOM     16  C   UNL     1      35.902 -22.090 -17.617  0.00  0.00    +0.059 C 
ATOM     17  C   UNL     1      33.705 -22.803 -18.327  0.00  0.00    +0.002 C 
ATOM     18  C   UNL     1      36.037 -21.343 -18.787  0.00  0.00    +0.011 C 
ATOM     19  C   UNL     1      33.841 -22.056 -19.497  0.00  0.00    +0.000 C 
ATOM     20  C   UNL     1      35.006 -21.327 -19.727  0.00  0.00    +0.001 C 
ENDBRANCH   6  15
BRANCH  10  23
ATOM     21  O   UNL     1      29.459 -22.270 -17.198  0.00  0.00    -0.126 OA
ATOM     22  O   UNL     1      28.837 -24.222 -16.407  0.00  0.00    -0.126 OA
ATOM     23  N   UNL     1      29.649 -23.265 -16.458  0.00  0.00    +0.058 N 
ENDBRANCH  10  23
TORSDOF 2
ENDMDL
MODEL 2
REMARK VINA RESULT:     -10.4      2.627      4.698
REMARK  Name = 2802
REMARK  2 active torsions:
REMARK  status: ('A' for Active; 'I' for Inactive)
REMARK    1  A    between atoms: C_6  and  C_15
REMARK    2  A    between atoms: C_10  and  N_23
REMARK                            x       y       z     vdW  Elec       q    Type
REMARK                         _______ _______ _______ _____ _____    ______ ____
ROOT
ATOM      1  O   UNL     1      36.898 -21.716 -19.108  0.00  0.00    -0.273 OA
ATOM      2  N   UNL     1      34.966 -22.522 -18.180  0.00  0.00    -0.282 N 
ATOM      3  N   UNL     1      37.018 -22.596 -15.967  0.00  0.00    -0.260 NA
ATOM      4  C   UNL     1      34.640 -23.243 -15.819  0.00  0.00    +0.032 C 
ATOM      5  C   UNL     1      34.155 -22.920 -17.097  0.00  0.00    +0.052 C 
ATOM      6  C   UNL     1      36.100 -23.392 -15.536  0.00  0.00    +0.079 C 
ATOM      7  C   UNL     1      33.733 -23.549 -14.791  0.00  0.00    +0.027 C 
ATOM      8  C   UNL     1      32.778 -23.016 -17.350  0.00  0.00    +0.016 C 
ATOM      9  C   UNL     1      36.636 -21.441 -16.751  0.00  0.00    +0.210 C 
ATOM     10  C   UNL     1      32.362 -23.592 -15.046  0.00  0.00    +0.143 C 
ATOM     11  C   UNL     1      36.204 -21.922 -18.111  0.00  0.00    +0.251 C 
ATOM     12  C   UNL     1      31.887 -23.342 -16.329  0.00  0.00    +0.025 C 
ATOM     13  H   UNL     1      34.609 -22.689 -19.083  0.00  0.00    +0.155 HD
ENDROOT
BRANCH   6  15
ATOM     14 CL   UNL     1      36.880 -22.900 -12.589  0.00  0.00    -0.082 Cl
ATOM     15  C   UNL     1      36.556 -24.559 -14.730  0.00  0.00    +0.028 C 
ATOM     16  C   UNL     1      36.925 -24.426 -13.395  0.00  0.00    +0.059 C 
ATOM     17  C   UNL     1      36.602 -25.801 -15.355  0.00  0.00    +0.002 C 
ATOM     18  C   UNL     1      37.345 -25.546 -12.678  0.00  0.00    +0.011 C 
ATOM     19  C   UNL     1      37.023 -26.922 -14.638  0.00  0.00    +0.000 C 
ATOM     20  C   UNL     1      37.394 -26.794 -13.300  0.00  0.00    +0.001 C 
ENDBRANCH   6  15
BRANCH  10  23
ATOM     21  O   UNL     1      30.370 -23.294 -13.924  0.00  0.00    -0.126 OA
ATOM     22  O   UNL     1      31.763 -24.825 -13.191  0.00  0.00    -0.126 OA
ATOM     23  N   UNL     1      31.455 -23.919 -14.004  0.00  0.00    +0.058 N 
ENDBRANCH  10  23
TORSDOF 2
ENDMDL
MODEL 3
REMARK VINA RESULT:     -10.4     14.631     16.660
REMARK  Name = 2802
REMARK  2 active torsions:
REMARK  status: ('A' for Active; 'I' for Inactive)
REMARK    1  A    between atoms: C_6  and  C_15
REMARK    2  A    between atoms: C_10  and  N_23
REMARK                            x       y       z     vdW  Elec       q    Type
REMARK                         _______ _______ _______ _____ _____    ______ ____
ROOT
ATOM      1  O   UNL     1      32.298 -10.044 -18.622  0.00  0.00    -0.273 OA
ATOM      2  N   UNL     1      32.284  -8.187 -19.962  0.00  0.00    -0.282 N 
ATOM      3  N   UNL     1      32.157 -10.545 -21.844  0.00  0.00    -0.260 NA
ATOM      4  C   UNL     1      32.132  -8.150 -22.448  0.00  0.00    +0.032 C 
ATOM      5  C   UNL     1      32.117  -7.519 -21.193  0.00  0.00    +0.052 C 
ATOM      6  C   UNL     1      32.534  -9.581 -22.614  0.00  0.00    +0.079 C 
ATOM      7  C   UNL     1      31.875  -7.398 -23.606  0.00  0.00    +0.027 C 
ATOM      8  C   UNL     1      31.952  -6.127 -21.130  0.00  0.00    +0.016 C 
ATOM      9  C   UNL     1      31.248 -10.261 -20.755  0.00  0.00    +0.210 C 
ATOM     10  C   UNL     1      31.663  -6.022 -23.522  0.00  0.00    +0.143 C 
ATOM     11  C   UNL     1      32.009  -9.511 -19.695  0.00  0.00    +0.251 C 
ATOM     12  C   UNL     1      31.718  -5.384 -22.288  0.00  0.00    +0.025 C 
ATOM     13  H   UNL     1      32.632  -7.651 -19.214  0.00  0.00    +0.155 HD
ENDROOT
BRANCH   6  15
ATOM     14 CL   UNL     1      34.926  -7.704 -23.155  0.00  0.00    -0.082 Cl
ATOM     15  C   UNL     1      33.465  -9.938 -23.721  0.00  0.00    +0.028 C 
ATOM     16  C   UNL     1      34.568  -9.149 -24.031  0.00  0.00    +0.059 C 
ATOM     17  C   UNL     1      33.200 -11.097 -24.444  0.00  0.00    +0.002 C 
ATOM     18  C   UNL     1      35.414  -9.521 -25.076  0.00  0.00    +0.011 C 
ATOM     19  C   UNL     1      34.045 -11.470 -25.488  0.00  0.00    +0.000 C 
ATOM     20  C   UNL     1      35.152 -10.682 -25.804  0.00  0.00    +0.001 C 
ENDBRANCH   6  15
BRANCH  10  23
ATOM     21  O   UNL     1      30.425  -4.504 -24.739  0.00  0.00    -0.126 OA
ATOM     22  O   UNL     1      32.208  -5.383 -25.670  0.00  0.00    -0.126 OA
ATOM     23  N   UNL     1      31.420  -5.267 -24.700  0.00  0.00    +0.058 N 
ENDBRANCH  10  23
TORSDOF 2
ENDMDL
MODEL 4
REMARK VINA RESULT:      -9.6     13.745     15.923
REMARK  Name = 2802
REMARK  2 active torsions:
REMARK  status: ('A' for Active; 'I' for Inactive)
REMARK    1  A    between atoms: C_6  and  C_15
REMARK    2  A    between atoms: C_10  and  N_23
REMARK                            x       y       z     vdW  Elec       q    Type
REMARK                         _______ _______ _______ _____ _____    ______ ____
ROOT
ATOM      1  O   UNL     1      30.475 -10.458 -18.990  0.00  0.00    -0.273 OA
ATOM      2  N   UNL     1      31.178 -11.298 -21.001  0.00  0.00    -0.282 N 
ATOM      3  N   UNL     1      32.272  -8.487 -20.872  0.00  0.00    -0.260 NA
ATOM      4  C   UNL     1      32.599 -10.134 -22.682  0.00  0.00    +0.032 C 
ATOM      5  C   UNL     1      31.958 -11.276 -22.176  0.00  0.00    +0.052 C 
ATOM      6  C   UNL     1      32.347  -8.769 -22.128  0.00  0.00    +0.079 C 
ATOM      7  C   UNL     1      33.418 -10.246 -23.818  0.00  0.00    +0.027 C 
ATOM      8  C   UNL     1      32.061 -12.486 -22.879  0.00  0.00    +0.016 C 
ATOM      9  C   UNL     1      32.482  -9.540 -19.902  0.00  0.00    +0.210 C 
ATOM     10  C   UNL     1      33.551 -11.467 -24.477  0.00  0.00    +0.143 C 
ATOM     11  C   UNL     1      31.278 -10.443 -19.925  0.00  0.00    +0.251 C 
ATOM     12  C   UNL     1      32.860 -12.583 -24.018  0.00  0.00    +0.025 C 
ATOM     13  H   UNL     1      30.488 -11.999 -20.943  0.00  0.00    +0.155 HD
ENDROOT
BRANCH   6  15
ATOM     14 CL   UNL     1      34.833  -7.340 -23.277  0.00  0.00    -0.082 Cl
ATOM     15  C   UNL     1      32.129  -7.641 -23.077  0.00  0.00    +0.028 C 
ATOM     16  C   UNL     1      33.192  -6.945 -23.642  0.00  0.00    +0.059 C 
ATOM     17  C   UNL     1      30.816  -7.301 -23.389  0.00  0.00    +0.002 C 
ATOM     18  C   UNL     1      32.940  -5.895 -24.526  0.00  0.00    +0.011 C 
ATOM     19  C   UNL     1      30.564  -6.252 -24.273  0.00  0.00    +0.000 C 
ATOM     20  C   UNL     1      31.626  -5.550 -24.842  0.00  0.00    +0.001 C 
ENDBRANCH   6  15
BRANCH  10  23
ATOM     21  O   UNL     1      34.091 -12.427 -26.504  0.00  0.00    -0.126 OA
ATOM     22  O   UNL     1      35.347 -10.788 -25.755  0.00  0.00    -0.126 OA
ATOM     23  N   UNL     1      34.369 -11.566 -25.634  0.00  0.00    +0.058 N 
ENDBRANCH  10  23
TORSDOF 2
ENDMDL
MODEL 5
REMARK VINA RESULT:      -9.6     14.249     16.293
REMARK  Name = 2802
REMARK  2 active torsions:
REMARK  status: ('A' for Active; 'I' for Inactive)
REMARK    1  A    between atoms: C_6  and  C_15
REMARK    2  A    between atoms: C_10  and  N_23
REMARK                            x       y       z     vdW  Elec       q    Type
REMARK                         _______ _______ _______ _____ _____    ______ ____
ROOT
ATOM      1  O   UNL     1      32.107 -10.364 -18.403  0.00  0.00    -0.273 OA
ATOM      2  N   UNL     1      32.173  -8.472 -19.691  0.00  0.00    -0.282 N 
ATOM      3  N   UNL     1      31.999 -10.772 -21.640  0.00  0.00    -0.260 NA
ATOM      4  C   UNL     1      32.060  -8.362 -22.176  0.00  0.00    +0.032 C 
ATOM      5  C   UNL     1      32.047  -7.765 -20.905  0.00  0.00    +0.052 C 
ATOM      6  C   UNL     1      32.417  -9.800 -22.377  0.00  0.00    +0.079 C 
ATOM      7  C   UNL     1      31.845  -7.570 -23.317  0.00  0.00    +0.027 C 
ATOM      8  C   UNL     1      31.926  -6.371 -20.806  0.00  0.00    +0.016 C 
ATOM      9  C   UNL     1      31.083 -10.488 -20.556  0.00  0.00    +0.210 C 
ATOM     10  C   UNL     1      31.676  -6.191 -23.198  0.00  0.00    +0.143 C 
ATOM     11  C   UNL     1      31.852  -9.792 -19.464  0.00  0.00    +0.251 C 
ATOM     12  C   UNL     1      31.734  -5.590 -21.946  0.00  0.00    +0.025 C 
ATOM     13  H   UNL     1      32.528  -7.968 -18.923  0.00  0.00    +0.155 HD
ENDROOT
BRANCH   6  15
ATOM     14 CL   UNL     1      32.264 -12.657 -23.538  0.00  0.00    -0.082 Cl
ATOM     15  C   UNL     1      33.353 -10.157 -23.480  0.00  0.00    +0.028 C 
ATOM     16  C   UNL     1      33.350 -11.421 -24.061  0.00  0.00    +0.059 C 
ATOM     17  C   UNL     1      34.240  -9.180 -23.920  0.00  0.00    +0.002 C 
ATOM     18  C   UNL     1      34.244 -11.712 -25.091  0.00  0.00    +0.011 C 
ATOM     19  C   UNL     1      35.134  -9.469 -24.951  0.00  0.00    +0.000 C 
ATOM     20  C   UNL     1      35.136 -10.735 -25.536  0.00  0.00    +0.001 C 
ENDBRANCH   6  15
BRANCH  10  23
ATOM     21  O   UNL     1      30.489  -4.623 -24.402  0.00  0.00    -0.126 OA
ATOM     22  O   UNL     1      32.292  -5.490 -25.307  0.00  0.00    -0.126 OA
ATOM     23  N   UNL     1      31.475  -5.396 -24.358  0.00  0.00    +0.058 N 
ENDBRANCH  10  23
TORSDOF 2
ENDMDL
MODEL 6
REMARK VINA RESULT:      -9.2     13.629     16.189
REMARK  Name = 2802
REMARK  2 active torsions:
REMARK  status: ('A' for Active; 'I' for Inactive)
REMARK    1  A    between atoms: C_6  and  C_15
REMARK    2  A    between atoms: C_10  and  N_23
REMARK                            x       y       z     vdW  Elec       q    Type
REMARK                         _______ _______ _______ _____ _____    ______ ____
ROOT
ATOM      1  O   UNL     1      32.808  -5.268 -24.124  0.00  0.00    -0.273 OA
ATOM      2  N   UNL     1      33.779  -7.326 -24.379  0.00  0.00    -0.282 N 
ATOM      3  N   UNL     1      31.214  -7.823 -22.866  0.00  0.00    -0.260 NA
ATOM      4  C   UNL     1      32.858  -9.509 -23.612  0.00  0.00    +0.032 C 
ATOM      5  C   UNL     1      33.783  -8.736 -24.333  0.00  0.00    +0.052 C 
ATOM      6  C   UNL     1      31.891  -8.899 -22.648  0.00  0.00    +0.079 C 
ATOM      7  C   UNL     1      32.906 -10.910 -23.703  0.00  0.00    +0.027 C 
ATOM      8  C   UNL     1      34.805  -9.381 -25.045  0.00  0.00    +0.016 C 
ATOM      9  C   UNL     1      31.347  -7.156 -24.143  0.00  0.00    +0.210 C 
ATOM     10  C   UNL     1      33.899 -11.536 -24.455  0.00  0.00    +0.143 C 
ATOM     11  C   UNL     1      32.698  -6.494 -24.186  0.00  0.00    +0.251 C 
ATOM     12  C   UNL     1      34.858 -10.773 -25.111  0.00  0.00    +0.025 C 
ATOM     13  H   UNL     1      34.641  -6.890 -24.570  0.00  0.00    +0.155 HD
ENDROOT
BRANCH   6  15
ATOM     14 CL   UNL     1      32.975  -7.423 -20.162  0.00  0.00    -0.082 Cl
ATOM     15  C   UNL     1      31.706  -9.543 -21.317  0.00  0.00    +0.028 C 
ATOM     16  C   UNL     1      32.163  -8.947 -20.147  0.00  0.00    +0.059 C 
ATOM     17  C   UNL     1      31.055 -10.772 -21.277  0.00  0.00    +0.002 C 
ATOM     18  C   UNL     1      31.968  -9.586 -18.922  0.00  0.00    +0.011 C 
ATOM     19  C   UNL     1      30.860 -11.412 -20.053  0.00  0.00    +0.000 C 
ATOM     20  C   UNL     1      31.316 -10.819 -18.876  0.00  0.00    +0.001 C 
ENDBRANCH   6  15
BRANCH  10  23
ATOM     21  O   UNL     1      34.295 -13.602 -23.511  0.00  0.00    -0.126 OA
ATOM     22  O   UNL     1      33.644 -13.518 -25.607  0.00  0.00    -0.126 OA
ATOM     23  N   UNL     1      33.949 -12.954 -24.527  0.00  0.00    +0.058 N 
ENDBRANCH  10  23
TORSDOF 2
ENDMDL
MODEL 7
REMARK VINA RESULT:      -8.8     14.800     16.981
REMARK  Name = 2802
REMARK  2 active torsions:
REMARK  status: ('A' for Active; 'I' for Inactive)
REMARK    1  A    between atoms: C_6  and  C_15
REMARK    2  A    between atoms: C_10  and  N_23
REMARK                            x       y       z     vdW  Elec       q    Type
REMARK                         _______ _______ _______ _____ _____    ______ ____
ROOT
ATOM      1  O   UNL     1      31.411  -8.024 -19.232  0.00  0.00    -0.273 OA
ATOM      2  N   UNL     1      31.731  -9.431 -21.010  0.00  0.00    -0.282 N 
ATOM      3  N   UNL     1      33.347  -6.958 -21.633  0.00  0.00    -0.260 NA
ATOM      4  C   UNL     1      33.167  -9.008 -22.999  0.00  0.00    +0.032 C 
ATOM      5  C   UNL     1      32.376  -9.844 -22.194  0.00  0.00    +0.052 C 
ATOM      6  C   UNL     1      33.238  -7.530 -22.784  0.00  0.00    +0.079 C 
ATOM      7  C   UNL     1      33.829  -9.546 -24.115  0.00  0.00    +0.027 C 
ATOM      8  C   UNL     1      32.175 -11.177 -22.583  0.00  0.00    +0.016 C 
ATOM      9  C   UNL     1      33.451  -7.781 -20.447  0.00  0.00    +0.210 C 
ATOM     10  C   UNL     1      33.660 -10.886 -24.461  0.00  0.00    +0.143 C 
ATOM     11  C   UNL     1      32.101  -8.393 -20.183  0.00  0.00    +0.251 C 
ATOM     12  C   UNL     1      32.819 -11.697 -23.705  0.00  0.00    +0.025 C 
ATOM     13  H   UNL     1      30.931  -9.940 -20.744  0.00  0.00    +0.155 HD
ENDROOT
BRANCH   6  15
ATOM     14 CL   UNL     1      30.587  -6.011 -23.235  0.00  0.00    -0.082 Cl
ATOM     15  C   UNL     1      33.141  -6.630 -23.968  0.00  0.00    +0.028 C 
ATOM     16  C   UNL     1      31.985  -5.909 -24.245  0.00  0.00    +0.059 C 
ATOM     17  C   UNL     1      34.253  -6.529 -24.798  0.00  0.00    +0.002 C 
ATOM     18  C   UNL     1      31.939  -5.078 -25.364  0.00  0.00    +0.011 C 
ATOM     19  C   UNL     1      34.207  -5.699 -25.918  0.00  0.00    +0.000 C 
ATOM     20  C   UNL     1      33.051  -4.973 -26.200  0.00  0.00    +0.001 C 
ENDBRANCH   6  15
BRANCH  10  23
ATOM     21  O   UNL     1      33.904 -12.489 -26.101  0.00  0.00    -0.126 OA
ATOM     22  O   UNL     1      35.303 -10.797 -26.076  0.00  0.00    -0.126 OA
ATOM     23  N   UNL     1      34.320 -11.417 -25.600  0.00  0.00    +0.058 N 
ENDBRANCH  10  23
TORSDOF 2
ENDMDL
MODEL 8
REMARK VINA RESULT:      -8.8      2.736      5.654
REMARK  Name = 2802
REMARK  2 active torsions:
REMARK  status: ('A' for Active; 'I' for Inactive)
REMARK    1  A    between atoms: C_6  and  C_15
REMARK    2  A    between atoms: C_10  and  N_23
REMARK                            x       y       z     vdW  Elec       q    Type
REMARK                         _______ _______ _______ _____ _____    ______ ____
ROOT
ATOM      1  O   UNL     1      32.238 -24.935 -13.950  0.00  0.00    -0.273 OA
ATOM      2  N   UNL     1      34.353 -25.696 -14.386  0.00  0.00    -0.282 N 
ATOM      3  N   UNL     1      34.441 -22.721 -14.898  0.00  0.00    -0.260 NA
ATOM      4  C   UNL     1      36.313 -24.323 -15.076  0.00  0.00    +0.032 C 
ATOM      5  C   UNL     1      35.730 -25.524 -14.641  0.00  0.00    +0.052 C 
ATOM      6  C   UNL     1      35.492 -23.151 -15.510  0.00  0.00    +0.079 C 
ATOM      7  C   UNL     1      37.708 -24.242 -15.221  0.00  0.00    +0.027 C 
ATOM      8  C   UNL     1      36.543 -26.654 -14.464  0.00  0.00    +0.016 C 
ATOM      9  C   UNL     1      34.024 -23.374 -13.676  0.00  0.00    +0.210 C 
ATOM     10  C   UNL     1      38.509 -25.361 -14.993  0.00  0.00    +0.143 C 
ATOM     11  C   UNL     1      33.448 -24.718 -14.037  0.00  0.00    +0.251 C 
ATOM     12  C   UNL     1      37.925 -26.570 -14.632  0.00  0.00    +0.025 C 
ATOM     13  H   UNL     1      34.002 -26.612 -14.463  0.00  0.00    +0.155 HD
ENDROOT
BRANCH   6  15
ATOM     14 CL   UNL     1      33.662 -23.462 -17.978  0.00  0.00    -0.082 Cl
ATOM     15  C   UNL     1      35.875 -22.433 -16.758  0.00  0.00    +0.028 C 
ATOM     16  C   UNL     1      35.107 -22.518 -17.915  0.00  0.00    +0.059 C 
ATOM     17  C   UNL     1      37.035 -21.666 -16.736  0.00  0.00    +0.002 C 
ATOM     18  C   UNL     1      35.503 -21.829 -19.061  0.00  0.00    +0.011 C 
ATOM     19  C   UNL     1      37.432 -20.977 -17.882  0.00  0.00    +0.000 C 
ATOM     20  C   UNL     1      36.665 -21.058 -19.044  0.00  0.00    +0.001 C 
ENDBRANCH   6  15
BRANCH  10  23
ATOM     21  O   UNL     1      40.458 -25.904 -16.098  0.00  0.00    -0.126 OA
ATOM     22  O   UNL     1      40.580 -24.568 -14.360  0.00  0.00    -0.126 OA
ATOM     23  N   UNL     1      39.917 -25.274 -15.159  0.00  0.00    +0.058 N 
ENDBRANCH  10  23
TORSDOF 2
ENDMDL
MODEL 9
REMARK VINA RESULT:      -8.8     11.106     13.411
REMARK  Name = 2802
REMARK  2 active torsions:
REMARK  status: ('A' for Active; 'I' for Inactive)
REMARK    1  A    between atoms: C_6  and  C_15
REMARK    2  A    between atoms: C_10  and  N_23
REMARK                            x       y       z     vdW  Elec       q    Type
REMARK                         _______ _______ _______ _____ _____    ______ ____
ROOT
ATOM      1  O   UNL     1      34.478 -16.689 -25.928  0.00  0.00    -0.273 OA
ATOM      2  N   UNL     1      33.862 -15.744 -23.935  0.00  0.00    -0.282 N 
ATOM      3  N   UNL     1      33.463 -13.588 -26.011  0.00  0.00    -0.260 NA
ATOM      4  C   UNL     1      32.991 -13.437 -23.592  0.00  0.00    +0.032 C 
ATOM      5  C   UNL     1      33.270 -14.738 -23.144  0.00  0.00    +0.052 C 
ATOM      6  C   UNL     1      33.487 -12.924 -24.906  0.00  0.00    +0.079 C 
ATOM      7  C   UNL     1      32.323 -12.539 -22.742  0.00  0.00    +0.027 C 
ATOM      8  C   UNL     1      32.972 -15.082 -21.817  0.00  0.00    +0.016 C 
ATOM      9  C   UNL     1      32.884 -14.914 -26.022  0.00  0.00    +0.210 C 
ATOM     10  C   UNL     1      31.989 -12.913 -21.441  0.00  0.00    +0.143 C 
ATOM     11  C   UNL     1      33.830 -15.843 -25.309  0.00  0.00    +0.251 C 
ATOM     12  C   UNL     1      32.328 -14.177 -20.973  0.00  0.00    +0.025 C 
ATOM     13  H   UNL     1      34.351 -16.451 -23.455  0.00  0.00    +0.155 HD
ENDROOT
BRANCH   6  15
ATOM     14 CL   UNL     1      35.148 -12.174 -27.399  0.00  0.00    -0.082 Cl
ATOM     15  C   UNL     1      34.090 -11.562 -24.960  0.00  0.00    +0.028 C 
ATOM     16  C   UNL     1      34.851 -11.143 -26.046  0.00  0.00    +0.059 C 
ATOM     17  C   UNL     1      33.866 -10.711 -23.883  0.00  0.00    +0.002 C 
ATOM     18  C   UNL     1      35.397  -9.859 -26.054  0.00  0.00    +0.011 C 
ATOM     19  C   UNL     1      34.411  -9.427 -23.891  0.00  0.00    +0.000 C 
ATOM     20  C   UNL     1      35.176  -9.001 -24.976  0.00  0.00    +0.001 C 
ENDBRANCH   6  15
BRANCH  10  23
ATOM     21  O   UNL     1      31.728 -11.870 -19.401  0.00  0.00    -0.126 OA
ATOM     22  O   UNL     1      30.364 -11.327 -21.034  0.00  0.00    -0.126 OA
ATOM     23  N   UNL     1      31.329 -11.993 -20.583  0.00  0.00    +0.058 N 
ENDBRANCH  10  23
TORSDOF 2
ENDMDL
