MODEL 1
REMARK VINA RESULT:      -8.6      0.000      0.000
REMARK  Name = 6077
REMARK  5 active torsions:
REMARK  status: ('A' for Active; 'I' for Inactive)
REMARK    1  A    between atoms: N_2  and  C_18
REMARK    2  A    between atoms: C_9  and  C_16
REMARK    3  A    between atoms: C_18  and  C_19
REMARK    4  A    between atoms: C_19  and  C_20
REMARK    5  A    between atoms: C_20  and  N_21
REMARK                            x       y       z     vdW  Elec       q    Type
REMARK                         _______ _______ _______ _____ _____    ______ ____
ROOT
ATOM      1  S   UNL     1      33.383 -15.473 -26.063  0.00  0.00    -0.084 S 
ATOM      2  N   UNL     1      33.927 -14.702 -23.100  0.00  0.00    -0.286 N 
ATOM      3  C   UNL     1      33.833 -13.618 -24.010  0.00  0.00    +0.058 C 
ATOM      4  C   UNL     1      34.236 -16.039 -23.454  0.00  0.00    +0.058 C 
ATOM      5  C   UNL     1      33.612 -13.841 -25.384  0.00  0.00    +0.043 C 
ATOM      6  C   UNL     1      34.055 -16.502 -24.773  0.00  0.00    +0.043 C 
ATOM      7  C   UNL     1      33.991 -12.277 -23.596  0.00  0.00    +0.018 C 
ATOM      8  C   UNL     1      34.769 -16.956 -22.521  0.00  0.00    +0.015 C 
ATOM      9  C   UNL     1      33.909 -11.211 -24.494  0.00  0.00    +0.036 C 
ATOM     10  C   UNL     1      33.528 -12.764 -26.283  0.00  0.00    +0.008 C 
ATOM     11  C   UNL     1      34.370 -17.828 -25.120  0.00  0.00    +0.008 C 
ATOM     12  C   UNL     1      33.674 -11.454 -25.839  0.00  0.00    +0.003 C 
ATOM     13  C   UNL     1      35.085 -18.270 -22.873  0.00  0.00    +0.001 C 
ATOM     14  C   UNL     1      34.882 -18.708 -24.173  0.00  0.00    +0.001 C 
ENDROOT
BRANCH   9  16
ATOM     15  O   UNL     1      35.180  -9.288 -23.989  0.00  0.00    -0.291 OA
ATOM     16  C   UNL     1      34.064  -9.844 -24.019  0.00  0.00    +0.174 C 
ATOM     17  C   UNL     1      32.851  -9.055 -23.542  0.00  0.00    +0.077 C 
ENDBRANCH   9  16
BRANCH   2  18
ATOM     18  C   UNL     1      33.758 -14.402 -21.673  0.00  0.00    +0.093 C 
BRANCH  18  19
ATOM     19  C   UNL     1      32.328 -13.944 -21.383  0.00  0.00    -0.001 C 
BRANCH  19  20
ATOM     20  C   UNL     1      32.176 -13.088 -20.123  0.00  0.00    -0.076 C 
BRANCH  20  21
ATOM     21  N   UNL     1      31.925 -11.687 -20.441  0.00  0.00    +0.384 N 
ATOM     22  C   UNL     1      31.446 -10.968 -19.259  0.00  0.00    -0.101 C 
ATOM     23  C   UNL     1      30.957 -11.571 -21.533  0.00  0.00    -0.101 C 
ATOM     24  H   UNL     1      32.805 -11.267 -20.742  0.00  0.00    -0.080 HD
ENDBRANCH  20  21
ENDBRANCH  19  20
ENDBRANCH  18  19
ENDBRANCH   2  18
TORSDOF 5
ENDMDL
MODEL 2
REMARK VINA RESULT:      -8.5      3.819      7.140
REMARK  Name = 6077
REMARK  5 active torsions:
REMARK  status: ('A' for Active; 'I' for Inactive)
REMARK    1  A    between atoms: N_2  and  C_18
REMARK    2  A    between atoms: C_9  and  C_16
REMARK    3  A    between atoms: C_18  and  C_19
REMARK    4  A    between atoms: C_19  and  C_20
REMARK    5  A    between atoms: C_20  and  N_21
REMARK                            x       y       z     vdW  Elec       q    Type
REMARK                         _______ _______ _______ _____ _____    ______ ____
ROOT
ATOM      1  S   UNL     1      32.248  -7.603 -19.903  0.00  0.00    -0.084 S 
ATOM      2  N   UNL     1      32.238  -8.868 -22.743  0.00  0.00    -0.286 N 
ATOM      3  C   UNL     1      32.026  -7.466 -22.693  0.00  0.00    +0.058 C 
ATOM      4  C   UNL     1      32.012  -9.765 -21.670  0.00  0.00    +0.058 C 
ATOM      5  C   UNL     1      31.986  -6.781 -21.462  0.00  0.00    +0.043 C 
ATOM      6  C   UNL     1      31.969  -9.308 -20.337  0.00  0.00    +0.043 C 
ATOM      7  C   UNL     1      31.812  -6.700 -23.860  0.00  0.00    +0.018 C 
ATOM      8  C   UNL     1      31.783 -11.142 -21.882  0.00  0.00    +0.015 C 
ATOM      9  C   UNL     1      31.592  -5.321 -23.810  0.00  0.00    +0.036 C 
ATOM     10  C   UNL     1      31.768  -5.393 -21.418  0.00  0.00    +0.008 C 
ATOM     11  C   UNL     1      31.737 -10.202 -19.277  0.00  0.00    +0.008 C 
ATOM     12  C   UNL     1      31.573  -4.666 -22.587  0.00  0.00    +0.003 C 
ATOM     13  C   UNL     1      31.547 -12.025 -20.825  0.00  0.00    +0.001 C 
ATOM     14  C   UNL     1      31.527 -11.555 -19.520  0.00  0.00    +0.001 C 
ENDROOT
BRANCH   9  16
ATOM     15  O   UNL     1      30.395  -3.834 -25.196  0.00  0.00    -0.291 OA
ATOM     16  C   UNL     1      31.390  -4.570 -25.039  0.00  0.00    +0.174 C 
ATOM     17  C   UNL     1      32.401  -4.669 -26.175  0.00  0.00    +0.077 C 
ENDBRANCH   9  16
BRANCH   2  18
ATOM     18  C   UNL     1      32.662  -9.441 -24.027  0.00  0.00    +0.093 C 
BRANCH  18  19
ATOM     19  C   UNL     1      34.170  -9.689 -24.037  0.00  0.00    -0.001 C 
BRANCH  19  20
ATOM     20  C   UNL     1      34.623 -10.829 -24.954  0.00  0.00    -0.076 C 
BRANCH  20  21
ATOM     21  N   UNL     1      33.621 -11.885 -25.047  0.00  0.00    +0.384 N 
ATOM     22  C   UNL     1      33.910 -12.954 -24.089  0.00  0.00    -0.101 C 
ATOM     23  C   UNL     1      33.564 -12.424 -26.407  0.00  0.00    -0.101 C 
ATOM     24  H   UNL     1      32.712 -11.482 -24.819  0.00  0.00    -0.080 HD
ENDBRANCH  20  21
ENDBRANCH  19  20
ENDBRANCH  18  19
ENDBRANCH   2  18
TORSDOF 5
ENDMDL
MODEL 3
REMARK VINA RESULT:      -8.4      9.951     12.571
REMARK  Name = 6077
REMARK  5 active torsions:
REMARK  status: ('A' for Active; 'I' for Inactive)
REMARK    1  A    between atoms: N_2  and  C_18
REMARK    2  A    between atoms: C_9  and  C_16
REMARK    3  A    between atoms: C_18  and  C_19
REMARK    4  A    between atoms: C_19  and  C_20
REMARK    5  A    between atoms: C_20  and  N_21
REMARK                            x       y       z     vdW  Elec       q    Type
REMARK                         _______ _______ _______ _____ _____    ______ ____
ROOT
ATOM      1  S   UNL     1      37.676 -23.063 -15.558  0.00  0.00    -0.084 S 
ATOM      2  N   UNL     1      34.616 -23.608 -15.489  0.00  0.00    -0.286 N 
ATOM      3  C   UNL     1      35.089 -22.901 -16.624  0.00  0.00    +0.058 C 
ATOM      4  C   UNL     1      35.283 -23.687 -14.240  0.00  0.00    +0.058 C 
ATOM      5  C   UNL     1      36.453 -22.574 -16.758  0.00  0.00    +0.043 C 
ATOM      6  C   UNL     1      36.666 -23.436 -14.139  0.00  0.00    +0.043 C 
ATOM      7  C   UNL     1      34.221 -22.463 -17.647  0.00  0.00    +0.018 C 
ATOM      8  C   UNL     1      34.595 -23.980 -13.042  0.00  0.00    +0.015 C 
ATOM      9  C   UNL     1      34.686 -21.756 -18.760  0.00  0.00    +0.036 C 
ATOM     10  C   UNL     1      36.915 -21.866 -17.881  0.00  0.00    +0.008 C 
ATOM     11  C   UNL     1      37.321 -23.508 -12.897  0.00  0.00    +0.008 C 
ATOM     12  C   UNL     1      36.035 -21.460 -18.878  0.00  0.00    +0.003 C 
ATOM     13  C   UNL     1      35.250 -24.044 -11.810  0.00  0.00    +0.001 C 
ATOM     14  C   UNL     1      36.615 -23.811 -11.737  0.00  0.00    +0.001 C 
ENDROOT
BRANCH   9  16
ATOM     15  O   UNL     1      32.731 -21.999 -20.058  0.00  0.00    -0.291 OA
ATOM     16  C   UNL     1      33.756 -21.338 -19.797  0.00  0.00    +0.174 C 
ATOM     17  C   UNL     1      34.019 -20.068 -20.598  0.00  0.00    +0.077 C 
ENDBRANCH   9  16
BRANCH   2  18
ATOM     18  C   UNL     1      33.301 -24.254 -15.595  0.00  0.00    +0.093 C 
BRANCH  18  19
ATOM     19  C   UNL     1      32.196 -23.309 -15.126  0.00  0.00    -0.001 C 
BRANCH  19  20
ATOM     20  C   UNL     1      30.922 -23.346 -15.975  0.00  0.00    -0.076 C 
BRANCH  20  21
ATOM     21  N   UNL     1      29.746 -23.684 -15.180  0.00  0.00    +0.384 N 
ATOM     22  C   UNL     1      29.781 -25.092 -14.781  0.00  0.00    -0.101 C 
ATOM     23  C   UNL     1      28.520 -23.397 -15.926  0.00  0.00    -0.101 C 
ATOM     24  H   UNL     1      29.756 -23.108 -14.338  0.00  0.00    -0.080 HD
ENDBRANCH  20  21
ENDBRANCH  19  20
ENDBRANCH  18  19
ENDBRANCH   2  18
TORSDOF 5
ENDMDL
MODEL 4
REMARK VINA RESULT:      -8.1      2.033      4.318
REMARK  Name = 6077
REMARK  5 active torsions:
REMARK  status: ('A' for Active; 'I' for Inactive)
REMARK    1  A    between atoms: N_2  and  C_18
REMARK    2  A    between atoms: C_9  and  C_16
REMARK    3  A    between atoms: C_18  and  C_19
REMARK    4  A    between atoms: C_19  and  C_20
REMARK    5  A    between atoms: C_20  and  N_21
REMARK                            x       y       z     vdW  Elec       q    Type
REMARK                         _______ _______ _______ _____ _____    ______ ____
ROOT
ATOM      1  S   UNL     1      34.562 -16.485 -21.127  0.00  0.00    -0.084 S 
ATOM      2  N   UNL     1      33.683 -14.923 -23.667  0.00  0.00    -0.286 N 
ATOM      3  C   UNL     1      33.219 -14.400 -22.432  0.00  0.00    +0.058 C 
ATOM      4  C   UNL     1      34.098 -16.261 -23.882  0.00  0.00    +0.058 C 
ATOM      5  C   UNL     1      33.532 -15.033 -21.213  0.00  0.00    +0.043 C 
ATOM      6  C   UNL     1      34.498 -17.079 -22.805  0.00  0.00    +0.043 C 
ATOM      7  C   UNL     1      32.400 -13.252 -22.367  0.00  0.00    +0.018 C 
ATOM      8  C   UNL     1      34.098 -16.847 -25.166  0.00  0.00    +0.015 C 
ATOM      9  C   UNL     1      31.934 -12.744 -21.151  0.00  0.00    +0.036 C 
ATOM     10  C   UNL     1      33.064 -14.516 -19.993  0.00  0.00    +0.008 C 
ATOM     11  C   UNL     1      34.902 -18.408 -23.023  0.00  0.00    +0.008 C 
ATOM     12  C   UNL     1      32.269 -13.375 -19.962  0.00  0.00    +0.003 C 
ATOM     13  C   UNL     1      34.496 -18.170 -25.375  0.00  0.00    +0.001 C 
ATOM     14  C   UNL     1      34.902 -18.951 -24.304  0.00  0.00    +0.001 C 
ENDROOT
BRANCH   9  16
ATOM     15  O   UNL     1      30.568 -11.112 -22.168  0.00  0.00    -0.291 OA
ATOM     16  C   UNL     1      31.105 -11.550 -21.131  0.00  0.00    +0.174 C 
ATOM     17  C   UNL     1      30.872 -10.797 -19.826  0.00  0.00    +0.077 C 
ENDBRANCH   9  16
BRANCH   2  18
ATOM     18  C   UNL     1      33.667 -14.025 -24.829  0.00  0.00    +0.093 C 
BRANCH  18  19
ATOM     19  C   UNL     1      33.818 -12.569 -24.389  0.00  0.00    -0.001 C 
BRANCH  19  20
ATOM     20  C   UNL     1      34.119 -11.587 -25.525  0.00  0.00    -0.076 C 
BRANCH  20  21
ATOM     21  N   UNL     1      35.231 -10.701 -25.200  0.00  0.00    +0.384 N 
ATOM     22  C   UNL     1      34.781  -9.608 -24.334  0.00  0.00    -0.101 C 
ATOM     23  C   UNL     1      35.838 -10.165 -26.419  0.00  0.00    -0.101 C 
ATOM     24  H   UNL     1      35.934 -11.243 -24.698  0.00  0.00    -0.080 HD
ENDBRANCH  20  21
ENDBRANCH  19  20
ENDBRANCH  18  19
ENDBRANCH   2  18
TORSDOF 5
ENDMDL
MODEL 5
REMARK VINA RESULT:      -8.0     10.333     13.500
REMARK  Name = 6077
REMARK  5 active torsions:
REMARK  status: ('A' for Active; 'I' for Inactive)
REMARK    1  A    between atoms: N_2  and  C_18
REMARK    2  A    between atoms: C_9  and  C_16
REMARK    3  A    between atoms: C_18  and  C_19
REMARK    4  A    between atoms: C_19  and  C_20
REMARK    5  A    between atoms: C_20  and  N_21
REMARK                            x       y       z     vdW  Elec       q    Type
REMARK                         _______ _______ _______ _____ _____    ______ ____
ROOT
ATOM      1  S   UNL     1      35.712 -24.881 -12.606  0.00  0.00    -0.084 S 
ATOM      2  N   UNL     1      36.151 -23.212 -15.192  0.00  0.00    -0.286 N 
ATOM      3  C   UNL     1      34.801 -23.504 -14.871  0.00  0.00    +0.058 C 
ATOM      4  C   UNL     1      37.275 -23.945 -14.736  0.00  0.00    +0.058 C 
ATOM      5  C   UNL     1      34.475 -24.273 -13.736  0.00  0.00    +0.043 C 
ATOM      6  C   UNL     1      37.194 -24.759 -13.587  0.00  0.00    +0.043 C 
ATOM      7  C   UNL     1      33.729 -23.075 -15.683  0.00  0.00    +0.018 C 
ATOM      8  C   UNL     1      38.509 -23.927 -15.422  0.00  0.00    +0.015 C 
ATOM      9  C   UNL     1      32.399 -23.372 -15.372  0.00  0.00    +0.036 C 
ATOM     10  C   UNL     1      33.135 -24.566 -13.426  0.00  0.00    +0.008 C 
ATOM     11  C   UNL     1      38.310 -25.489 -13.143  0.00  0.00    +0.008 C 
ATOM     12  C   UNL     1      32.102 -24.116 -14.241  0.00  0.00    +0.003 C 
ATOM     13  C   UNL     1      39.613 -24.660 -14.979  0.00  0.00    +0.001 C 
ATOM     14  C   UNL     1      39.515 -25.439 -13.836  0.00  0.00    +0.001 C 
ENDROOT
BRANCH   9  16
ATOM     15  O   UNL     1      31.555 -22.453 -17.374  0.00  0.00    -0.291 OA
ATOM     16  C   UNL     1      31.326 -22.895 -16.231  0.00  0.00    +0.174 C 
ATOM     17  C   UNL     1      29.882 -22.925 -15.745  0.00  0.00    +0.077 C 
ENDBRANCH   9  16
BRANCH   2  18
ATOM     18  C   UNL     1      36.399 -22.105 -16.125  0.00  0.00    +0.093 C 
BRANCH  18  19
ATOM     19  C   UNL     1      35.883 -22.449 -17.522  0.00  0.00    -0.001 C 
BRANCH  19  20
ATOM     20  C   UNL     1      36.448 -21.575 -18.644  0.00  0.00    -0.076 C 
BRANCH  20  21
ATOM     21  N   UNL     1      35.565 -21.537 -19.804  0.00  0.00    +0.384 N 
ATOM     22  C   UNL     1      35.651 -20.237 -20.474  0.00  0.00    -0.101 C 
ATOM     23  C   UNL     1      34.183 -21.815 -19.411  0.00  0.00    -0.101 C 
ATOM     24  H   UNL     1      35.868 -22.259 -20.458  0.00  0.00    -0.080 HD
ENDBRANCH  20  21
ENDBRANCH  19  20
ENDBRANCH  18  19
ENDBRANCH   2  18
TORSDOF 5
ENDMDL
MODEL 6
REMARK VINA RESULT:      -8.0     11.066     14.415
REMARK  Name = 6077
REMARK  5 active torsions:
REMARK  status: ('A' for Active; 'I' for Inactive)
REMARK    1  A    between atoms: N_2  and  C_18
REMARK    2  A    between atoms: C_9  and  C_16
REMARK    3  A    between atoms: C_18  and  C_19
REMARK    4  A    between atoms: C_19  and  C_20
REMARK    5  A    between atoms: C_20  and  N_21
REMARK                            x       y       z     vdW  Elec       q    Type
REMARK                         _______ _______ _______ _____ _____    ______ ____
ROOT
ATOM      1  S   UNL     1      33.444 -23.635 -16.809  0.00  0.00    -0.084 S 
ATOM      2  N   UNL     1      36.364 -22.992 -15.959  0.00  0.00    -0.286 N 
ATOM      3  C   UNL     1      35.502 -23.422 -14.919  0.00  0.00    +0.058 C 
ATOM      4  C   UNL     1      35.942 -22.422 -17.186  0.00  0.00    +0.058 C 
ATOM      5  C   UNL     1      34.148 -23.721 -15.175  0.00  0.00    +0.043 C 
ATOM      6  C   UNL     1      34.631 -22.621 -17.666  0.00  0.00    +0.043 C 
ATOM      7  C   UNL     1      35.941 -23.536 -13.582  0.00  0.00    +0.018 C 
ATOM      8  C   UNL     1      36.791 -21.603 -17.962  0.00  0.00    +0.015 C 
ATOM      9  C   UNL     1      35.088 -23.948 -12.555  0.00  0.00    +0.036 C 
ATOM     10  C   UNL     1      33.296 -24.139 -14.139  0.00  0.00    +0.008 C 
ATOM     11  C   UNL     1      34.215 -22.047 -18.881  0.00  0.00    +0.008 C 
ATOM     12  C   UNL     1      33.764 -24.253 -12.834  0.00  0.00    +0.003 C 
ATOM     13  C   UNL     1      36.369 -21.030 -19.165  0.00  0.00    +0.001 C 
ATOM     14  C   UNL     1      35.082 -21.255 -19.627  0.00  0.00    +0.001 C 
ENDROOT
BRANCH   9  16
ATOM     15  O   UNL     1      35.185 -24.962 -10.427  0.00  0.00    -0.291 OA
ATOM     16  C   UNL     1      35.588 -24.065 -11.194  0.00  0.00    +0.174 C 
ATOM     17  C   UNL     1      36.628 -23.081 -10.670  0.00  0.00    +0.077 C 
ENDBRANCH   9  16
BRANCH   2  18
ATOM     18  C   UNL     1      37.810 -23.084 -15.719  0.00  0.00    +0.093 C 
BRANCH  18  19
ATOM     19  C   UNL     1      38.272 -24.540 -15.750  0.00  0.00    -0.001 C 
BRANCH  19  20
ATOM     20  C   UNL     1      39.188 -24.944 -14.591  0.00  0.00    -0.076 C 
BRANCH  20  21
ATOM     21  N   UNL     1      38.711 -26.143 -13.911  0.00  0.00    +0.384 N 
ATOM     22  C   UNL     1      37.572 -26.722 -14.625  0.00  0.00    -0.101 C 
ATOM     23  C   UNL     1      38.343 -25.840 -12.527  0.00  0.00    -0.101 C 
ATOM     24  H   UNL     1      39.469 -26.826 -13.903  0.00  0.00    -0.080 HD
ENDBRANCH  20  21
ENDBRANCH  19  20
ENDBRANCH  18  19
ENDBRANCH   2  18
TORSDOF 5
ENDMDL
MODEL 7
REMARK VINA RESULT:      -7.8      2.735      6.954
REMARK  Name = 6077
REMARK  5 active torsions:
REMARK  status: ('A' for Active; 'I' for Inactive)
REMARK    1  A    between atoms: N_2  and  C_18
REMARK    2  A    between atoms: C_9  and  C_16
REMARK    3  A    between atoms: C_18  and  C_19
REMARK    4  A    between atoms: C_19  and  C_20
REMARK    5  A    between atoms: C_20  and  N_21
REMARK                            x       y       z     vdW  Elec       q    Type
REMARK                         _______ _______ _______ _____ _____    ______ ____
ROOT
ATOM      1  S   UNL     1      31.285 -10.689 -21.933  0.00  0.00    -0.084 S 
ATOM      2  N   UNL     1      33.722 -11.005 -23.837  0.00  0.00    -0.286 N 
ATOM      3  C   UNL     1      33.367 -12.162 -23.096  0.00  0.00    +0.058 C 
ATOM      4  C   UNL     1      33.388  -9.674 -23.482  0.00  0.00    +0.058 C 
ATOM      5  C   UNL     1      32.294 -12.137 -22.183  0.00  0.00    +0.043 C 
ATOM      6  C   UNL     1      32.318  -9.403 -22.606  0.00  0.00    +0.043 C 
ATOM      7  C   UNL     1      34.085 -13.372 -23.209  0.00  0.00    +0.018 C 
ATOM      8  C   UNL     1      34.126  -8.567 -23.954  0.00  0.00    +0.015 C 
ATOM      9  C   UNL     1      33.742 -14.507 -22.470  0.00  0.00    +0.036 C 
ATOM     10  C   UNL     1      31.951 -13.283 -21.445  0.00  0.00    +0.008 C 
ATOM     11  C   UNL     1      31.995  -8.081 -22.252  0.00  0.00    +0.008 C 
ATOM     12  C   UNL     1      32.671 -14.464 -21.590  0.00  0.00    +0.003 C 
ATOM     13  C   UNL     1      33.805  -7.256 -23.593  0.00  0.00    +0.001 C 
ATOM     14  C   UNL     1      32.736  -7.012 -22.744  0.00  0.00    +0.001 C 
ENDROOT
BRANCH   9  16
ATOM     15  O   UNL     1      35.326 -15.878 -23.555  0.00  0.00    -0.291 OA
ATOM     16  C   UNL     1      34.501 -15.737 -22.630  0.00  0.00    +0.174 C 
ATOM     17  C   UNL     1      34.303 -16.895 -21.659  0.00  0.00    +0.077 C 
ENDBRANCH   9  16
BRANCH   2  18
ATOM     18  C   UNL     1      34.558 -11.198 -25.029  0.00  0.00    +0.093 C 
BRANCH  18  19
ATOM     19  C   UNL     1      33.714 -11.678 -26.210  0.00  0.00    -0.001 C 
BRANCH  19  20
ATOM     20  C   UNL     1      34.303 -12.868 -26.972  0.00  0.00    -0.076 C 
BRANCH  20  21
ATOM     21  N   UNL     1      33.285 -13.853 -27.318  0.00  0.00    +0.384 N 
ATOM     22  C   UNL     1      31.973 -13.216 -27.443  0.00  0.00    -0.101 C 
ATOM     23  C   UNL     1      33.238 -14.921 -26.318  0.00  0.00    -0.101 C 
ATOM     24  H   UNL     1      33.533 -14.264 -28.219  0.00  0.00    -0.080 HD
ENDBRANCH  20  21
ENDBRANCH  19  20
ENDBRANCH  18  19
ENDBRANCH   2  18
TORSDOF 5
ENDMDL
MODEL 8
REMARK VINA RESULT:      -7.8     10.283     13.470
REMARK  Name = 6077
REMARK  5 active torsions:
REMARK  status: ('A' for Active; 'I' for Inactive)
REMARK    1  A    between atoms: N_2  and  C_18
REMARK    2  A    between atoms: C_9  and  C_16
REMARK    3  A    between atoms: C_18  and  C_19
REMARK    4  A    between atoms: C_19  and  C_20
REMARK    5  A    between atoms: C_20  and  N_21
REMARK                            x       y       z     vdW  Elec       q    Type
REMARK                         _______ _______ _______ _____ _____    ______ ____
ROOT
ATOM      1  S   UNL     1      37.115 -21.515 -17.250  0.00  0.00    -0.084 S 
ATOM      2  N   UNL     1      34.653 -23.276 -16.542  0.00  0.00    -0.286 N 
ATOM      3  C   UNL     1      35.871 -23.641 -15.913  0.00  0.00    +0.058 C 
ATOM      4  C   UNL     1      34.546 -22.523 -17.737  0.00  0.00    +0.058 C 
ATOM      5  C   UNL     1      37.062 -22.933 -16.172  0.00  0.00    +0.043 C 
ATOM      6  C   UNL     1      35.606 -21.704 -18.177  0.00  0.00    +0.043 C 
ATOM      7  C   UNL     1      35.959 -24.742 -15.034  0.00  0.00    +0.018 C 
ATOM      8  C   UNL     1      33.398 -22.582 -18.558  0.00  0.00    +0.015 C 
ATOM      9  C   UNL     1      37.161 -25.108 -14.423  0.00  0.00    +0.036 C 
ATOM     10  C   UNL     1      38.268 -23.303 -15.553  0.00  0.00    +0.008 C 
ATOM     11  C   UNL     1      35.496 -20.964 -19.368  0.00  0.00    +0.008 C 
ATOM     12  C   UNL     1      38.317 -24.385 -14.681  0.00  0.00    +0.003 C 
ATOM     13  C   UNL     1      33.298 -21.848 -19.743  0.00  0.00    +0.001 C 
ATOM     14  C   UNL     1      34.347 -21.036 -20.147  0.00  0.00    +0.001 C 
ENDROOT
BRANCH   9  16
ATOM     15  O   UNL     1      37.174 -27.415 -13.933  0.00  0.00    -0.291 OA
ATOM     16  C   UNL     1      37.201 -26.241 -13.512  0.00  0.00    +0.174 C 
ATOM     17  C   UNL     1      37.276 -26.015 -12.007  0.00  0.00    +0.077 C 
ENDBRANCH   9  16
BRANCH   2  18
ATOM     18  C   UNL     1      33.408 -23.776 -15.943  0.00  0.00    +0.093 C 
BRANCH  18  19
ATOM     19  C   UNL     1      32.892 -22.806 -14.881  0.00  0.00    -0.001 C 
BRANCH  19  20
ATOM     20  C   UNL     1      31.396 -22.927 -14.580  0.00  0.00    -0.076 C 
BRANCH  20  21
ATOM     21  N   UNL     1      30.724 -23.832 -15.505  0.00  0.00    +0.384 N 
ATOM     22  C   UNL     1      29.745 -23.105 -16.317  0.00  0.00    -0.101 C 
ATOM     23  C   UNL     1      30.072 -24.922 -14.780  0.00  0.00    -0.101 C 
ATOM     24  H   UNL     1      31.428 -24.230 -16.127  0.00  0.00    -0.080 HD
ENDBRANCH  20  21
ENDBRANCH  19  20
ENDBRANCH  18  19
ENDBRANCH   2  18
TORSDOF 5
ENDMDL
MODEL 9
REMARK VINA RESULT:      -7.8      9.763     12.926
REMARK  Name = 6077
REMARK  5 active torsions:
REMARK  status: ('A' for Active; 'I' for Inactive)
REMARK    1  A    between atoms: N_2  and  C_18
REMARK    2  A    between atoms: C_9  and  C_16
REMARK    3  A    between atoms: C_18  and  C_19
REMARK    4  A    between atoms: C_19  and  C_20
REMARK    5  A    between atoms: C_20  and  N_21
REMARK                            x       y       z     vdW  Elec       q    Type
REMARK                         _______ _______ _______ _____ _____    ______ ____
ROOT
ATOM      1  S   UNL     1      32.167 -24.583 -13.617  0.00  0.00    -0.084 S 
ATOM      2  N   UNL     1      32.749 -23.550 -16.491  0.00  0.00    -0.286 N 
ATOM      3  C   UNL     1      33.869 -23.615 -15.622  0.00  0.00    +0.058 C 
ATOM      4  C   UNL     1      31.397 -23.477 -16.074  0.00  0.00    +0.058 C 
ATOM      5  C   UNL     1      33.728 -24.045 -14.287  0.00  0.00    +0.043 C 
ATOM      6  C   UNL     1      31.011 -23.893 -14.783  0.00  0.00    +0.043 C 
ATOM      7  C   UNL     1      35.160 -23.222 -16.036  0.00  0.00    +0.018 C 
ATOM      8  C   UNL     1      30.384 -22.956 -16.908  0.00  0.00    +0.015 C 
ATOM      9  C   UNL     1      36.261 -23.275 -15.176  0.00  0.00    +0.036 C 
ATOM     10  C   UNL     1      34.839 -24.100 -13.428  0.00  0.00    +0.008 C 
ATOM     11  C   UNL     1      29.669 -23.812 -14.373  0.00  0.00    +0.008 C 
ATOM     12  C   UNL     1      36.101 -23.718 -13.872  0.00  0.00    +0.003 C 
ATOM     13  C   UNL     1      29.053 -22.872 -16.492  0.00  0.00    +0.001 C 
ATOM     14  C   UNL     1      28.694 -23.304 -15.224  0.00  0.00    +0.001 C 
ENDROOT
BRANCH   9  16
ATOM     15  O   UNL     1      38.597 -23.536 -15.376  0.00  0.00    -0.291 OA
ATOM     16  C   UNL     1      37.576 -22.874 -15.651  0.00  0.00    +0.174 C 
ATOM     17  C   UNL     1      37.737 -21.620 -16.503  0.00  0.00    +0.077 C 
ENDBRANCH   9  16
BRANCH   2  18
ATOM     18  C   UNL     1      33.017 -23.486 -17.933  0.00  0.00    +0.093 C 
BRANCH  18  19
ATOM     19  C   UNL     1      33.165 -22.036 -18.392  0.00  0.00    -0.001 C 
BRANCH  19  20
ATOM     20  C   UNL     1      34.301 -21.794 -19.389  0.00  0.00    -0.076 C 
BRANCH  20  21
ATOM     21  N   UNL     1      34.303 -20.426 -19.894  0.00  0.00    +0.384 N 
ATOM     22  C   UNL     1      33.069 -20.146 -20.630  0.00  0.00    -0.101 C 
ATOM     23  C   UNL     1      35.468 -20.192 -20.748  0.00  0.00    -0.101 C 
ATOM     24  H   UNL     1      34.354 -19.793 -19.095  0.00  0.00    -0.080 HD
ENDBRANCH  20  21
ENDBRANCH  19  20
ENDBRANCH  18  19
ENDBRANCH   2  18
TORSDOF 5
ENDMDL
