MODEL 1
REMARK VINA RESULT:      -7.8      0.000      0.000
REMARK  Name = 444302
REMARK  12 active torsions:
REMARK  status: ('A' for Active; 'I' for Inactive)
REMARK    1  A    between atoms: S_1  and  C_5
REMARK    2  A    between atoms: S_1  and  C_12
REMARK    3  A    between atoms: C_6  and  C_9
REMARK    4  A    between atoms: C_9  and  O_10
REMARK    5  A    between atoms: C_12  and  C_13
REMARK    6  A    between atoms: C_12  and  C_18
REMARK    7  A    between atoms: C_13  and  C_14
REMARK    8  A    between atoms: C_14  and  C_15
REMARK    9  A    between atoms: C_15  and  C_16
REMARK   10  A    between atoms: C_18  and  C_19
REMARK   11  A    between atoms: C_19  and  C_20
REMARK   12  A    between atoms: C_20  and  C_21
REMARK                            x       y       z     vdW  Elec       q    Type
REMARK                         _______ _______ _______ _____ _____    ______ ____
ROOT
ATOM      1  S   UNL     1      34.025 -19.792 -21.200  0.00  0.00    -0.092 S 
ENDROOT
BRANCH   1   5
ATOM      2  N   UNL     1      36.372 -20.073 -19.836  0.00  0.00    -0.148 NA
ATOM      3  N   UNL     1      36.822 -20.954 -18.928  0.00  0.00    -0.195 N 
ATOM      4  N   UNL     1      36.010 -21.951 -18.545  0.00  0.00    -0.147 NA
ATOM      5  C   UNL     1      35.144 -20.549 -20.063  0.00  0.00    +0.153 A 
ATOM      6  C   UNL     1      34.925 -21.690 -19.278  0.00  0.00    +0.202 A 
ATOM      7  H   UNL     1      37.728 -20.869 -18.552  0.00  0.00    +0.213 HD
BRANCH   6   9
ATOM      8  O   UNL     1      32.644 -22.164 -18.809  0.00  0.00    -0.243 OA
ATOM      9  C   UNL     1      33.768 -22.532 -19.185  0.00  0.00    +0.360 C 
BRANCH   9  10
ATOM     10  O   UNL     1      33.971 -23.840 -19.549  0.00  0.00    -0.476 OA
ATOM     11  H   UNL     1      33.636 -24.156 -20.365  0.00  0.00    +0.295 HD
ENDBRANCH   9  10
ENDBRANCH   6   9
ENDBRANCH   1   5
BRANCH   1  12
ATOM     12  C   UNL     1      34.922 -18.219 -21.491  0.00  0.00    +0.053 C 
BRANCH  12  13
ATOM     13  C   UNL     1      35.628 -18.233 -22.860  0.00  0.00    +0.011 C 
BRANCH  13  14
ATOM     14  C   UNL     1      34.999 -19.133 -23.931  0.00  0.00    +0.001 C 
BRANCH  14  15
ATOM     15  C   UNL     1      34.309 -18.297 -25.014  0.00  0.00    +0.000 C 
BRANCH  15  16
ATOM     16  C   UNL     1      34.810 -16.853 -25.005  0.00  0.00    +0.000 C 
ATOM     17  C   UNL     1      33.737 -15.888 -25.483  0.00  0.00    +0.000 C 
ENDBRANCH  15  16
ENDBRANCH  14  15
ENDBRANCH  13  14
ENDBRANCH  12  13
BRANCH  12  18
ATOM     18  C   UNL     1      33.957 -17.044 -21.260  0.00  0.00    +0.011 C 
BRANCH  18  19
ATOM     19  C   UNL     1      34.625 -15.702 -20.935  0.00  0.00    +0.001 C 
BRANCH  19  20
ATOM     20  C   UNL     1      34.340 -14.612 -21.972  0.00  0.00    +0.000 C 
BRANCH  20  21
ATOM     21  C   UNL     1      32.836 -14.428 -22.180  0.00  0.00    +0.000 C 
ATOM     22  C   UNL     1      32.289 -13.298 -21.321  0.00  0.00    +0.000 C 
ENDBRANCH  20  21
ENDBRANCH  19  20
ENDBRANCH  18  19
ENDBRANCH  12  18
ENDBRANCH   1  12
TORSDOF 12
ENDMDL
MODEL 2
REMARK VINA RESULT:      -7.5      5.784      8.451
REMARK  Name = 444302
REMARK  12 active torsions:
REMARK  status: ('A' for Active; 'I' for Inactive)
REMARK    1  A    between atoms: S_1  and  C_5
REMARK    2  A    between atoms: S_1  and  C_12
REMARK    3  A    between atoms: C_6  and  C_9
REMARK    4  A    between atoms: C_9  and  O_10
REMARK    5  A    between atoms: C_12  and  C_13
REMARK    6  A    between atoms: C_12  and  C_18
REMARK    7  A    between atoms: C_13  and  C_14
REMARK    8  A    between atoms: C_14  and  C_15
REMARK    9  A    between atoms: C_15  and  C_16
REMARK   10  A    between atoms: C_18  and  C_19
REMARK   11  A    between atoms: C_19  and  C_20
REMARK   12  A    between atoms: C_20  and  C_21
REMARK                            x       y       z     vdW  Elec       q    Type
REMARK                         _______ _______ _______ _____ _____    ______ ____
ROOT
ATOM      1  S   UNL     1      37.452 -23.201 -14.945  0.00  0.00    -0.092 S 
ENDROOT
BRANCH   1   5
ATOM      2  N   UNL     1      36.385 -25.671 -14.484  0.00  0.00    -0.148 NA
ATOM      3  N   UNL     1      36.903 -26.906 -14.383  0.00  0.00    -0.195 N 
ATOM      4  N   UNL     1      38.229 -27.057 -14.526  0.00  0.00    -0.147 NA
ATOM      5  C   UNL     1      37.487 -24.952 -14.715  0.00  0.00    +0.153 A 
ATOM      6  C   UNL     1      38.607 -25.795 -14.741  0.00  0.00    +0.202 A 
ATOM      7  H   UNL     1      36.323 -27.682 -14.209  0.00  0.00    +0.213 HD
BRANCH   6   9
ATOM      8  O   UNL     1      40.696 -24.809 -14.181  0.00  0.00    -0.243 OA
ATOM      9  C   UNL     1      39.990 -25.479 -14.952  0.00  0.00    +0.360 C 
BRANCH   9  10
ATOM     10  O   UNL     1      40.530 -25.978 -16.111  0.00  0.00    -0.476 OA
ATOM     11  H   UNL     1      41.396 -26.336 -16.108  0.00  0.00    +0.295 HD
ENDBRANCH   9  10
ENDBRANCH   6   9
ENDBRANCH   1   5
BRANCH   1  12
ATOM     12  C   UNL     1      36.052 -23.089 -16.126  0.00  0.00    +0.053 C 
BRANCH  12  13
ATOM     13  C   UNL     1      34.730 -22.804 -15.388  0.00  0.00    +0.011 C 
BRANCH  13  14
ATOM     14  C   UNL     1      33.602 -23.818 -15.616  0.00  0.00    +0.001 C 
BRANCH  14  15
ATOM     15  C   UNL     1      32.454 -23.191 -16.413  0.00  0.00    +0.000 C 
BRANCH  15  16
ATOM     16  C   UNL     1      31.253 -22.892 -15.516  0.00  0.00    +0.000 C 
ATOM     17  C   UNL     1      29.979 -23.512 -16.067  0.00  0.00    +0.000 C 
ENDBRANCH  15  16
ENDBRANCH  14  15
ENDBRANCH  13  14
ENDBRANCH  12  13
BRANCH  12  18
ATOM     18  C   UNL     1      36.416 -22.089 -17.236  0.00  0.00    +0.011 C 
BRANCH  18  19
ATOM     19  C   UNL     1      35.468 -22.076 -18.443  0.00  0.00    +0.001 C 
BRANCH  19  20
ATOM     20  C   UNL     1      35.923 -21.140 -19.565  0.00  0.00    +0.000 C 
BRANCH  20  21
ATOM     21  C   UNL     1      34.726 -20.532 -20.297  0.00  0.00    +0.000 C 
ATOM     22  C   UNL     1      33.410 -21.043 -19.731  0.00  0.00    +0.000 C 
ENDBRANCH  20  21
ENDBRANCH  19  20
ENDBRANCH  18  19
ENDBRANCH  12  18
ENDBRANCH   1  12
TORSDOF 12
ENDMDL
MODEL 3
REMARK VINA RESULT:      -7.4      5.030      6.678
REMARK  Name = 444302
REMARK  12 active torsions:
REMARK  status: ('A' for Active; 'I' for Inactive)
REMARK    1  A    between atoms: S_1  and  C_5
REMARK    2  A    between atoms: S_1  and  C_12
REMARK    3  A    between atoms: C_6  and  C_9
REMARK    4  A    between atoms: C_9  and  O_10
REMARK    5  A    between atoms: C_12  and  C_13
REMARK    6  A    between atoms: C_12  and  C_18
REMARK    7  A    between atoms: C_13  and  C_14
REMARK    8  A    between atoms: C_14  and  C_15
REMARK    9  A    between atoms: C_15  and  C_16
REMARK   10  A    between atoms: C_18  and  C_19
REMARK   11  A    between atoms: C_19  and  C_20
REMARK   12  A    between atoms: C_20  and  C_21
REMARK                            x       y       z     vdW  Elec       q    Type
REMARK                         _______ _______ _______ _____ _____    ______ ____
ROOT
ATOM      1  S   UNL     1      34.185 -14.157 -23.055  0.00  0.00    -0.092 S 
ENDROOT
BRANCH   1   5
ATOM      2  N   UNL     1      32.670 -13.796 -25.296  0.00  0.00    -0.148 NA
ATOM      3  N   UNL     1      32.449 -14.529 -26.399  0.00  0.00    -0.195 N 
ATOM      4  N   UNL     1      33.066 -15.715 -26.514  0.00  0.00    -0.147 NA
ATOM      5  C   UNL     1      33.515 -14.589 -24.630  0.00  0.00    +0.153 A 
ATOM      6  C   UNL     1      33.756 -15.754 -25.371  0.00  0.00    +0.202 A 
ATOM      7  H   UNL     1      31.848 -14.202 -27.108  0.00  0.00    +0.213 HD
BRANCH   6   9
ATOM      8  O   UNL     1      34.412 -18.035 -25.496  0.00  0.00    -0.243 OA
ATOM      9  C   UNL     1      34.584 -16.884 -25.064  0.00  0.00    +0.360 C 
BRANCH   9  10
ATOM     10  O   UNL     1      35.636 -16.621 -24.222  0.00  0.00    -0.476 OA
ATOM     11  H   UNL     1      36.411 -16.214 -24.554  0.00  0.00    +0.295 HD
ENDBRANCH   9  10
ENDBRANCH   6   9
ENDBRANCH   1   5
BRANCH   1  12
ATOM     12  C   UNL     1      32.784 -14.673 -21.989  0.00  0.00    +0.053 C 
BRANCH  12  13
ATOM     13  C   UNL     1      33.134 -15.948 -21.199  0.00  0.00    +0.011 C 
BRANCH  13  14
ATOM     14  C   UNL     1      34.555 -16.014 -20.625  0.00  0.00    +0.001 C 
BRANCH  14  15
ATOM     15  C   UNL     1      35.227 -17.345 -20.979  0.00  0.00    +0.000 C 
BRANCH  15  16
ATOM     16  C   UNL     1      34.197 -18.397 -21.386  0.00  0.00    +0.000 C 
ATOM     17  C   UNL     1      34.827 -19.498 -22.225  0.00  0.00    +0.000 C 
ENDBRANCH  15  16
ENDBRANCH  14  15
ENDBRANCH  13  14
ENDBRANCH  12  13
BRANCH  12  18
ATOM     18  C   UNL     1      32.337 -13.472 -21.138  0.00  0.00    +0.011 C 
BRANCH  18  19
ATOM     19  C   UNL     1      31.890 -12.238 -21.932  0.00  0.00    +0.001 C 
BRANCH  19  20
ATOM     20  C   UNL     1      30.886 -11.360 -21.180  0.00  0.00    +0.000 C 
BRANCH  20  21
ATOM     21  C   UNL     1      31.315 -11.151 -19.727  0.00  0.00    +0.000 C 
ATOM     22  C   UNL     1      31.932  -9.776 -19.521  0.00  0.00    +0.000 C 
ENDBRANCH  20  21
ENDBRANCH  19  20
ENDBRANCH  18  19
ENDBRANCH  12  18
ENDBRANCH   1  12
TORSDOF 12
ENDMDL
MODEL 4
REMARK VINA RESULT:      -7.3      5.718      9.063
REMARK  Name = 444302
REMARK  12 active torsions:
REMARK  status: ('A' for Active; 'I' for Inactive)
REMARK    1  A    between atoms: S_1  and  C_5
REMARK    2  A    between atoms: S_1  and  C_12
REMARK    3  A    between atoms: C_6  and  C_9
REMARK    4  A    between atoms: C_9  and  O_10
REMARK    5  A    between atoms: C_12  and  C_13
REMARK    6  A    between atoms: C_12  and  C_18
REMARK    7  A    between atoms: C_13  and  C_14
REMARK    8  A    between atoms: C_14  and  C_15
REMARK    9  A    between atoms: C_15  and  C_16
REMARK   10  A    between atoms: C_18  and  C_19
REMARK   11  A    between atoms: C_19  and  C_20
REMARK   12  A    between atoms: C_20  and  C_21
REMARK                            x       y       z     vdW  Elec       q    Type
REMARK                         _______ _______ _______ _____ _____    ______ ____
ROOT
ATOM      1  S   UNL     1      35.534 -23.790 -14.360  0.00  0.00    -0.092 S 
ENDROOT
BRANCH   1   5
ATOM      2  N   UNL     1      35.892 -26.143 -15.696  0.00  0.00    -0.148 NA
ATOM      3  N   UNL     1      36.763 -27.158 -15.577  0.00  0.00    -0.195 N 
ATOM      4  N   UNL     1      37.701 -27.090 -14.620  0.00  0.00    -0.147 NA
ATOM      5  C   UNL     1      36.309 -25.337 -14.715  0.00  0.00    +0.153 A 
ATOM      6  C   UNL     1      37.408 -25.912 -14.062  0.00  0.00    +0.202 A 
ATOM      7  H   UNL     1      36.715 -27.935 -16.181  0.00  0.00    +0.213 HD
BRANCH   6   9
ATOM      8  O   UNL     1      37.912 -25.602 -11.760  0.00  0.00    -0.243 OA
ATOM      9  C   UNL     1      38.181 -25.421 -12.959  0.00  0.00    +0.360 C 
BRANCH   9  10
ATOM     10  O   UNL     1      39.296 -24.700 -13.306  0.00  0.00    -0.476 OA
ATOM     11  H   UNL     1      39.386 -23.811 -13.022  0.00  0.00    +0.295 HD
ENDBRANCH   9  10
ENDBRANCH   6   9
ENDBRANCH   1   5
BRANCH   1  12
ATOM     12  C   UNL     1      34.181 -23.849 -15.598  0.00  0.00    +0.053 C 
BRANCH  12  13
ATOM     13  C   UNL     1      32.826 -23.510 -14.950  0.00  0.00    +0.011 C 
BRANCH  13  14
ATOM     14  C   UNL     1      32.267 -24.556 -13.977  0.00  0.00    +0.001 C 
BRANCH  14  15
ATOM     15  C   UNL     1      30.864 -25.004 -14.400  0.00  0.00    +0.000 C 
BRANCH  15  16
ATOM     16  C   UNL     1      30.414 -24.292 -15.675  0.00  0.00    +0.000 C 
ATOM     17  C   UNL     1      28.900 -24.293 -15.809  0.00  0.00    +0.000 C 
ENDBRANCH  15  16
ENDBRANCH  14  15
ENDBRANCH  13  14
ENDBRANCH  12  13
BRANCH  12  18
ATOM     18  C   UNL     1      34.572 -22.978 -16.804  0.00  0.00    +0.011 C 
BRANCH  18  19
ATOM     19  C   UNL     1      33.510 -22.873 -17.907  0.00  0.00    +0.001 C 
BRANCH  19  20
ATOM     20  C   UNL     1      33.990 -22.112 -19.145  0.00  0.00    +0.000 C 
BRANCH  20  21
ATOM     21  C   UNL     1      32.984 -21.037 -19.558  0.00  0.00    +0.000 C 
ATOM     22  C   UNL     1      33.547 -20.135 -20.645  0.00  0.00    +0.000 C 
ENDBRANCH  20  21
ENDBRANCH  19  20
ENDBRANCH  18  19
ENDBRANCH  12  18
ENDBRANCH   1  12
TORSDOF 12
ENDMDL
MODEL 5
REMARK VINA RESULT:      -7.2      1.921      3.684
REMARK  Name = 444302
REMARK  12 active torsions:
REMARK  status: ('A' for Active; 'I' for Inactive)
REMARK    1  A    between atoms: S_1  and  C_5
REMARK    2  A    between atoms: S_1  and  C_12
REMARK    3  A    between atoms: C_6  and  C_9
REMARK    4  A    between atoms: C_9  and  O_10
REMARK    5  A    between atoms: C_12  and  C_13
REMARK    6  A    between atoms: C_12  and  C_18
REMARK    7  A    between atoms: C_13  and  C_14
REMARK    8  A    between atoms: C_14  and  C_15
REMARK    9  A    between atoms: C_15  and  C_16
REMARK   10  A    between atoms: C_18  and  C_19
REMARK   11  A    between atoms: C_19  and  C_20
REMARK   12  A    between atoms: C_20  and  C_21
REMARK                            x       y       z     vdW  Elec       q    Type
REMARK                         _______ _______ _______ _____ _____    ______ ____
ROOT
ATOM      1  S   UNL     1      35.721 -18.892 -21.288  0.00  0.00    -0.092 S 
ENDROOT
BRANCH   1   5
ATOM      2  N   UNL     1      33.121 -19.658 -20.969  0.00  0.00    -0.148 NA
ATOM      3  N   UNL     1      32.518 -20.645 -20.288  0.00  0.00    -0.195 N 
ATOM      4  N   UNL     1      33.279 -21.492 -19.578  0.00  0.00    -0.147 NA
ATOM      5  C   UNL     1      34.403 -19.890 -20.669  0.00  0.00    +0.153 A 
ATOM      6  C   UNL     1      34.498 -21.005 -19.824  0.00  0.00    +0.202 A 
ATOM      7  H   UNL     1      31.539 -20.746 -20.310  0.00  0.00    +0.213 HD
BRANCH   6   9
ATOM      8  O   UNL     1      36.820 -21.477 -19.650  0.00  0.00    -0.243 OA
ATOM      9  C   UNL     1      35.656 -21.623 -19.246  0.00  0.00    +0.360 C 
BRANCH   9  10
ATOM     10  O   UNL     1      35.404 -22.430 -18.165  0.00  0.00    -0.476 OA
ATOM     11  H   UNL     1      35.070 -23.296 -18.294  0.00  0.00    +0.295 HD
ENDBRANCH   9  10
ENDBRANCH   6   9
ENDBRANCH   1   5
BRANCH   1  12
ATOM     12  C   UNL     1      34.766 -17.391 -21.739  0.00  0.00    +0.053 C 
BRANCH  12  13
ATOM     13  C   UNL     1      34.812 -16.348 -20.607  0.00  0.00    +0.011 C 
BRANCH  13  14
ATOM     14  C   UNL     1      34.340 -14.936 -20.976  0.00  0.00    +0.001 C 
BRANCH  14  15
ATOM     15  C   UNL     1      32.830 -14.790 -20.768  0.00  0.00    +0.000 C 
BRANCH  15  16
ATOM     16  C   UNL     1      32.315 -13.468 -21.336  0.00  0.00    +0.000 C 
ATOM     17  C   UNL     1      32.863 -13.210 -22.730  0.00  0.00    +0.000 C 
ENDBRANCH  15  16
ENDBRANCH  14  15
ENDBRANCH  13  14
ENDBRANCH  12  13
BRANCH  12  18
ATOM     18  C   UNL     1      35.242 -16.893 -23.114  0.00  0.00    +0.011 C 
BRANCH  18  19
ATOM     19  C   UNL     1      34.990 -17.855 -24.282  0.00  0.00    +0.001 C 
BRANCH  19  20
ATOM     20  C   UNL     1      34.161 -17.238 -25.411  0.00  0.00    +0.000 C 
BRANCH  20  21
ATOM     21  C   UNL     1      33.784 -15.791 -25.093  0.00  0.00    +0.000 C 
ATOM     22  C   UNL     1      33.014 -15.151 -26.239  0.00  0.00    +0.000 C 
ENDBRANCH  20  21
ENDBRANCH  19  20
ENDBRANCH  18  19
ENDBRANCH  12  18
ENDBRANCH   1  12
TORSDOF 12
ENDMDL
MODEL 6
REMARK VINA RESULT:      -7.1      5.965      9.108
REMARK  Name = 444302
REMARK  12 active torsions:
REMARK  status: ('A' for Active; 'I' for Inactive)
REMARK    1  A    between atoms: S_1  and  C_5
REMARK    2  A    between atoms: S_1  and  C_12
REMARK    3  A    between atoms: C_6  and  C_9
REMARK    4  A    between atoms: C_9  and  O_10
REMARK    5  A    between atoms: C_12  and  C_13
REMARK    6  A    between atoms: C_12  and  C_18
REMARK    7  A    between atoms: C_13  and  C_14
REMARK    8  A    between atoms: C_14  and  C_15
REMARK    9  A    between atoms: C_15  and  C_16
REMARK   10  A    between atoms: C_18  and  C_19
REMARK   11  A    between atoms: C_19  and  C_20
REMARK   12  A    between atoms: C_20  and  C_21
REMARK                            x       y       z     vdW  Elec       q    Type
REMARK                         _______ _______ _______ _____ _____    ______ ____
ROOT
ATOM      1  S   UNL     1      36.939 -23.366 -14.882  0.00  0.00    -0.092 S 
ENDROOT
BRANCH   1   5
ATOM      2  N   UNL     1      36.817 -26.050 -14.403  0.00  0.00    -0.148 NA
ATOM      3  N   UNL     1      36.947 -26.807 -13.301  0.00  0.00    -0.195 N 
ATOM      4  N   UNL     1      37.193 -26.197 -12.131  0.00  0.00    -0.147 NA
ATOM      5  C   UNL     1      36.997 -24.828 -13.893  0.00  0.00    +0.153 A 
ATOM      6  C   UNL     1      37.225 -24.918 -12.513  0.00  0.00    +0.202 A 
ATOM      7  H   UNL     1      36.864 -27.787 -13.351  0.00  0.00    +0.213 HD
BRANCH   6   9
ATOM      8  O   UNL     1      38.348 -23.012 -11.645  0.00  0.00    -0.243 OA
ATOM      9  C   UNL     1      37.467 -23.881 -11.552  0.00  0.00    +0.360 C 
BRANCH   9  10
ATOM     10  O   UNL     1      36.634 -23.895 -10.461  0.00  0.00    -0.476 OA
ATOM     11  H   UNL     1      35.954 -23.255 -10.383  0.00  0.00    +0.295 HD
ENDBRANCH   9  10
ENDBRANCH   6   9
ENDBRANCH   1   5
BRANCH   1  12
ATOM     12  C   UNL     1      35.268 -23.571 -15.611  0.00  0.00    +0.053 C 
BRANCH  12  13
ATOM     13  C   UNL     1      34.173 -23.305 -14.562  0.00  0.00    +0.011 C 
BRANCH  13  14
ATOM     14  C   UNL     1      33.275 -24.498 -14.211  0.00  0.00    +0.001 C 
BRANCH  14  15
ATOM     15  C   UNL     1      31.813 -24.062 -14.071  0.00  0.00    +0.000 C 
BRANCH  15  16
ATOM     16  C   UNL     1      31.537 -22.781 -14.856  0.00  0.00    +0.000 C 
ATOM     17  C   UNL     1      30.907 -23.080 -16.207  0.00  0.00    +0.000 C 
ENDBRANCH  15  16
ENDBRANCH  14  15
ENDBRANCH  13  14
ENDBRANCH  12  13
BRANCH  12  18
ATOM     18  C   UNL     1      35.176 -22.722 -16.891  0.00  0.00    +0.011 C 
BRANCH  18  19
ATOM     19  C   UNL     1      36.465 -21.991 -17.286  0.00  0.00    +0.001 C 
BRANCH  19  20
ATOM     20  C   UNL     1      36.477 -21.522 -18.744  0.00  0.00    +0.000 C 
BRANCH  20  21
ATOM     21  C   UNL     1      35.101 -21.690 -19.390  0.00  0.00    +0.000 C 
ATOM     22  C   UNL     1      34.755 -20.505 -20.278  0.00  0.00    +0.000 C 
ENDBRANCH  20  21
ENDBRANCH  19  20
ENDBRANCH  18  19
ENDBRANCH  12  18
ENDBRANCH   1  12
TORSDOF 12
ENDMDL
MODEL 7
REMARK VINA RESULT:      -7.0      4.667      6.789
REMARK  Name = 444302
REMARK  12 active torsions:
REMARK  status: ('A' for Active; 'I' for Inactive)
REMARK    1  A    between atoms: S_1  and  C_5
REMARK    2  A    between atoms: S_1  and  C_12
REMARK    3  A    between atoms: C_6  and  C_9
REMARK    4  A    between atoms: C_9  and  O_10
REMARK    5  A    between atoms: C_12  and  C_13
REMARK    6  A    between atoms: C_12  and  C_18
REMARK    7  A    between atoms: C_13  and  C_14
REMARK    8  A    between atoms: C_14  and  C_15
REMARK    9  A    between atoms: C_15  and  C_16
REMARK   10  A    between atoms: C_18  and  C_19
REMARK   11  A    between atoms: C_19  and  C_20
REMARK   12  A    between atoms: C_20  and  C_21
REMARK                            x       y       z     vdW  Elec       q    Type
REMARK                         _______ _______ _______ _____ _____    ______ ____
ROOT
ATOM      1  S   UNL     1      33.307 -14.421 -24.394  0.00  0.00    -0.092 S 
ENDROOT
BRANCH   1   5
ATOM      2  N   UNL     1      34.368 -15.164 -21.992  0.00  0.00    -0.148 NA
ATOM      3  N   UNL     1      35.003 -16.263 -21.554  0.00  0.00    -0.195 N 
ATOM      4  N   UNL     1      35.208 -17.271 -22.415  0.00  0.00    -0.147 NA
ATOM      5  C   UNL     1      34.138 -15.495 -23.266  0.00  0.00    +0.153 A 
ATOM      6  C   UNL     1      34.648 -16.775 -23.523  0.00  0.00    +0.202 A 
ATOM      7  H   UNL     1      35.312 -16.327 -20.621  0.00  0.00    +0.213 HD
BRANCH   6   9
ATOM      8  O   UNL     1      34.861 -17.089 -25.868  0.00  0.00    -0.243 OA
ATOM      9  C   UNL     1      34.639 -17.542 -24.734  0.00  0.00    +0.360 C 
BRANCH   9  10
ATOM     10  O   UNL     1      34.355 -18.876 -24.576  0.00  0.00    -0.476 OA
ATOM     11  H   UNL     1      33.560 -19.230 -24.922  0.00  0.00    +0.295 HD
ENDBRANCH   9  10
ENDBRANCH   6   9
ENDBRANCH   1   5
BRANCH   1  12
ATOM     12  C   UNL     1      33.350 -12.873 -23.410  0.00  0.00    +0.053 C 
BRANCH  12  13
ATOM     13  C   UNL     1      33.854 -11.693 -24.261  0.00  0.00    +0.011 C 
BRANCH  13  14
ATOM     14  C   UNL     1      33.634 -10.295 -23.668  0.00  0.00    +0.001 C 
BRANCH  14  15
ATOM     15  C   UNL     1      34.692  -9.311 -24.176  0.00  0.00    +0.000 C 
BRANCH  15  16
ATOM     16  C   UNL     1      34.539  -7.940 -23.518  0.00  0.00    +0.000 C 
ATOM     17  C   UNL     1      34.509  -6.826 -24.552  0.00  0.00    +0.000 C 
ENDBRANCH  15  16
ENDBRANCH  14  15
ENDBRANCH  13  14
ENDBRANCH  12  13
BRANCH  12  18
ATOM     18  C   UNL     1      31.978 -12.667 -22.745  0.00  0.00    +0.011 C 
BRANCH  18  19
ATOM     19  C   UNL     1      32.001 -12.558 -21.215  0.00  0.00    +0.001 C 
BRANCH  19  20
ATOM     20  C   UNL     1      31.041 -11.502 -20.664  0.00  0.00    +0.000 C 
BRANCH  20  21
ATOM     21  C   UNL     1      31.648 -10.774 -19.464  0.00  0.00    +0.000 C 
ATOM     22  C   UNL     1      32.135  -9.384 -19.843  0.00  0.00    +0.000 C 
ENDBRANCH  20  21
ENDBRANCH  19  20
ENDBRANCH  18  19
ENDBRANCH  12  18
ENDBRANCH   1  12
TORSDOF 12
ENDMDL
MODEL 8
REMARK VINA RESULT:      -6.9      5.398      7.885
REMARK  Name = 444302
REMARK  12 active torsions:
REMARK  status: ('A' for Active; 'I' for Inactive)
REMARK    1  A    between atoms: S_1  and  C_5
REMARK    2  A    between atoms: S_1  and  C_12
REMARK    3  A    between atoms: C_6  and  C_9
REMARK    4  A    between atoms: C_9  and  O_10
REMARK    5  A    between atoms: C_12  and  C_13
REMARK    6  A    between atoms: C_12  and  C_18
REMARK    7  A    between atoms: C_13  and  C_14
REMARK    8  A    between atoms: C_14  and  C_15
REMARK    9  A    between atoms: C_15  and  C_16
REMARK   10  A    between atoms: C_18  and  C_19
REMARK   11  A    between atoms: C_19  and  C_20
REMARK   12  A    between atoms: C_20  and  C_21
REMARK                            x       y       z     vdW  Elec       q    Type
REMARK                         _______ _______ _______ _____ _____    ______ ____
ROOT
ATOM      1  S   UNL     1      33.795 -13.754 -23.142  0.00  0.00    -0.092 S 
ENDROOT
BRANCH   1   5
ATOM      2  N   UNL     1      32.684 -14.203 -25.594  0.00  0.00    -0.148 NA
ATOM      3  N   UNL     1      32.723 -15.227 -26.462  0.00  0.00    -0.195 N 
ATOM      4  N   UNL     1      33.443 -16.313 -26.138  0.00  0.00    -0.147 NA
ATOM      5  C   UNL     1      33.455 -14.674 -24.610  0.00  0.00    +0.153 A 
ATOM      6  C   UNL     1      33.917 -15.956 -24.942  0.00  0.00    +0.202 A 
ATOM      7  H   UNL     1      32.236 -15.182 -27.316  0.00  0.00    +0.213 HD
BRANCH   6   9
ATOM      8  O   UNL     1      34.599 -18.073 -24.107  0.00  0.00    -0.243 OA
ATOM      9  C   UNL     1      34.764 -16.847 -24.203  0.00  0.00    +0.360 C 
BRANCH   9  10
ATOM     10  O   UNL     1      35.825 -16.249 -23.571  0.00  0.00    -0.476 OA
ATOM     11  H   UNL     1      35.791 -15.337 -23.360  0.00  0.00    +0.295 HD
ENDBRANCH   9  10
ENDBRANCH   6   9
ENDBRANCH   1   5
BRANCH   1  12
ATOM     12  C   UNL     1      32.888 -12.211 -23.547  0.00  0.00    +0.053 C 
BRANCH  12  13
ATOM     13  C   UNL     1      31.902 -11.840 -22.423  0.00  0.00    +0.011 C 
BRANCH  13  14
ATOM     14  C   UNL     1      32.028 -12.650 -21.126  0.00  0.00    +0.001 C 
BRANCH  14  15
ATOM     15  C   UNL     1      31.703 -11.784 -19.905  0.00  0.00    +0.000 C 
BRANCH  15  16
ATOM     16  C   UNL     1      31.240 -10.388 -20.321  0.00  0.00    +0.000 C 
ATOM     17  C   UNL     1      32.145  -9.308 -19.749  0.00  0.00    +0.000 C 
ENDBRANCH  15  16
ENDBRANCH  14  15
ENDBRANCH  13  14
ENDBRANCH  12  13
BRANCH  12  18
ATOM     18  C   UNL     1      33.904 -11.119 -23.920  0.00  0.00    +0.011 C 
BRANCH  18  19
ATOM     19  C   UNL     1      33.499  -9.689 -23.536  0.00  0.00    +0.001 C 
BRANCH  19  20
ATOM     20  C   UNL     1      34.577  -8.647 -23.844  0.00  0.00    +0.000 C 
BRANCH  20  21
ATOM     21  C   UNL     1      33.983  -7.239 -23.906  0.00  0.00    +0.000 C 
ATOM     22  C   UNL     1      32.660  -7.159 -23.160  0.00  0.00    +0.000 C 
ENDBRANCH  20  21
ENDBRANCH  19  20
ENDBRANCH  18  19
ENDBRANCH  12  18
ENDBRANCH   1  12
TORSDOF 12
ENDMDL
MODEL 9
REMARK VINA RESULT:      -6.8      6.047      9.034
REMARK  Name = 444302
REMARK  12 active torsions:
REMARK  status: ('A' for Active; 'I' for Inactive)
REMARK    1  A    between atoms: S_1  and  C_5
REMARK    2  A    between atoms: S_1  and  C_12
REMARK    3  A    between atoms: C_6  and  C_9
REMARK    4  A    between atoms: C_9  and  O_10
REMARK    5  A    between atoms: C_12  and  C_13
REMARK    6  A    between atoms: C_12  and  C_18
REMARK    7  A    between atoms: C_13  and  C_14
REMARK    8  A    between atoms: C_14  and  C_15
REMARK    9  A    between atoms: C_15  and  C_16
REMARK   10  A    between atoms: C_18  and  C_19
REMARK   11  A    between atoms: C_19  and  C_20
REMARK   12  A    between atoms: C_20  and  C_21
REMARK                            x       y       z     vdW  Elec       q    Type
REMARK                         _______ _______ _______ _____ _____    ______ ____
ROOT
ATOM      1  S   UNL     1      32.040 -22.792 -14.529  0.00  0.00    -0.092 S 
ENDROOT
BRANCH   1   5
ATOM      2  N   UNL     1      30.766 -25.159 -14.058  0.00  0.00    -0.148 NA
ATOM      3  N   UNL     1      29.562 -25.651 -14.391  0.00  0.00    -0.195 N 
ATOM      4  N   UNL     1      28.733 -24.883 -15.115  0.00  0.00    -0.147 NA
ATOM      5  C   UNL     1      30.710 -23.949 -14.624  0.00  0.00    +0.153 A 
ATOM      6  C   UNL     1      29.474 -23.782 -15.265  0.00  0.00    +0.202 A 
ATOM      7  H   UNL     1      29.293 -26.556 -14.110  0.00  0.00    +0.213 HD
BRANCH   6   9
ATOM      8  O   UNL     1      29.274 -22.372 -17.168  0.00  0.00    -0.243 OA
ATOM      9  C   UNL     1      28.965 -22.661 -16.000  0.00  0.00    +0.360 C 
BRANCH   9  10
ATOM     10  O   UNL     1      28.072 -21.875 -15.316  0.00  0.00    -0.476 OA
ATOM     11  H   UNL     1      28.175 -20.944 -15.312  0.00  0.00    +0.295 HD
ENDBRANCH   9  10
ENDBRANCH   6   9
ENDBRANCH   1   5
BRANCH   1  12
ATOM     12  C   UNL     1      33.166 -23.537 -15.772  0.00  0.00    +0.053 C 
BRANCH  12  13
ATOM     13  C   UNL     1      32.742 -23.151 -17.201  0.00  0.00    +0.011 C 
BRANCH  13  14
ATOM     14  C   UNL     1      33.879 -22.779 -18.161  0.00  0.00    +0.001 C 
BRANCH  14  15
ATOM     15  C   UNL     1      33.413 -21.739 -19.185  0.00  0.00    +0.000 C 
BRANCH  15  16
ATOM     16  C   UNL     1      34.600 -21.054 -19.861  0.00  0.00    +0.000 C 
ATOM     17  C   UNL     1      35.922 -21.525 -19.276  0.00  0.00    +0.000 C 
ENDBRANCH  15  16
ENDBRANCH  14  15
ENDBRANCH  13  14
ENDBRANCH  12  13
BRANCH  12  18
ATOM     18  C   UNL     1      34.617 -23.192 -15.399  0.00  0.00    +0.011 C 
BRANCH  18  19
ATOM     19  C   UNL     1      35.549 -24.396 -15.207  0.00  0.00    +0.001 C 
BRANCH  19  20
ATOM     20  C   UNL     1      36.455 -24.276 -13.980  0.00  0.00    +0.000 C 
BRANCH  20  21
ATOM     21  C   UNL     1      35.709 -23.651 -12.800  0.00  0.00    +0.000 C 
ATOM     22  C   UNL     1      35.679 -24.587 -11.602  0.00  0.00    +0.000 C 
ENDBRANCH  20  21
ENDBRANCH  19  20
ENDBRANCH  18  19
ENDBRANCH  12  18
ENDBRANCH   1  12
TORSDOF 12
ENDMDL
