MODEL 1
REMARK VINA RESULT:      -8.9      0.000      0.000
REMARK  Name = 158758
REMARK  4 active torsions:
REMARK  status: ('A' for Active; 'I' for Inactive)
REMARK    1  A    between atoms: C_1  and  C_9
REMARK    2  A    between atoms: C_2  and  O_16
REMARK    3  A    between atoms: C_5  and  O_14
REMARK    4  A    between atoms: O_16  and  C_17
REMARK                            x       y       z     vdW  Elec       q    Type
REMARK                         _______ _______ _______ _____ _____    ______ ____
ROOT
ATOM      1  C   UNL     1      34.862 -20.104 -20.550  0.00  0.00    -0.017 C 
ATOM      2  C   UNL     1      35.118 -21.798 -18.856  0.00  0.00    +0.172 C 
ATOM      3  C   UNL     1      35.670 -20.794 -19.647  0.00  0.00    +0.036 C 
ATOM      4  C   UNL     1      33.508 -20.419 -20.657  0.00  0.00    -0.001 C 
ATOM      5  C   UNL     1      33.768 -22.117 -18.958  0.00  0.00    +0.172 C 
ATOM      6  C   UNL     1      32.961 -21.425 -19.862  0.00  0.00    +0.040 C 
ENDROOT
BRANCH   1   9
ATOM      7  O   UNL     1      35.199 -15.677 -22.648  0.00  0.00    -0.275 OA
ATOM      8  N   UNL     1      35.433 -17.864 -23.446  0.00  0.00    -0.304 N 
ATOM      9  C   UNL     1      35.456 -19.013 -21.415  0.00  0.00    +0.051 C 
ATOM     10  C   UNL     1      35.292 -19.194 -22.924  0.00  0.00    +0.094 C 
ATOM     11  C   UNL     1      34.881 -17.600 -21.197  0.00  0.00    +0.091 C 
ATOM     12  C   UNL     1      35.199 -16.887 -22.489  0.00  0.00    +0.223 C 
ATOM     13  H   UNL     1      35.671 -17.667 -24.381  0.00  0.00    +0.149 HD
ENDBRANCH   1   9
BRANCH   5  14
ATOM     14  O   UNL     1      33.223 -23.097 -18.185  0.00  0.00    -0.468 OA
ATOM     15  C   UNL     1      32.202 -22.706 -17.270  0.00  0.00    +0.253 C 
ENDBRANCH   5  14
BRANCH   2  16
ATOM     16  O   UNL     1      35.922 -22.468 -17.972  0.00  0.00    -0.476 OA
BRANCH  16  17
ATOM     17  C   UNL     1      36.077 -21.889 -16.682  0.00  0.00    +0.166 C 
ATOM     18  C   UNL     1      37.558 -21.797 -16.344  0.00  0.00    +0.044 C 
ATOM     19  C   UNL     1      35.539 -22.827 -15.613  0.00  0.00    +0.044 C 
ATOM     20  C   UNL     1      37.936 -23.207 -15.890  0.00  0.00    +0.004 C 
ATOM     21  C   UNL     1      36.635 -23.878 -15.450  0.00  0.00    +0.004 C 
ENDBRANCH  16  17
ENDBRANCH   2  16
TORSDOF 4
ENDMDL
MODEL 2
REMARK VINA RESULT:      -8.8      2.228      4.396
REMARK  Name = 158758
REMARK  4 active torsions:
REMARK  status: ('A' for Active; 'I' for Inactive)
REMARK    1  A    between atoms: C_1  and  C_9
REMARK    2  A    between atoms: C_2  and  O_16
REMARK    3  A    between atoms: C_5  and  O_14
REMARK    4  A    between atoms: O_16  and  C_17
REMARK                            x       y       z     vdW  Elec       q    Type
REMARK                         _______ _______ _______ _____ _____    ______ ____
ROOT
ATOM      1  C   UNL     1      34.569 -22.041 -18.635  0.00  0.00    -0.017 C 
ATOM      2  C   UNL     1      33.499 -23.293 -16.876  0.00  0.00    +0.172 C 
ATOM      3  C   UNL     1      33.436 -22.672 -18.120  0.00  0.00    +0.036 C 
ATOM      4  C   UNL     1      35.757 -22.035 -17.904  0.00  0.00    -0.001 C 
ATOM      5  C   UNL     1      34.681 -23.291 -16.143  0.00  0.00    +0.172 C 
ATOM      6  C   UNL     1      35.813 -22.660 -16.659  0.00  0.00    +0.040 C 
ENDROOT
BRANCH   1   9
ATOM      7  O   UNL     1      35.698 -18.746 -22.095  0.00  0.00    -0.275 OA
ATOM      8  N   UNL     1      33.680 -19.609 -21.285  0.00  0.00    -0.304 N 
ATOM      9  C   UNL     1      34.508 -21.362 -19.986  0.00  0.00    +0.051 C 
ATOM     10  C   UNL     1      33.264 -20.513 -20.251  0.00  0.00    +0.094 C 
ATOM     11  C   UNL     1      35.646 -20.367 -20.287  0.00  0.00    +0.091 C 
ATOM     12  C   UNL     1      35.060 -19.475 -21.354  0.00  0.00    +0.223 C 
ATOM     13  H   UNL     1      33.055 -19.136 -21.882  0.00  0.00    +0.149 HD
ENDBRANCH   1   9
BRANCH   5  14
ATOM     14  O   UNL     1      34.747 -23.900 -14.926  0.00  0.00    -0.468 OA
ATOM     15  C   UNL     1      35.658 -24.989 -14.796  0.00  0.00    +0.253 C 
ENDBRANCH   5  14
BRANCH   2  16
ATOM     16  O   UNL     1      32.380 -23.911 -16.382  0.00  0.00    -0.476 OA
BRANCH  16  17
ATOM     17  C   UNL     1      31.302 -23.068 -15.995  0.00  0.00    +0.166 C 
ATOM     18  C   UNL     1      31.392 -22.786 -14.503  0.00  0.00    +0.044 C 
ATOM     19  C   UNL     1      29.979 -23.807 -16.125  0.00  0.00    +0.044 C 
ATOM     20  C   UNL     1      30.813 -24.035 -13.840  0.00  0.00    +0.004 C 
ATOM     21  C   UNL     1      29.931 -24.707 -14.892  0.00  0.00    +0.004 C 
ENDBRANCH  16  17
ENDBRANCH   2  16
TORSDOF 4
ENDMDL
MODEL 3
REMARK VINA RESULT:      -8.7      4.542      8.392
REMARK  Name = 158758
REMARK  4 active torsions:
REMARK  status: ('A' for Active; 'I' for Inactive)
REMARK    1  A    between atoms: C_1  and  C_9
REMARK    2  A    between atoms: C_2  and  O_16
REMARK    3  A    between atoms: C_5  and  O_14
REMARK    4  A    between atoms: O_16  and  C_17
REMARK                            x       y       z     vdW  Elec       q    Type
REMARK                         _______ _______ _______ _____ _____    ______ ____
ROOT
ATOM      1  C   UNL     1      35.228 -23.733 -14.541  0.00  0.00    -0.017 C 
ATOM      2  C   UNL     1      33.148 -23.627 -15.752  0.00  0.00    +0.172 C 
ATOM      3  C   UNL     1      33.853 -23.957 -14.598  0.00  0.00    +0.036 C 
ATOM      4  C   UNL     1      35.891 -23.178 -15.636  0.00  0.00    -0.001 C 
ATOM      5  C   UNL     1      33.803 -23.073 -16.847  0.00  0.00    +0.172 C 
ATOM      6  C   UNL     1      35.179 -22.848 -16.788  0.00  0.00    +0.040 C 
ENDROOT
BRANCH   1   9
ATOM      7  O   UNL     1      36.065 -24.234  -9.728  0.00  0.00    -0.275 OA
ATOM      8  N   UNL     1      37.320 -23.371 -11.504  0.00  0.00    -0.304 N 
ATOM      9  C   UNL     1      36.002 -24.091 -13.290  0.00  0.00    +0.051 C 
ATOM     10  C   UNL     1      37.131 -23.133 -12.907  0.00  0.00    +0.094 C 
ATOM     11  C   UNL     1      35.179 -24.153 -11.989  0.00  0.00    +0.091 C 
ATOM     12  C   UNL     1      36.214 -23.959 -10.908  0.00  0.00    +0.223 C 
ATOM     13  H   UNL     1      38.146 -23.143 -11.018  0.00  0.00    +0.149 HD
ENDBRANCH   1   9
BRANCH   5  14
ATOM     14  O   UNL     1      33.117 -22.746 -17.977  0.00  0.00    -0.468 OA
ATOM     15  C   UNL     1      33.875 -22.225 -19.066  0.00  0.00    +0.253 C 
ENDBRANCH   5  14
BRANCH   2  16
ATOM     16  O   UNL     1      31.797 -23.852 -15.795  0.00  0.00    -0.476 OA
BRANCH  16  17
ATOM     17  C   UNL     1      31.057 -23.533 -14.623  0.00  0.00    +0.166 C 
ATOM     18  C   UNL     1      30.448 -24.803 -14.050  0.00  0.00    +0.044 C 
ATOM     19  C   UNL     1      29.838 -22.697 -14.978  0.00  0.00    +0.044 C 
ATOM     20  C   UNL     1      29.210 -25.056 -14.909  0.00  0.00    +0.004 C 
ATOM     21  C   UNL     1      28.837 -23.710 -15.529  0.00  0.00    +0.004 C 
ENDBRANCH  16  17
ENDBRANCH   2  16
TORSDOF 4
ENDMDL
MODEL 4
REMARK VINA RESULT:      -8.7      7.483     11.205
REMARK  Name = 158758
REMARK  4 active torsions:
REMARK  status: ('A' for Active; 'I' for Inactive)
REMARK    1  A    between atoms: C_1  and  C_9
REMARK    2  A    between atoms: C_2  and  O_16
REMARK    3  A    between atoms: C_5  and  O_14
REMARK    4  A    between atoms: O_16  and  C_17
REMARK                            x       y       z     vdW  Elec       q    Type
REMARK                         _______ _______ _______ _____ _____    ______ ____
ROOT
ATOM      1  C   UNL     1      33.209 -13.437 -22.587  0.00  0.00    -0.017 C 
ATOM      2  C   UNL     1      31.903 -11.437 -22.272  0.00  0.00    +0.172 C 
ATOM      3  C   UNL     1      32.735 -12.217 -23.070  0.00  0.00    +0.036 C 
ATOM      4  C   UNL     1      32.848 -13.871 -21.311  0.00  0.00    -0.001 C 
ATOM      5  C   UNL     1      31.540 -11.863 -20.999  0.00  0.00    +0.172 C 
ATOM      6  C   UNL     1      32.015 -13.084 -20.517  0.00  0.00    +0.040 C 
ENDROOT
BRANCH   1   9
ATOM      7  O   UNL     1      34.383 -16.792 -25.974  0.00  0.00    -0.275 OA
ATOM      8  N   UNL     1      35.137 -16.359 -23.802  0.00  0.00    -0.304 N 
ATOM      9  C   UNL     1      34.115 -14.291 -23.448  0.00  0.00    +0.051 C 
ATOM     10  C   UNL     1      34.810 -15.453 -22.737  0.00  0.00    +0.094 C 
ATOM     11  C   UNL     1      33.435 -15.001 -24.635  0.00  0.00    +0.091 C 
ATOM     12  C   UNL     1      34.364 -16.151 -24.936  0.00  0.00    +0.223 C 
ATOM     13  H   UNL     1      35.834 -17.051 -23.735  0.00  0.00    +0.149 HD
ENDBRANCH   1   9
BRANCH   5  14
ATOM     14  O   UNL     1      30.725 -11.104 -20.215  0.00  0.00    -0.468 OA
ATOM     15  C   UNL     1      31.324 -10.455 -19.096  0.00  0.00    +0.253 C 
ENDBRANCH   5  14
BRANCH   2  16
ATOM     16  O   UNL     1      31.443 -10.241 -22.758  0.00  0.00    -0.476 OA
BRANCH  16  17
ATOM     17  C   UNL     1      32.424  -9.291 -23.153  0.00  0.00    +0.166 C 
ATOM     18  C   UNL     1      32.918  -8.535 -21.928  0.00  0.00    +0.044 C 
ATOM     19  C   UNL     1      31.791  -8.197 -23.999  0.00  0.00    +0.044 C 
ATOM     20  C   UNL     1      31.837  -7.489 -21.661  0.00  0.00    +0.004 C 
ATOM     21  C   UNL     1      31.094  -7.295 -22.983  0.00  0.00    +0.004 C 
ENDBRANCH  16  17
ENDBRANCH   2  16
TORSDOF 4
ENDMDL
MODEL 5
REMARK VINA RESULT:      -8.5      2.786      7.972
REMARK  Name = 158758
REMARK  4 active torsions:
REMARK  status: ('A' for Active; 'I' for Inactive)
REMARK    1  A    between atoms: C_1  and  C_9
REMARK    2  A    between atoms: C_2  and  O_16
REMARK    3  A    between atoms: C_5  and  O_14
REMARK    4  A    between atoms: O_16  and  C_17
REMARK                            x       y       z     vdW  Elec       q    Type
REMARK                         _______ _______ _______ _____ _____    ______ ____
ROOT
ATOM      1  C   UNL     1      34.400 -18.885 -21.464  0.00  0.00    -0.017 C 
ATOM      2  C   UNL     1      34.323 -16.664 -22.393  0.00  0.00    +0.172 C 
ATOM      3  C   UNL     1      34.087 -17.532 -21.331  0.00  0.00    +0.036 C 
ATOM      4  C   UNL     1      34.948 -19.362 -22.655  0.00  0.00    -0.001 C 
ATOM      5  C   UNL     1      34.870 -17.133 -23.583  0.00  0.00    +0.172 C 
ATOM      6  C   UNL     1      35.183 -18.486 -23.714  0.00  0.00    +0.040 C 
ENDROOT
BRANCH   1   9
ATOM      7  O   UNL     1      34.968 -22.916 -18.717  0.00  0.00    -0.275 OA
ATOM      8  N   UNL     1      33.100 -21.776 -19.544  0.00  0.00    -0.304 N 
ATOM      9  C   UNL     1      34.145 -19.836 -20.314  0.00  0.00    +0.051 C 
ATOM     10  C   UNL     1      32.849 -20.645 -20.393  0.00  0.00    +0.094 C 
ATOM     11  C   UNL     1      35.201 -20.940 -20.112  0.00  0.00    +0.091 C 
ATOM     12  C   UNL     1      34.454 -22.006 -19.347  0.00  0.00    +0.223 C 
ATOM     13  H   UNL     1      32.389 -22.327 -19.145  0.00  0.00    +0.149 HD
ENDBRANCH   1   9
BRANCH   5  14
ATOM     14  O   UNL     1      35.104 -16.286 -24.624  0.00  0.00    -0.468 OA
ATOM     15  C   UNL     1      34.043 -16.099 -25.558  0.00  0.00    +0.253 C 
ENDBRANCH   5  14
BRANCH   2  16
ATOM     16  O   UNL     1      34.013 -15.337 -22.251  0.00  0.00    -0.476 OA
BRANCH  16  17
ATOM     17  C   UNL     1      32.632 -14.999 -22.250  0.00  0.00    +0.166 C 
ATOM     18  C   UNL     1      32.402 -13.811 -23.173  0.00  0.00    +0.044 C 
ATOM     19  C   UNL     1      32.218 -14.461 -20.889  0.00  0.00    +0.044 C 
ATOM     20  C   UNL     1      32.824 -12.597 -22.347  0.00  0.00    +0.004 C 
ATOM     21  C   UNL     1      32.735 -13.024 -20.882  0.00  0.00    +0.004 C 
ENDBRANCH  16  17
ENDBRANCH   2  16
TORSDOF 4
ENDMDL
MODEL 6
REMARK VINA RESULT:      -8.5      4.725      7.273
REMARK  Name = 158758
REMARK  4 active torsions:
REMARK  status: ('A' for Active; 'I' for Inactive)
REMARK    1  A    between atoms: C_1  and  C_9
REMARK    2  A    between atoms: C_2  and  O_16
REMARK    3  A    between atoms: C_5  and  O_14
REMARK    4  A    between atoms: O_16  and  C_17
REMARK                            x       y       z     vdW  Elec       q    Type
REMARK                         _______ _______ _______ _____ _____    ______ ____
ROOT
ATOM      1  C   UNL     1      33.811 -14.281 -23.645  0.00  0.00    -0.017 C 
ATOM      2  C   UNL     1      34.857 -16.451 -23.620  0.00  0.00    +0.172 C 
ATOM      3  C   UNL     1      34.558 -15.253 -22.979  0.00  0.00    +0.036 C 
ATOM      4  C   UNL     1      33.367 -14.512 -24.947  0.00  0.00    -0.001 C 
ATOM      5  C   UNL     1      34.417 -16.688 -24.918  0.00  0.00    +0.172 C 
ATOM      6  C   UNL     1      33.670 -15.715 -25.583  0.00  0.00    +0.040 C 
ENDROOT
BRANCH   1   9
ATOM      7  O   UNL     1      30.987 -10.881 -21.505  0.00  0.00    -0.275 OA
ATOM      8  N   UNL     1      32.671 -10.794 -23.127  0.00  0.00    -0.304 N 
ATOM      9  C   UNL     1      33.483 -12.975 -22.954  0.00  0.00    +0.051 C 
ATOM     10  C   UNL     1      33.490 -11.730 -23.843  0.00  0.00    +0.094 C 
ATOM     11  C   UNL     1      32.089 -12.895 -22.302  0.00  0.00    +0.091 C 
ATOM     12  C   UNL     1      31.824 -11.411 -22.217  0.00  0.00    +0.223 C 
ATOM     13  H   UNL     1      32.705  -9.819 -23.266  0.00  0.00    +0.149 HD
ENDBRANCH   1   9
BRANCH   5  14
ATOM     14  O   UNL     1      34.706 -17.860 -25.550  0.00  0.00    -0.468 OA
ATOM     15  C   UNL     1      33.943 -19.004 -25.172  0.00  0.00    +0.253 C 
ENDBRANCH   5  14
BRANCH   2  16
ATOM     16  O   UNL     1      35.590 -17.399 -22.955  0.00  0.00    -0.476 OA
BRANCH  16  17
ATOM     17  C   UNL     1      35.382 -17.500 -21.552  0.00  0.00    +0.166 C 
ATOM     18  C   UNL     1      36.215 -18.648 -21.000  0.00  0.00    +0.044 C 
ATOM     19  C   UNL     1      33.956 -17.940 -21.259  0.00  0.00    +0.044 C 
ATOM     20  C   UNL     1      35.409 -19.902 -21.333  0.00  0.00    +0.004 C 
ATOM     21  C   UNL     1      33.965 -19.443 -21.530  0.00  0.00    +0.004 C 
ENDBRANCH  16  17
ENDBRANCH   2  16
TORSDOF 4
ENDMDL
MODEL 7
REMARK VINA RESULT:      -8.4      6.732     10.150
REMARK  Name = 158758
REMARK  4 active torsions:
REMARK  status: ('A' for Active; 'I' for Inactive)
REMARK    1  A    between atoms: C_1  and  C_9
REMARK    2  A    between atoms: C_2  and  O_16
REMARK    3  A    between atoms: C_5  and  O_14
REMARK    4  A    between atoms: O_16  and  C_17
REMARK                            x       y       z     vdW  Elec       q    Type
REMARK                         _______ _______ _______ _____ _____    ______ ____
ROOT
ATOM      1  C   UNL     1      32.309 -10.692 -22.355  0.00  0.00    -0.017 C 
ATOM      2  C   UNL     1      32.510 -13.077 -22.626  0.00  0.00    +0.172 C 
ATOM      3  C   UNL     1      32.029 -11.984 -21.912  0.00  0.00    +0.036 C 
ATOM      4  C   UNL     1      33.067 -10.499 -23.510  0.00  0.00    -0.001 C 
ATOM      5  C   UNL     1      33.267 -12.892 -23.779  0.00  0.00    +0.172 C 
ATOM      6  C   UNL     1      33.546 -11.598 -24.222  0.00  0.00    +0.040 C 
ENDROOT
BRANCH   1   9
ATOM      7  O   UNL     1      32.133  -6.034 -20.809  0.00  0.00    -0.275 OA
ATOM      8  N   UNL     1      31.995  -8.103 -19.723  0.00  0.00    -0.304 N 
ATOM      9  C   UNL     1      31.791  -9.498 -21.583  0.00  0.00    +0.051 C 
ATOM     10  C   UNL     1      32.098  -9.488 -20.085  0.00  0.00    +0.094 C 
ATOM     11  C   UNL     1      32.330  -8.126 -22.030  0.00  0.00    +0.091 C 
ATOM     12  C   UNL     1      32.129  -7.255 -20.814  0.00  0.00    +0.223 C 
ATOM     13  H   UNL     1      31.845  -7.788 -18.802  0.00  0.00    +0.149 HD
ENDBRANCH   1   9
BRANCH   5  14
ATOM     14  O   UNL     1      33.738 -13.958 -24.482  0.00  0.00    -0.468 OA
ATOM     15  C   UNL     1      32.994 -14.356 -25.632  0.00  0.00    +0.253 C 
ENDBRANCH   5  14
BRANCH   2  16
ATOM     16  O   UNL     1      32.227 -14.342 -22.181  0.00  0.00    -0.476 OA
BRANCH  16  17
ATOM     17  C   UNL     1      32.678 -14.676 -20.875  0.00  0.00    +0.166 C 
ATOM     18  C   UNL     1      34.197 -14.601 -20.830  0.00  0.00    +0.044 C 
ATOM     19  C   UNL     1      32.398 -16.141 -20.577  0.00  0.00    +0.044 C 
ATOM     20  C   UNL     1      34.665 -15.913 -21.459  0.00  0.00    +0.004 C 
ATOM     21  C   UNL     1      33.499 -16.891 -21.324  0.00  0.00    +0.004 C 
ENDBRANCH  16  17
ENDBRANCH   2  16
TORSDOF 4
ENDMDL
MODEL 8
REMARK VINA RESULT:      -8.4      2.793      4.331
REMARK  Name = 158758
REMARK  4 active torsions:
REMARK  status: ('A' for Active; 'I' for Inactive)
REMARK    1  A    between atoms: C_1  and  C_9
REMARK    2  A    between atoms: C_2  and  O_16
REMARK    3  A    between atoms: C_5  and  O_14
REMARK    4  A    between atoms: O_16  and  C_17
REMARK                            x       y       z     vdW  Elec       q    Type
REMARK                         _______ _______ _______ _____ _____    ______ ____
ROOT
ATOM      1  C   UNL     1      33.823 -22.957 -17.427  0.00  0.00    -0.017 C 
ATOM      2  C   UNL     1      34.351 -23.979 -15.310  0.00  0.00    +0.172 C 
ATOM      3  C   UNL     1      34.766 -23.476 -16.540  0.00  0.00    +0.036 C 
ATOM      4  C   UNL     1      32.472 -22.941 -17.081  0.00  0.00    -0.001 C 
ATOM      5  C   UNL     1      33.005 -23.966 -14.959  0.00  0.00    +0.172 C 
ATOM      6  C   UNL     1      32.063 -23.446 -15.847  0.00  0.00    +0.040 C 
ENDROOT
BRANCH   1   9
ATOM      7  O   UNL     1      36.528 -20.318 -20.563  0.00  0.00    -0.275 OA
ATOM      8  N   UNL     1      34.226 -20.648 -20.297  0.00  0.00    -0.304 N 
ATOM      9  C   UNL     1      34.267 -22.410 -18.767  0.00  0.00    +0.051 C 
ATOM     10  C   UNL     1      33.363 -21.342 -19.384  0.00  0.00    +0.094 C 
ATOM     11  C   UNL     1      35.642 -21.714 -18.783  0.00  0.00    +0.091 C 
ATOM     12  C   UNL     1      35.571 -20.820 -19.997  0.00  0.00    +0.223 C 
ATOM     13  H   UNL     1      33.901 -20.110 -21.055  0.00  0.00    +0.149 HD
ENDBRANCH   1   9
BRANCH   5  14
ATOM     14  O   UNL     1      32.594 -24.456 -13.756  0.00  0.00    -0.468 OA
ATOM     15  C   UNL     1      31.316 -25.087 -13.716  0.00  0.00    +0.253 C 
ENDBRANCH   5  14
BRANCH   2  16
ATOM     16  O   UNL     1      35.286 -24.486 -14.447  0.00  0.00    -0.476 OA
BRANCH  16  17
ATOM     17  C   UNL     1      36.587 -24.711 -14.973  0.00  0.00    +0.166 C 
ATOM     18  C   UNL     1      36.840 -26.208 -15.070  0.00  0.00    +0.044 C 
ATOM     19  C   UNL     1      37.646 -24.247 -13.985  0.00  0.00    +0.044 C 
ATOM     20  C   UNL     1      37.211 -26.627 -13.648  0.00  0.00    +0.004 C 
ATOM     21  C   UNL     1      37.699 -25.362 -12.942  0.00  0.00    +0.004 C 
ENDBRANCH  16  17
ENDBRANCH   2  16
TORSDOF 4
ENDMDL
MODEL 9
REMARK VINA RESULT:      -8.3      3.136      8.202
REMARK  Name = 158758
REMARK  4 active torsions:
REMARK  status: ('A' for Active; 'I' for Inactive)
REMARK    1  A    between atoms: C_1  and  C_9
REMARK    2  A    between atoms: C_2  and  O_16
REMARK    3  A    between atoms: C_5  and  O_14
REMARK    4  A    between atoms: O_16  and  C_17
REMARK                            x       y       z     vdW  Elec       q    Type
REMARK                         _______ _______ _______ _____ _____    ______ ____
ROOT
ATOM      1  C   UNL     1      34.971 -18.146 -22.889  0.00  0.00    -0.017 C 
ATOM      2  C   UNL     1      34.216 -15.867 -23.091  0.00  0.00    +0.172 C 
ATOM      3  C   UNL     1      34.572 -16.949 -22.293  0.00  0.00    +0.036 C 
ATOM      4  C   UNL     1      35.013 -18.253 -24.279  0.00  0.00    -0.001 C 
ATOM      5  C   UNL     1      34.256 -15.967 -24.478  0.00  0.00    +0.172 C 
ATOM      6  C   UNL     1      34.655 -17.164 -25.073  0.00  0.00    +0.040 C 
ENDROOT
BRANCH   1   9
ATOM      7  O   UNL     1      34.496 -21.499 -19.333  0.00  0.00    -0.275 OA
ATOM      8  N   UNL     1      36.246 -20.102 -20.012  0.00  0.00    -0.304 N 
ATOM      9  C   UNL     1      35.358 -19.328 -22.027  0.00  0.00    +0.051 C 
ATOM     10  C   UNL     1      36.447 -19.066 -20.985  0.00  0.00    +0.094 C 
ATOM     11  C   UNL     1      34.229 -19.928 -21.167  0.00  0.00    +0.091 C 
ATOM     12  C   UNL     1      34.969 -20.642 -20.062  0.00  0.00    +0.223 C 
ATOM     13  H   UNL     1      36.940 -20.399 -19.379  0.00  0.00    +0.149 HD
ENDBRANCH   1   9
BRANCH   5  14
ATOM     14  O   UNL     1      33.910 -14.910 -25.264  0.00  0.00    -0.468 OA
ATOM     15  C   UNL     1      32.931 -15.146 -26.273  0.00  0.00    +0.253 C 
ENDBRANCH   5  14
BRANCH   2  16
ATOM     16  O   UNL     1      33.827 -14.697 -22.494  0.00  0.00    -0.476 OA
BRANCH  16  17
ATOM     17  C   UNL     1      32.438 -14.543 -22.231  0.00  0.00    +0.166 C 
ATOM     18  C   UNL     1      31.996 -13.150 -22.653  0.00  0.00    +0.044 C 
ATOM     19  C   UNL     1      32.179 -14.546 -20.732  0.00  0.00    +0.044 C 
ATOM     20  C   UNL     1      32.437 -12.243 -21.504  0.00  0.00    +0.004 C 
ATOM     21  C   UNL     1      32.584 -13.146 -20.279  0.00  0.00    +0.004 C 
ENDBRANCH  16  17
ENDBRANCH   2  16
TORSDOF 4
ENDMDL
