MODEL 1
REMARK VINA RESULT:      -6.8      0.000      0.000
REMARK  Name = 647
REMARK  8 active torsions:
REMARK  status: ('A' for Active; 'I' for Inactive)
REMARK    1  A    between atoms: P_1  and  O_3
REMARK    2  A    between atoms: P_1  and  O_5
REMARK    3  A    between atoms: P_1  and  O_11
REMARK    4  A    between atoms: O_5  and  C_6
REMARK    5  A    between atoms: C_6  and  C_8
REMARK    6  A    between atoms: O_11  and  P_12
REMARK    7  A    between atoms: P_12  and  O_14
REMARK    8  A    between atoms: P_12  and  O_16
REMARK                            x       y       z     vdW  Elec       q    Type
REMARK                         _______ _______ _______ _____ _____    ______ ____
ROOT
ATOM      1  P   UNL     1      37.601 -25.109 -12.590  0.00  0.00    +0.484 P 
ATOM      2  O   UNL     1      37.654 -24.482 -11.227  0.00  0.00    -0.227 OA
ENDROOT
BRANCH   1   3
ATOM      3  O   UNL     1      36.885 -26.560 -12.630  0.00  0.00    -0.302 OA
ATOM      4  H   UNL     1      35.922 -26.445 -12.648  0.00  0.00    +0.222 HD
ENDBRANCH   1   3
BRANCH   1   5
ATOM      5  O   UNL     1      36.814 -24.238 -13.700  0.00  0.00    -0.268 OA
BRANCH   5   6
ATOM      6  C   UNL     1      35.406 -24.381 -13.843  0.00  0.00    +0.179 C 
BRANCH   6   8
ATOM      7  C   UNL     1      33.828 -23.532 -15.669  0.00  0.00    -0.045 C 
ATOM      8  C   UNL     1      35.007 -24.020 -15.240  0.00  0.00    -0.002 C 
ATOM      9  C   UNL     1      33.615 -23.233 -17.130  0.00  0.00    +0.026 C 
ATOM     10  C   UNL     1      32.639 -23.237 -14.799  0.00  0.00    +0.026 C 
ENDBRANCH   6   8
ENDBRANCH   5   6
ENDBRANCH   1   5
BRANCH   1  11
ATOM     11  O   UNL     1      39.050 -25.393 -13.246  0.00  0.00    -0.186 OA
BRANCH  11  12
ATOM     12  P   UNL     1      39.497 -25.597 -14.786  0.00  0.00    +0.481 P 
ATOM     13  O   UNL     1      40.852 -26.217 -14.966  0.00  0.00    -0.227 OA
BRANCH  12  14
ATOM     14  O   UNL     1      39.325 -24.120 -15.418  0.00  0.00    -0.302 OA
ATOM     15  H   UNL     1      40.104 -23.906 -15.955  0.00  0.00    +0.222 HD
ENDBRANCH  12  14
BRANCH  12  16
ATOM     16  O   UNL     1      38.267 -26.430 -15.423  0.00  0.00    -0.302 OA
ATOM     17  H   UNL     1      37.776 -25.861 -16.036  0.00  0.00    +0.222 HD
ENDBRANCH  12  16
ENDBRANCH  11  12
ENDBRANCH   1  11
TORSDOF 8
ENDMDL
MODEL 2
REMARK VINA RESULT:      -6.7      2.284      2.968
REMARK  Name = 647
REMARK  8 active torsions:
REMARK  status: ('A' for Active; 'I' for Inactive)
REMARK    1  A    between atoms: P_1  and  O_3
REMARK    2  A    between atoms: P_1  and  O_5
REMARK    3  A    between atoms: P_1  and  O_11
REMARK    4  A    between atoms: O_5  and  C_6
REMARK    5  A    between atoms: C_6  and  C_8
REMARK    6  A    between atoms: O_11  and  P_12
REMARK    7  A    between atoms: P_12  and  O_14
REMARK    8  A    between atoms: P_12  and  O_16
REMARK                            x       y       z     vdW  Elec       q    Type
REMARK                         _______ _______ _______ _____ _____    ______ ____
ROOT
ATOM      1  P   UNL     1      37.241 -24.117 -14.722  0.00  0.00    +0.484 P 
ATOM      2  O   UNL     1      36.937 -24.301 -13.263  0.00  0.00    -0.227 OA
ENDROOT
BRANCH   1   3
ATOM      3  O   UNL     1      36.542 -25.208 -15.692  0.00  0.00    -0.302 OA
ATOM      4  H   UNL     1      35.684 -25.467 -15.321  0.00  0.00    +0.222 HD
ENDBRANCH   1   3
BRANCH   1   5
ATOM      5  O   UNL     1      36.789 -22.688 -15.327  0.00  0.00    -0.268 OA
BRANCH   5   6
ATOM      6  C   UNL     1      35.821 -22.635 -16.368  0.00  0.00    +0.179 C 
BRANCH   6   8
ATOM      7  C   UNL     1      35.828 -21.704 -18.751  0.00  0.00    -0.045 C 
ATOM      8  C   UNL     1      36.415 -21.963 -17.567  0.00  0.00    -0.002 C 
ATOM      9  C   UNL     1      36.599 -21.017 -19.847  0.00  0.00    +0.026 C 
ATOM     10  C   UNL     1      34.411 -22.046 -19.114  0.00  0.00    +0.026 C 
ENDBRANCH   6   8
ENDBRANCH   5   6
ENDBRANCH   1   5
BRANCH   1  11
ATOM     11  O   UNL     1      38.808 -24.241 -15.093  0.00  0.00    -0.186 OA
BRANCH  11  12
ATOM     12  P   UNL     1      39.875 -25.424 -14.816  0.00  0.00    +0.481 P 
ATOM     13  O   UNL     1      41.004 -25.045 -13.904  0.00  0.00    -0.227 OA
BRANCH  12  14
ATOM     14  O   UNL     1      40.312 -25.881 -16.303  0.00  0.00    -0.302 OA
ATOM     15  H   UNL     1      40.400 -25.097 -16.868  0.00  0.00    +0.222 HD
ENDBRANCH  12  14
BRANCH  12  16
ATOM     16  O   UNL     1      38.950 -26.645 -14.300  0.00  0.00    -0.302 OA
ATOM     17  H   UNL     1      39.257 -27.473 -14.700  0.00  0.00    +0.222 HD
ENDBRANCH  12  16
ENDBRANCH  11  12
ENDBRANCH   1  11
TORSDOF 8
ENDMDL
MODEL 3
REMARK VINA RESULT:      -6.4      2.359      4.070
REMARK  Name = 647
REMARK  8 active torsions:
REMARK  status: ('A' for Active; 'I' for Inactive)
REMARK    1  A    between atoms: P_1  and  O_3
REMARK    2  A    between atoms: P_1  and  O_5
REMARK    3  A    between atoms: P_1  and  O_11
REMARK    4  A    between atoms: O_5  and  C_6
REMARK    5  A    between atoms: C_6  and  C_8
REMARK    6  A    between atoms: O_11  and  P_12
REMARK    7  A    between atoms: P_12  and  O_14
REMARK    8  A    between atoms: P_12  and  O_16
REMARK                            x       y       z     vdW  Elec       q    Type
REMARK                         _______ _______ _______ _____ _____    ______ ____
ROOT
ATOM      1  P   UNL     1      37.490 -24.333 -14.582  0.00  0.00    +0.484 P 
ATOM      2  O   UNL     1      36.822 -25.481 -15.281  0.00  0.00    -0.227 OA
ENDROOT
BRANCH   1   3
ATOM      3  O   UNL     1      38.996 -24.645 -14.077  0.00  0.00    -0.302 OA
ATOM      4  H   UNL     1      39.491 -23.813 -14.007  0.00  0.00    +0.222 HD
ENDBRANCH   1   3
BRANCH   1   5
ATOM      5  O   UNL     1      37.630 -22.993 -15.474  0.00  0.00    -0.268 OA
BRANCH   5   6
ATOM      6  C   UNL     1      36.476 -22.424 -16.080  0.00  0.00    +0.179 C 
BRANCH   6   8
ATOM      7  C   UNL     1      36.083 -21.756 -18.518  0.00  0.00    -0.045 C 
ATOM      8  C   UNL     1      36.846 -21.850 -17.413  0.00  0.00    -0.002 C 
ATOM      9  C   UNL     1      36.640 -21.145 -19.777  0.00  0.00    +0.026 C 
ATOM     10  C   UNL     1      34.658 -22.219 -18.636  0.00  0.00    +0.026 C 
ENDBRANCH   6   8
ENDBRANCH   5   6
ENDBRANCH   1   5
BRANCH   1  11
ATOM     11  O   UNL     1      36.740 -23.851 -13.235  0.00  0.00    -0.186 OA
BRANCH  11  12
ATOM     12  P   UNL     1      36.312 -24.668 -11.907  0.00  0.00    +0.481 P 
ATOM     13  O   UNL     1      36.679 -23.999 -10.616  0.00  0.00    -0.227 OA
BRANCH  12  14
ATOM     14  O   UNL     1      36.973 -26.124 -12.142  0.00  0.00    -0.302 OA
ATOM     15  H   UNL     1      36.893 -26.649 -11.330  0.00  0.00    +0.222 HD
ENDBRANCH  12  14
BRANCH  12  16
ATOM     16  O   UNL     1      34.732 -24.929 -12.124  0.00  0.00    -0.302 OA
ATOM     17  H   UNL     1      34.551 -25.881 -12.070  0.00  0.00    +0.222 HD
ENDBRANCH  12  16
ENDBRANCH  11  12
ENDBRANCH   1  11
TORSDOF 8
ENDMDL
MODEL 4
REMARK VINA RESULT:      -6.4      2.536      3.531
REMARK  Name = 647
REMARK  8 active torsions:
REMARK  status: ('A' for Active; 'I' for Inactive)
REMARK    1  A    between atoms: P_1  and  O_3
REMARK    2  A    between atoms: P_1  and  O_5
REMARK    3  A    between atoms: P_1  and  O_11
REMARK    4  A    between atoms: O_5  and  C_6
REMARK    5  A    between atoms: C_6  and  C_8
REMARK    6  A    between atoms: O_11  and  P_12
REMARK    7  A    between atoms: P_12  and  O_14
REMARK    8  A    between atoms: P_12  and  O_16
REMARK                            x       y       z     vdW  Elec       q    Type
REMARK                         _______ _______ _______ _____ _____    ______ ____
ROOT
ATOM      1  P   UNL     1      37.065 -23.537 -14.338  0.00  0.00    +0.484 P 
ATOM      2  O   UNL     1      37.600 -22.937 -13.071  0.00  0.00    -0.227 OA
ENDROOT
BRANCH   1   3
ATOM      3  O   UNL     1      35.488 -23.897 -14.291  0.00  0.00    -0.302 OA
ATOM      4  H   UNL     1      35.029 -23.436 -15.012  0.00  0.00    +0.222 HD
ENDBRANCH   1   3
BRANCH   1   5
ATOM      5  O   UNL     1      37.228 -22.601 -15.646  0.00  0.00    -0.268 OA
BRANCH   5   6
ATOM      6  C   UNL     1      36.122 -22.406 -16.518  0.00  0.00    +0.179 C 
BRANCH   6   8
ATOM      7  C   UNL     1      35.921 -21.585 -18.932  0.00  0.00    -0.045 C 
ATOM      8  C   UNL     1      36.589 -21.738 -17.774  0.00  0.00    -0.002 C 
ATOM      9  C   UNL     1      36.569 -20.882 -20.096  0.00  0.00    +0.026 C 
ATOM     10  C   UNL     1      34.524 -22.066 -19.203  0.00  0.00    +0.026 C 
ENDBRANCH   6   8
ENDBRANCH   5   6
ENDBRANCH   1   5
BRANCH   1  11
ATOM     11  O   UNL     1      37.753 -24.939 -14.750  0.00  0.00    -0.186 OA
BRANCH  11  12
ATOM     12  P   UNL     1      37.192 -26.454 -14.695  0.00  0.00    +0.481 P 
ATOM     13  O   UNL     1      36.181 -26.784 -15.753  0.00  0.00    -0.227 OA
BRANCH  12  14
ATOM     14  O   UNL     1      36.669 -26.598 -13.173  0.00  0.00    -0.302 OA
ATOM     15  H   UNL     1      37.134 -25.958 -12.611  0.00  0.00    +0.222 HD
ENDBRANCH  12  14
BRANCH  12  16
ATOM     16  O   UNL     1      38.537 -27.351 -14.722  0.00  0.00    -0.302 OA
ATOM     17  H   UNL     1      38.363 -28.205 -14.297  0.00  0.00    +0.222 HD
ENDBRANCH  12  16
ENDBRANCH  11  12
ENDBRANCH   1  11
TORSDOF 8
ENDMDL
MODEL 5
REMARK VINA RESULT:      -6.3     11.108     12.437
REMARK  Name = 647
REMARK  8 active torsions:
REMARK  status: ('A' for Active; 'I' for Inactive)
REMARK    1  A    between atoms: P_1  and  O_3
REMARK    2  A    between atoms: P_1  and  O_5
REMARK    3  A    between atoms: P_1  and  O_11
REMARK    4  A    between atoms: O_5  and  C_6
REMARK    5  A    between atoms: C_6  and  C_8
REMARK    6  A    between atoms: O_11  and  P_12
REMARK    7  A    between atoms: P_12  and  O_14
REMARK    8  A    between atoms: P_12  and  O_16
REMARK                            x       y       z     vdW  Elec       q    Type
REMARK                         _______ _______ _______ _____ _____    ______ ____
ROOT
ATOM      1  P   UNL     1      34.482 -16.038 -21.787  0.00  0.00    +0.484 P 
ATOM      2  O   UNL     1      34.933 -15.193 -20.631  0.00  0.00    -0.227 OA
ENDROOT
BRANCH   1   3
ATOM      3  O   UNL     1      35.599 -16.242 -22.941  0.00  0.00    -0.302 OA
ATOM      4  H   UNL     1      35.669 -15.432 -23.470  0.00  0.00    +0.222 HD
ENDBRANCH   1   3
BRANCH   1   5
ATOM      5  O   UNL     1      34.032 -17.537 -21.388  0.00  0.00    -0.268 OA
BRANCH   5   6
ATOM      6  C   UNL     1      34.540 -18.646 -22.120  0.00  0.00    +0.179 C 
BRANCH   6   8
ATOM      7  C   UNL     1      34.685 -20.458 -20.320  0.00  0.00    -0.045 C 
ATOM      8  C   UNL     1      35.235 -19.585 -21.184  0.00  0.00    -0.002 C 
ATOM      9  C   UNL     1      35.560 -21.321 -19.449  0.00  0.00    +0.026 C 
ATOM     10  C   UNL     1      33.211 -20.675 -20.120  0.00  0.00    +0.026 C 
ENDBRANCH   6   8
ENDBRANCH   5   6
ENDBRANCH   1   5
BRANCH   1  11
ATOM     11  O   UNL     1      33.220 -15.434 -22.596  0.00  0.00    -0.186 OA
BRANCH  11  12
ATOM     12  P   UNL     1      33.075 -14.097 -23.492  0.00  0.00    +0.481 P 
ATOM     13  O   UNL     1      32.816 -14.346 -24.949  0.00  0.00    -0.227 OA
BRANCH  12  14
ATOM     14  O   UNL     1      34.431 -13.283 -23.162  0.00  0.00    -0.302 OA
ATOM     15  H   UNL     1      34.856 -13.669 -22.380  0.00  0.00    +0.222 HD
ENDBRANCH  12  14
BRANCH  12  16
ATOM     16  O   UNL     1      31.930 -13.255 -22.722  0.00  0.00    -0.302 OA
ATOM     17  H   UNL     1      32.347 -12.589 -22.154  0.00  0.00    +0.222 HD
ENDBRANCH  12  16
ENDBRANCH  11  12
ENDBRANCH   1  11
TORSDOF 8
ENDMDL
MODEL 6
REMARK VINA RESULT:      -6.1      1.766      3.702
REMARK  Name = 647
REMARK  8 active torsions:
REMARK  status: ('A' for Active; 'I' for Inactive)
REMARK    1  A    between atoms: P_1  and  O_3
REMARK    2  A    between atoms: P_1  and  O_5
REMARK    3  A    between atoms: P_1  and  O_11
REMARK    4  A    between atoms: O_5  and  C_6
REMARK    5  A    between atoms: C_6  and  C_8
REMARK    6  A    between atoms: O_11  and  P_12
REMARK    7  A    between atoms: P_12  and  O_14
REMARK    8  A    between atoms: P_12  and  O_16
REMARK                            x       y       z     vdW  Elec       q    Type
REMARK                         _______ _______ _______ _____ _____    ______ ____
ROOT
ATOM      1  P   UNL     1      36.801 -24.830 -14.568  0.00  0.00    +0.484 P 
ATOM      2  O   UNL     1      36.835 -25.964 -15.551  0.00  0.00    -0.227 OA
ENDROOT
BRANCH   1   3
ATOM      3  O   UNL     1      38.252 -24.203 -14.222  0.00  0.00    -0.302 OA
ATOM      4  H   UNL     1      38.910 -24.915 -14.180  0.00  0.00    +0.222 HD
ENDBRANCH   1   3
BRANCH   1   5
ATOM      5  O   UNL     1      35.913 -23.563 -15.035  0.00  0.00    -0.268 OA
BRANCH   5   6
ATOM      6  C   UNL     1      34.700 -23.775 -15.749  0.00  0.00    +0.179 C 
BRANCH   6   8
ATOM      7  C   UNL     1      32.262 -23.273 -15.159  0.00  0.00    -0.045 C 
ATOM      8  C   UNL     1      33.538 -23.552 -14.832  0.00  0.00    -0.002 C 
ATOM      9  C   UNL     1      31.226 -23.076 -14.083  0.00  0.00    +0.026 C 
ATOM     10  C   UNL     1      31.733 -23.130 -16.558  0.00  0.00    +0.026 C 
ENDBRANCH   6   8
ENDBRANCH   5   6
ENDBRANCH   1   5
BRANCH   1  11
ATOM     11  O   UNL     1      36.213 -25.228 -13.117  0.00  0.00    -0.186 OA
BRANCH  11  12
ATOM     12  P   UNL     1      36.269 -24.453 -11.700  0.00  0.00    +0.481 P 
ATOM     13  O   UNL     1      35.284 -24.944 -10.680  0.00  0.00    -0.227 OA
BRANCH  12  14
ATOM     14  O   UNL     1      36.109 -22.902 -12.122  0.00  0.00    -0.302 OA
ATOM     15  H   UNL     1      35.418 -22.821 -12.798  0.00  0.00    +0.222 HD
ENDBRANCH  12  14
BRANCH  12  16
ATOM     16  O   UNL     1      37.823 -24.571 -11.271  0.00  0.00    -0.302 OA
ATOM     17  H   UNL     1      38.073 -25.507 -11.218  0.00  0.00    +0.222 HD
ENDBRANCH  12  16
ENDBRANCH  11  12
ENDBRANCH   1  11
TORSDOF 8
ENDMDL
MODEL 7
REMARK VINA RESULT:      -6.1      3.183      4.509
REMARK  Name = 647
REMARK  8 active torsions:
REMARK  status: ('A' for Active; 'I' for Inactive)
REMARK    1  A    between atoms: P_1  and  O_3
REMARK    2  A    between atoms: P_1  and  O_5
REMARK    3  A    between atoms: P_1  and  O_11
REMARK    4  A    between atoms: O_5  and  C_6
REMARK    5  A    between atoms: C_6  and  C_8
REMARK    6  A    between atoms: O_11  and  P_12
REMARK    7  A    between atoms: P_12  and  O_14
REMARK    8  A    between atoms: P_12  and  O_16
REMARK                            x       y       z     vdW  Elec       q    Type
REMARK                         _______ _______ _______ _____ _____    ______ ____
ROOT
ATOM      1  P   UNL     1      34.699 -24.119 -13.858  0.00  0.00    +0.484 P 
ATOM      2  O   UNL     1      35.641 -25.130 -14.445  0.00  0.00    -0.227 OA
ENDROOT
BRANCH   1   3
ATOM      3  O   UNL     1      34.930 -22.606 -14.384  0.00  0.00    -0.302 OA
ATOM      4  H   UNL     1      35.775 -22.555 -14.859  0.00  0.00    +0.222 HD
ENDBRANCH   1   3
BRANCH   1   5
ATOM      5  O   UNL     1      33.136 -24.413 -14.144  0.00  0.00    -0.268 OA
BRANCH   5   6
ATOM      6  C   UNL     1      32.146 -23.524 -13.641  0.00  0.00    +0.179 C 
BRANCH   6   8
ATOM      7  C   UNL     1      30.184 -23.501 -15.282  0.00  0.00    -0.045 C 
ATOM      8  C   UNL     1      31.326 -22.998 -14.777  0.00  0.00    -0.002 C 
ATOM      9  C   UNL     1      29.502 -22.825 -16.442  0.00  0.00    +0.026 C 
ATOM     10  C   UNL     1      29.479 -24.732 -14.785  0.00  0.00    +0.026 C 
ENDBRANCH   6   8
ENDBRANCH   5   6
ENDBRANCH   1   5
BRANCH   1  11
ATOM     11  O   UNL     1      34.800 -23.973 -12.252  0.00  0.00    -0.186 OA
BRANCH  11  12
ATOM     12  P   UNL     1      36.027 -24.248 -11.236  0.00  0.00    +0.481 P 
ATOM     13  O   UNL     1      37.063 -23.163 -11.198  0.00  0.00    -0.227 OA
BRANCH  12  14
ATOM     14  O   UNL     1      36.567 -25.701 -11.696  0.00  0.00    -0.302 OA
ATOM     15  H   UNL     1      35.886 -26.368 -11.519  0.00  0.00    +0.222 HD
ENDBRANCH  12  14
BRANCH  12  16
ATOM     16  O   UNL     1      35.287 -24.546  -9.831  0.00  0.00    -0.302 OA
ATOM     17  H   UNL     1      34.737 -25.339  -9.917  0.00  0.00    +0.222 HD
ENDBRANCH  12  16
ENDBRANCH  11  12
ENDBRANCH   1  11
TORSDOF 8
ENDMDL
MODEL 8
REMARK VINA RESULT:      -6.1     11.366     12.641
REMARK  Name = 647
REMARK  8 active torsions:
REMARK  status: ('A' for Active; 'I' for Inactive)
REMARK    1  A    between atoms: P_1  and  O_3
REMARK    2  A    between atoms: P_1  and  O_5
REMARK    3  A    between atoms: P_1  and  O_11
REMARK    4  A    between atoms: O_5  and  C_6
REMARK    5  A    between atoms: C_6  and  C_8
REMARK    6  A    between atoms: O_11  and  P_12
REMARK    7  A    between atoms: P_12  and  O_14
REMARK    8  A    between atoms: P_12  and  O_16
REMARK                            x       y       z     vdW  Elec       q    Type
REMARK                         _______ _______ _______ _____ _____    ______ ____
ROOT
ATOM      1  P   UNL     1      33.873 -15.624 -21.431  0.00  0.00    +0.484 P 
ATOM      2  O   UNL     1      32.438 -15.700 -20.997  0.00  0.00    -0.227 OA
ENDROOT
BRANCH   1   3
ATOM      3  O   UNL     1      34.931 -15.478 -20.215  0.00  0.00    -0.302 OA
ATOM      4  H   UNL     1      34.466 -15.184 -19.416  0.00  0.00    +0.222 HD
ENDBRANCH   1   3
BRANCH   1   5
ATOM      5  O   UNL     1      34.390 -16.906 -22.267  0.00  0.00    -0.268 OA
BRANCH   5   6
ATOM      6  C   UNL     1      35.098 -17.945 -21.602  0.00  0.00    +0.179 C 
BRANCH   6   8
ATOM      7  C   UNL     1      34.380 -20.122 -20.465  0.00  0.00    -0.045 C 
ATOM      8  C   UNL     1      34.122 -18.933 -21.042  0.00  0.00    -0.002 C 
ATOM      9  C   UNL     1      33.252 -20.985 -19.963  0.00  0.00    +0.026 C 
ATOM     10  C   UNL     1      35.747 -20.712 -20.258  0.00  0.00    +0.026 C 
ENDBRANCH   6   8
ENDBRANCH   5   6
ENDBRANCH   1   5
BRANCH   1  11
ATOM     11  O   UNL     1      34.215 -14.357 -22.374  0.00  0.00    -0.186 OA
BRANCH  11  12
ATOM     12  P   UNL     1      33.392 -13.689 -23.594  0.00  0.00    +0.481 P 
ATOM     13  O   UNL     1      33.276 -14.553 -24.816  0.00  0.00    -0.227 OA
BRANCH  12  14
ATOM     14  O   UNL     1      34.145 -12.277 -23.817  0.00  0.00    -0.302 OA
ATOM     15  H   UNL     1      33.651 -11.574 -23.366  0.00  0.00    +0.222 HD
ENDBRANCH  12  14
BRANCH  12  16
ATOM     16  O   UNL     1      31.989 -13.268 -22.912  0.00  0.00    -0.302 OA
ATOM     17  H   UNL     1      32.146 -12.573 -22.253  0.00  0.00    +0.222 HD
ENDBRANCH  12  16
ENDBRANCH  11  12
ENDBRANCH   1  11
TORSDOF 8
ENDMDL
MODEL 9
REMARK VINA RESULT:      -6.1     11.399     12.640
REMARK  Name = 647
REMARK  8 active torsions:
REMARK  status: ('A' for Active; 'I' for Inactive)
REMARK    1  A    between atoms: P_1  and  O_3
REMARK    2  A    between atoms: P_1  and  O_5
REMARK    3  A    between atoms: P_1  and  O_11
REMARK    4  A    between atoms: O_5  and  C_6
REMARK    5  A    between atoms: C_6  and  C_8
REMARK    6  A    between atoms: O_11  and  P_12
REMARK    7  A    between atoms: P_12  and  O_14
REMARK    8  A    between atoms: P_12  and  O_16
REMARK                            x       y       z     vdW  Elec       q    Type
REMARK                         _______ _______ _______ _____ _____    ______ ____
ROOT
ATOM      1  P   UNL     1      34.267 -15.632 -21.640  0.00  0.00    +0.484 P 
ATOM      2  O   UNL     1      34.979 -15.198 -22.888  0.00  0.00    -0.227 OA
ENDROOT
BRANCH   1   3
ATOM      3  O   UNL     1      34.941 -15.101 -20.268  0.00  0.00    -0.302 OA
ATOM      4  H   UNL     1      34.518 -14.269 -20.001  0.00  0.00    +0.222 HD
ENDBRANCH   1   3
BRANCH   1   5
ATOM      5  O   UNL     1      32.726 -15.155 -21.546  0.00  0.00    -0.268 OA
BRANCH   5   6
ATOM      6  C   UNL     1      32.369 -13.836 -21.942  0.00  0.00    +0.179 C 
BRANCH   6   8
ATOM      7  C   UNL     1      31.564 -11.789 -20.635  0.00  0.00    -0.045 C 
ATOM      8  C   UNL     1      32.173 -12.987 -20.725  0.00  0.00    -0.002 C 
ATOM      9  C   UNL     1      31.470 -11.081 -19.310  0.00  0.00    +0.026 C 
ATOM     10  C   UNL     1      30.934 -11.045 -21.778  0.00  0.00    +0.026 C 
ENDBRANCH   6   8
ENDBRANCH   5   6
ENDBRANCH   1   5
BRANCH   1  11
ATOM     11  O   UNL     1      34.213 -17.233 -21.431  0.00  0.00    -0.186 OA
BRANCH  11  12
ATOM     12  P   UNL     1      35.321 -18.378 -21.705  0.00  0.00    +0.481 P 
ATOM     13  O   UNL     1      36.122 -18.773 -20.500  0.00  0.00    -0.227 OA
BRANCH  12  14
ATOM     14  O   UNL     1      36.177 -17.774 -22.935  0.00  0.00    -0.302 OA
ATOM     15  H   UNL     1      37.123 -17.890 -22.757  0.00  0.00    +0.222 HD
ENDBRANCH  12  14
BRANCH  12  16
ATOM     16  O   UNL     1      34.466 -19.568 -22.386  0.00  0.00    -0.302 OA
ATOM     17  H   UNL     1      34.018 -20.080 -21.695  0.00  0.00    +0.222 HD
ENDBRANCH  12  16
ENDBRANCH  11  12
ENDBRANCH   1  11
TORSDOF 8
ENDMDL
