MODEL 1
REMARK VINA RESULT:      -3.1      0.000      0.000
REMARK  Name = 15209
REMARK  4 active torsions:
REMARK  status: ('A' for Active; 'I' for Inactive)
REMARK    1  A    between atoms: C_8  and  C_30
REMARK    2  A    between atoms: C_13  and  O_27
REMARK    3  A    between atoms: C_30  and  C_31
REMARK    4  A    between atoms: C_31  and  O_32
REMARK                            x       y       z     vdW  Elec       q    Type
REMARK                         _______ _______ _______ _____ _____    ______ ____
ROOT
ATOM      1  F   UNL     1      32.336 -22.564 -18.183  0.00  0.00    -0.233 F 
ATOM      2  O   UNL     1      34.179 -15.827 -20.755  0.00  0.00    -0.330 OA
ATOM      3  O   UNL     1      31.862 -15.930 -21.136  0.00  0.00    -0.334 OA
ATOM      4  O   UNL     1      36.286 -22.291 -15.295  0.00  0.00    -0.291 OA
ATOM      5  C   UNL     1      34.642 -18.031 -21.786  0.00  0.00    +0.034 C 
ATOM      6  C   UNL     1      33.656 -18.690 -20.795  0.00  0.00    +0.005 C 
ATOM      7  C   UNL     1      33.984 -20.159 -20.498  0.00  0.00    +0.006 C 
ATOM      8  C   UNL     1      33.984 -16.633 -21.914  0.00  0.00    +0.173 C 
ATOM      9  C   UNL     1      35.419 -20.226 -19.855  0.00  0.00    +0.031 C 
ATOM     10  C   UNL     1      32.281 -18.329 -21.360  0.00  0.00    +0.033 C 
ATOM     11  C   UNL     1      32.480 -16.918 -21.955  0.00  0.00    +0.149 C 
ATOM     12  C   UNL     1      36.039 -18.059 -21.135  0.00  0.00    +0.032 C 
ATOM     13  C   UNL     1      36.484 -19.476 -20.709  0.00  0.00    +0.111 C 
ATOM     14  C   UNL     1      35.787 -21.695 -19.416  0.00  0.00    +0.020 C 
ATOM     15  C   UNL     1      32.919 -20.781 -19.573  0.00  0.00    +0.040 C 
ATOM     16  C   UNL     1      34.669 -18.719 -23.178  0.00  0.00    +0.003 C 
ATOM     17  C   UNL     1      34.666 -22.129 -18.459  0.00  0.00    -0.010 C 
ATOM     18  C   UNL     1      33.291 -22.176 -19.079  0.00  0.00    +0.179 C 
ATOM     19  C   UNL     1      32.907 -15.259 -20.428  0.00  0.00    +0.188 C 
ATOM     20  C   UNL     1      37.166 -21.793 -18.703  0.00  0.00    +0.012 C 
ATOM     21  C   UNL     1      35.867 -22.689 -20.604  0.00  0.00    +0.004 C 
ATOM     22  C   UNL     1      37.153 -21.265 -17.281  0.00  0.00    +0.069 C 
ATOM     23  C   UNL     1      34.831 -22.331 -17.141  0.00  0.00    +0.032 C 
ATOM     24  C   UNL     1      32.669 -15.408 -18.930  0.00  0.00    +0.061 C 
ATOM     25  C   UNL     1      32.895 -13.786 -20.827  0.00  0.00    +0.061 C 
ATOM     26  C   UNL     1      36.119 -22.016 -16.480  0.00  0.00    +0.173 C 
ENDROOT
BRANCH  13  27
ATOM     27  O   UNL     1      36.848 -20.229 -21.856  0.00  0.00    -0.384 OA
ATOM     28  H   UNL     1      37.016 -21.150 -21.599  0.00  0.00    +0.210 HD
ENDBRANCH  13  27
BRANCH   8  30
ATOM     29  O   UNL     1      35.697 -15.618 -23.227  0.00  0.00    -0.291 OA
ATOM     30  C   UNL     1      34.494 -15.828 -23.073  0.00  0.00    +0.207 C 
BRANCH  30  31
ATOM     31  C   UNL     1      33.449 -15.296 -24.032  0.00  0.00    +0.204 C 
BRANCH  31  32
ATOM     32  O   UNL     1      33.715 -15.726 -25.349  0.00  0.00    -0.375 OA
ATOM     33  H   UNL     1      34.317 -15.098 -25.779  0.00  0.00    +0.211 HD
ENDBRANCH  31  32
ENDBRANCH  30  31
ENDBRANCH   8  30
TORSDOF 4
ENDMDL
MODEL 2
REMARK VINA RESULT:      -1.9     14.831     17.290
REMARK  Name = 15209
REMARK  4 active torsions:
REMARK  status: ('A' for Active; 'I' for Inactive)
REMARK    1  A    between atoms: C_8  and  C_30
REMARK    2  A    between atoms: C_13  and  O_27
REMARK    3  A    between atoms: C_30  and  C_31
REMARK    4  A    between atoms: C_31  and  O_32
REMARK                            x       y       z     vdW  Elec       q    Type
REMARK                         _______ _______ _______ _____ _____    ______ ____
ROOT
ATOM      1  F   UNL     1      41.422  -7.868 -28.574  0.00  0.00    -0.233 F 
ATOM      2  O   UNL     1      35.344  -3.858 -27.033  0.00  0.00    -0.330 OA
ATOM      3  O   UNL     1      34.506  -5.616 -28.349  0.00  0.00    -0.334 OA
ATOM      4  O   UNL     1      43.398  -6.022 -24.487  0.00  0.00    -0.291 OA
ATOM      5  C   UNL     1      37.180  -3.302 -28.599  0.00  0.00    +0.034 C 
ATOM      6  C   UNL     1      37.698  -4.754 -28.491  0.00  0.00    +0.005 C 
ATOM      7  C   UNL     1      39.208  -4.881 -28.736  0.00  0.00    +0.006 C 
ATOM      8  C   UNL     1      35.665  -3.552 -28.387  0.00  0.00    +0.173 C 
ATOM      9  C   UNL     1      39.959  -4.026 -27.649  0.00  0.00    +0.031 C 
ATOM     10  C   UNL     1      36.729  -5.550 -29.368  0.00  0.00    +0.033 C 
ATOM     11  C   UNL     1      35.373  -4.837 -29.168  0.00  0.00    +0.149 C 
ATOM     12  C   UNL     1      37.885  -2.477 -27.505  0.00  0.00    +0.032 C 
ATOM     13  C   UNL     1      39.426  -2.564 -27.575  0.00  0.00    +0.111 C 
ATOM     14  C   UNL     1      41.523  -4.192 -27.761  0.00  0.00    +0.020 C 
ATOM     15  C   UNL     1      39.646  -6.358 -28.698  0.00  0.00    +0.040 C 
ATOM     16  C   UNL     1      37.408  -2.669 -29.999  0.00  0.00    +0.003 C 
ATOM     17  C   UNL     1      41.783  -5.701 -27.642  0.00  0.00    -0.010 C 
ATOM     18  C   UNL     1      41.162  -6.537 -28.734  0.00  0.00    +0.179 C 
ATOM     19  C   UNL     1      34.480  -4.999 -27.061  0.00  0.00    +0.188 C 
ATOM     20  C   UNL     1      42.301  -3.426 -26.654  0.00  0.00    +0.012 C 
ATOM     21  C   UNL     1      42.100  -3.672 -29.103  0.00  0.00    +0.004 C 
ATOM     22  C   UNL     1      42.229  -4.090 -25.292  0.00  0.00    +0.069 C 
ATOM     23  C   UNL     1      42.394  -6.285 -26.597  0.00  0.00    +0.032 C 
ATOM     24  C   UNL     1      34.953  -6.003 -26.017  0.00  0.00    +0.061 C 
ATOM     25  C   UNL     1      33.050  -4.554 -26.764  0.00  0.00    +0.061 C 
ATOM     26  C   UNL     1      42.758  -5.498 -25.395  0.00  0.00    +0.173 C 
ENDROOT
BRANCH  13  27
ATOM     27  O   UNL     1      39.901  -1.787 -28.664  0.00  0.00    -0.384 OA
ATOM     28  H   UNL     1      40.830  -1.548 -28.511  0.00  0.00    +0.210 HD
ENDBRANCH  13  27
BRANCH   8  30
ATOM     29  O   UNL     1      34.783  -1.951 -29.919  0.00  0.00    -0.291 OA
ATOM     30  C   UNL     1      34.800  -2.386 -28.768  0.00  0.00    +0.207 C 
BRANCH  30  31
ATOM     31  C   UNL     1      33.959  -1.786 -27.661  0.00  0.00    +0.204 C 
BRANCH  31  32
ATOM     32  O   UNL     1      32.589  -1.819 -28.002  0.00  0.00    -0.375 OA
ATOM     33  H   UNL     1      32.208  -2.668 -27.728  0.00  0.00    +0.211 HD
ENDBRANCH  31  32
ENDBRANCH  30  31
ENDBRANCH   8  30
TORSDOF 4
ENDMDL
MODEL 3
REMARK VINA RESULT:      -1.2      6.394      9.375
REMARK  Name = 15209
REMARK  4 active torsions:
REMARK  status: ('A' for Active; 'I' for Inactive)
REMARK    1  A    between atoms: C_8  and  C_30
REMARK    2  A    between atoms: C_13  and  O_27
REMARK    3  A    between atoms: C_30  and  C_31
REMARK    4  A    between atoms: C_31  and  O_32
REMARK                            x       y       z     vdW  Elec       q    Type
REMARK                         _______ _______ _______ _____ _____    ______ ____
ROOT
ATOM      1  F   UNL     1      30.448 -23.809 -11.622  0.00  0.00    -0.233 F 
ATOM      2  O   UNL     1      36.810 -25.135 -15.250  0.00  0.00    -0.330 OA
ATOM      3  O   UNL     1      37.537 -24.519 -13.101  0.00  0.00    -0.334 OA
ATOM      4  O   UNL     1      28.270 -26.836 -14.802  0.00  0.00    -0.291 OA
ATOM      5  C   UNL     1      35.288 -23.198 -15.502  0.00  0.00    +0.034 C 
ATOM      6  C   UNL     1      34.551 -23.623 -14.211  0.00  0.00    +0.005 C 
ATOM      7  C   UNL     1      33.082 -23.180 -14.176  0.00  0.00    +0.006 C 
ATOM      8  C   UNL     1      36.711 -23.715 -15.169  0.00  0.00    +0.173 C 
ATOM      9  C   UNL     1      32.335 -23.847 -15.391  0.00  0.00    +0.031 C 
ATOM     10  C   UNL     1      35.494 -23.174 -13.093  0.00  0.00    +0.033 C 
ATOM     11  C   UNL     1      36.904 -23.385 -13.687  0.00  0.00    +0.149 C 
ATOM     12  C   UNL     1      34.581 -23.887 -16.685  0.00  0.00    +0.032 C 
ATOM     13  C   UNL     1      33.065 -23.594 -16.744  0.00  0.00    +0.111 C 
ATOM     14  C   UNL     1      30.790 -23.532 -15.363  0.00  0.00    +0.020 C 
ATOM     15  C   UNL     1      32.429 -23.558 -12.832  0.00  0.00    +0.040 C 
ATOM     16  C   UNL     1      35.334 -21.659 -15.708  0.00  0.00    +0.003 C 
ATOM     17  C   UNL     1      30.297 -24.025 -13.995  0.00  0.00    -0.010 C 
ATOM     18  C   UNL     1      30.920 -23.327 -12.811  0.00  0.00    +0.179 C 
ATOM     19  C   UNL     1      37.493 -25.569 -14.069  0.00  0.00    +0.188 C 
ATOM     20  C   UNL     1      30.002 -24.238 -16.502  0.00  0.00    +0.012 C 
ATOM     21  C   UNL     1      30.470 -22.023 -15.516  0.00  0.00    +0.004 C 
ATOM     22  C   UNL     1      29.804 -25.724 -16.272  0.00  0.00    +0.069 C 
ATOM     23  C   UNL     1      29.480 -25.077 -13.817  0.00  0.00    +0.032 C 
ATOM     24  C   UNL     1      36.750 -26.761 -13.478  0.00  0.00    +0.061 C 
ATOM     25  C   UNL     1      38.924 -25.958 -14.430  0.00  0.00    +0.061 C 
ATOM     26  C   UNL     1      29.089 -25.935 -14.961  0.00  0.00    +0.173 C 
ENDROOT
BRANCH  13  27
ATOM     27  O   UNL     1      32.850 -22.269 -17.204  0.00  0.00    -0.384 OA
ATOM     28  H   UNL     1      31.989 -21.951 -16.887  0.00  0.00    +0.210 HD
ENDBRANCH  13  27
BRANCH   8  30
ATOM     29  O   UNL     1      38.958 -23.496 -15.935  0.00  0.00    -0.291 OA
ATOM     30  C   UNL     1      37.779 -23.170 -16.070  0.00  0.00    +0.207 C 
BRANCH  30  31
ATOM     31  C   UNL     1      37.323 -22.204 -17.144  0.00  0.00    +0.204 C 
BRANCH  31  32
ATOM     32  O   UNL     1      37.679 -20.880 -16.807  0.00  0.00    -0.375 OA
ATOM     33  H   UNL     1      36.974 -20.481 -16.272  0.00  0.00    +0.211 HD
ENDBRANCH  31  32
ENDBRANCH  30  31
ENDBRANCH   8  30
TORSDOF 4
ENDMDL
MODEL 4
REMARK VINA RESULT:      -1.1      8.614     12.245
REMARK  Name = 15209
REMARK  4 active torsions:
REMARK  status: ('A' for Active; 'I' for Inactive)
REMARK    1  A    between atoms: C_8  and  C_30
REMARK    2  A    between atoms: C_13  and  O_27
REMARK    3  A    between atoms: C_30  and  C_31
REMARK    4  A    between atoms: C_31  and  O_32
REMARK                            x       y       z     vdW  Elec       q    Type
REMARK                         _______ _______ _______ _____ _____    ______ ____
ROOT
ATOM      1  F   UNL     1      36.696 -10.404 -25.702  0.00  0.00    -0.233 F 
ATOM      2  O   UNL     1      30.889  -5.870 -24.644  0.00  0.00    -0.330 OA
ATOM      3  O   UNL     1      32.725  -4.404 -24.609  0.00  0.00    -0.334 OA
ATOM      4  O   UNL     1      33.598 -13.480 -27.928  0.00  0.00    -0.291 OA
ATOM      5  C   UNL     1      31.886  -7.469 -23.038  0.00  0.00    +0.034 C 
ATOM      6  C   UNL     1      33.107  -7.629 -23.971  0.00  0.00    +0.005 C 
ATOM      7  C   UNL     1      33.800  -8.992 -23.838  0.00  0.00    +0.006 C 
ATOM      8  C   UNL     1      31.501  -6.004 -23.364  0.00  0.00    +0.173 C 
ATOM      9  C   UNL     1      32.763 -10.114 -24.216  0.00  0.00    +0.031 C 
ATOM     10  C   UNL     1      33.915  -6.353 -23.730  0.00  0.00    +0.033 C 
ATOM     11  C   UNL     1      32.840  -5.271 -23.484  0.00  0.00    +0.149 C 
ATOM     12  C   UNL     1      30.854  -8.541 -23.439  0.00  0.00    +0.032 C 
ATOM     13  C   UNL     1      31.428  -9.976 -23.425  0.00  0.00    +0.111 C 
ATOM     14  C   UNL     1      33.429 -11.543 -24.213  0.00  0.00    +0.020 C 
ATOM     15  C   UNL     1      35.055  -9.057 -24.729  0.00  0.00    +0.040 C 
ATOM     16  C   UNL     1      32.242  -7.586 -21.530  0.00  0.00    +0.003 C 
ATOM     17  C   UNL     1      34.610 -11.445 -25.190  0.00  0.00    -0.010 C 
ATOM     18  C   UNL     1      35.675 -10.451 -24.796  0.00  0.00    +0.179 C 
ATOM     19  C   UNL     1      31.524  -4.764 -25.293  0.00  0.00    +0.188 C 
ATOM     20  C   UNL     1      32.458 -12.672 -24.659  0.00  0.00    +0.012 C 
ATOM     21  C   UNL     1      33.947 -11.975 -22.817  0.00  0.00    +0.004 C 
ATOM     22  C   UNL     1      32.193 -12.690 -26.153  0.00  0.00    +0.069 C 
ATOM     23  C   UNL     1      34.668 -12.076 -26.376  0.00  0.00    +0.032 C 
ATOM     24  C   UNL     1      31.865  -5.160 -26.725  0.00  0.00    +0.061 C 
ATOM     25  C   UNL     1      30.580  -3.564 -25.282  0.00  0.00    +0.061 C 
ATOM     26  C   UNL     1      33.502 -12.833 -26.889  0.00  0.00    +0.173 C 
ENDROOT
BRANCH  13  27
ATOM     27  O   UNL     1      31.577 -10.419 -22.084  0.00  0.00    -0.384 OA
ATOM     28  H   UNL     1      30.778 -10.898 -21.811  0.00  0.00    +0.210 HD
ENDBRANCH  13  27
BRANCH   8  30
ATOM     29  O   UNL     1      29.473  -5.931 -22.113  0.00  0.00    -0.291 OA
ATOM     30  C   UNL     1      30.547  -5.394 -22.379  0.00  0.00    +0.207 C 
BRANCH  30  31
ATOM     31  C   UNL     1      30.984  -4.092 -21.741  0.00  0.00    +0.204 C 
BRANCH  31  32
ATOM     32  O   UNL     1      30.122  -3.039 -22.116  0.00  0.00    -0.375 OA
ATOM     33  H   UNL     1      29.273  -3.406 -22.409  0.00  0.00    +0.211 HD
ENDBRANCH  31  32
ENDBRANCH  30  31
ENDBRANCH   8  30
TORSDOF 4
ENDMDL
MODEL 5
REMARK VINA RESULT:      -1.1      9.986     15.346
REMARK  Name = 15209
REMARK  4 active torsions:
REMARK  status: ('A' for Active; 'I' for Inactive)
REMARK    1  A    between atoms: C_8  and  C_30
REMARK    2  A    between atoms: C_13  and  O_27
REMARK    3  A    between atoms: C_30  and  C_31
REMARK    4  A    between atoms: C_31  and  O_32
REMARK                            x       y       z     vdW  Elec       q    Type
REMARK                         _______ _______ _______ _____ _____    ______ ____
ROOT
ATOM      1  F   UNL     1      30.182  -2.122 -22.106  0.00  0.00    -0.233 F 
ATOM      2  O   UNL     1      32.063  -9.048 -24.081  0.00  0.00    -0.330 OA
ATOM      3  O   UNL     1      32.148  -9.118 -21.733  0.00  0.00    -0.334 OA
ATOM      4  O   UNL     1      27.824  -1.786 -26.390  0.00  0.00    -0.291 OA
ATOM      5  C   UNL     1      33.427  -6.988 -24.262  0.00  0.00    +0.034 C 
ATOM      6  C   UNL     1      32.411  -6.249 -23.361  0.00  0.00    +0.005 C 
ATOM      7  C   UNL     1      32.355  -4.737 -23.620  0.00  0.00    +0.006 C 
ATOM      8  C   UNL     1      33.283  -8.422 -23.691  0.00  0.00    +0.173 C 
ATOM      9  C   UNL     1      31.920  -4.508 -25.115  0.00  0.00    +0.031 C 
ATOM     10  C   UNL     1      32.740  -6.755 -21.955  0.00  0.00    +0.033 C 
ATOM     11  C   UNL     1      33.164  -8.224 -22.177  0.00  0.00    +0.149 C 
ATOM     12  C   UNL     1      32.974  -6.797 -25.722  0.00  0.00    +0.032 C 
ATOM     13  C   UNL     1      32.799  -5.313 -26.118  0.00  0.00    +0.111 C 
ATOM     14  C   UNL     1      31.730  -2.975 -25.433  0.00  0.00    +0.020 C 
ATOM     15  C   UNL     1      31.389  -4.049 -22.636  0.00  0.00    +0.040 C 
ATOM     16  C   UNL     1      34.889  -6.500 -24.070  0.00  0.00    +0.003 C 
ATOM     17  C   UNL     1      30.701  -2.470 -24.410  0.00  0.00    -0.010 C 
ATOM     18  C   UNL     1      31.136  -2.581 -22.970  0.00  0.00    +0.179 C 
ATOM     19  C   UNL     1      31.501  -9.629 -22.900  0.00  0.00    +0.188 C 
ATOM     20  C   UNL     1      31.223  -2.707 -26.878  0.00  0.00    +0.012 C 
ATOM     21  C   UNL     1      33.038  -2.154 -25.298  0.00  0.00    +0.004 C 
ATOM     22  C   UNL     1      29.754  -3.032 -27.075  0.00  0.00    +0.069 C 
ATOM     23  C   UNL     1      29.453  -2.079 -24.720  0.00  0.00    +0.032 C 
ATOM     24  C   UNL     1      30.018  -9.286 -22.838  0.00  0.00    +0.061 C 
ATOM     25  C   UNL     1      31.697 -11.142 -22.942  0.00  0.00    +0.061 C 
ATOM     26  C   UNL     1      28.931  -2.231 -26.098  0.00  0.00    +0.173 C 
ENDROOT
BRANCH  13  27
ATOM     27  O   UNL     1      34.073  -4.710 -26.285  0.00  0.00    -0.384 OA
ATOM     28  H   UNL     1      34.129  -3.912 -25.735  0.00  0.00    +0.210 HD
ENDBRANCH  13  27
BRANCH   8  30
ATOM     29  O   UNL     1      35.521  -9.243 -23.656  0.00  0.00    -0.291 OA
ATOM     30  C   UNL     1      34.383  -9.353 -24.109  0.00  0.00    +0.207 C 
BRANCH  30  31
ATOM     31  C   UNL     1      34.009 -10.424 -25.114  0.00  0.00    +0.204 C 
BRANCH  31  32
ATOM     32  O   UNL     1      34.494 -11.684 -24.702  0.00  0.00    -0.375 OA
ATOM     33  H   UNL     1      35.389 -11.584 -24.342  0.00  0.00    +0.211 HD
ENDBRANCH  31  32
ENDBRANCH  30  31
ENDBRANCH   8  30
TORSDOF 4
ENDMDL
MODEL 6
REMARK VINA RESULT:      -0.6      8.177     11.630
REMARK  Name = 15209
REMARK  4 active torsions:
REMARK  status: ('A' for Active; 'I' for Inactive)
REMARK    1  A    between atoms: C_8  and  C_30
REMARK    2  A    between atoms: C_13  and  O_27
REMARK    3  A    between atoms: C_30  and  C_31
REMARK    4  A    between atoms: C_31  and  O_32
REMARK                            x       y       z     vdW  Elec       q    Type
REMARK                         _______ _______ _______ _____ _____    ______ ____
ROOT
ATOM      1  F   UNL     1      36.280 -10.760 -26.499  0.00  0.00    -0.233 F 
ATOM      2  O   UNL     1      30.942  -6.512 -23.524  0.00  0.00    -0.330 OA
ATOM      3  O   UNL     1      32.723  -5.007 -23.818  0.00  0.00    -0.334 OA
ATOM      4  O   UNL     1      32.713 -13.691 -28.146  0.00  0.00    -0.291 OA
ATOM      5  C   UNL     1      32.325  -8.231 -22.399  0.00  0.00    +0.034 C 
ATOM      6  C   UNL     1      33.261  -8.266 -23.628  0.00  0.00    +0.005 C 
ATOM      7  C   UNL     1      33.967  -9.616 -23.817  0.00  0.00    +0.006 C 
ATOM      8  C   UNL     1      31.866  -6.752 -22.466  0.00  0.00    +0.173 C 
ATOM      9  C   UNL     1      32.868 -10.724 -24.024  0.00  0.00    +0.031 C 
ATOM     10  C   UNL     1      34.103  -6.997 -23.478  0.00  0.00    +0.033 C 
ATOM     11  C   UNL     1      33.127  -5.975 -22.854  0.00  0.00    +0.149 C 
ATOM     12  C   UNL     1      31.225  -9.287 -22.626  0.00  0.00    +0.032 C 
ATOM     13  C   UNL     1      31.785 -10.700 -22.905  0.00  0.00    +0.111 C 
ATOM     14  C   UNL     1      33.515 -12.128 -24.338  0.00  0.00    +0.020 C 
ATOM     15  C   UNL     1      34.947  -9.560 -25.005  0.00  0.00    +0.040 C 
ATOM     16  C   UNL     1      33.062  -8.483 -21.055  0.00  0.00    +0.003 C 
ATOM     17  C   UNL     1      34.400 -11.903 -25.573  0.00  0.00    -0.010 C 
ATOM     18  C   UNL     1      35.529 -10.923 -25.369  0.00  0.00    +0.179 C 
ATOM     19  C   UNL     1      31.385  -5.331 -24.200  0.00  0.00    +0.188 C 
ATOM     20  C   UNL     1      32.462 -13.235 -24.629  0.00  0.00    +0.012 C 
ATOM     21  C   UNL     1      34.379 -12.678 -23.174  0.00  0.00    +0.004 C 
ATOM     22  C   UNL     1      31.818 -13.115 -25.997  0.00  0.00    +0.069 C 
ATOM     23  C   UNL     1      34.148 -12.414 -26.790  0.00  0.00    +0.032 C 
ATOM     24  C   UNL     1      31.342  -5.577 -25.704  0.00  0.00    +0.061 C 
ATOM     25  C   UNL     1      30.475  -4.165 -23.825  0.00  0.00    +0.061 C 
ATOM     26  C   UNL     1      32.890 -13.150 -27.057  0.00  0.00    +0.173 C 
ENDROOT
BRANCH  13  27
ATOM     27  O   UNL     1      32.278 -11.267 -21.700  0.00  0.00    -0.384 OA
ATOM     28  H   UNL     1      33.187 -11.580 -21.838  0.00  0.00    +0.210 HD
ENDBRANCH  13  27
BRANCH   8  30
ATOM     29  O   UNL     1      30.159  -5.614 -21.251  0.00  0.00    -0.291 OA
ATOM     30  C   UNL     1      31.201  -6.267 -21.212  0.00  0.00    +0.207 C 
BRANCH  30  31
ATOM     31  C   UNL     1      31.884  -6.626 -19.908  0.00  0.00    +0.204 C 
BRANCH  31  32
ATOM     32  O   UNL     1      32.708  -5.568 -19.469  0.00  0.00    -0.375 OA
ATOM     33  H   UNL     1      33.636  -5.852 -19.485  0.00  0.00    +0.211 HD
ENDBRANCH  31  32
ENDBRANCH  30  31
ENDBRANCH   8  30
TORSDOF 4
ENDMDL
