MODEL 1
REMARK VINA RESULT:      -6.4      0.000      0.000
REMARK  Name = 7708
REMARK  3 active torsions:
REMARK  status: ('A' for Active; 'I' for Inactive)
REMARK    1  A    between atoms: C_1  and  C_7
REMARK    2  A    between atoms: C_7  and  O_8
REMARK    3  A    between atoms: O_8  and  C_10
REMARK                            x       y       z     vdW  Elec       q    Type
REMARK                         _______ _______ _______ _____ _____    ______ ____
ROOT
ATOM      1  C   UNL     1      34.593 -19.897 -20.612  0.00  0.00    +0.021 C 
ATOM      2  C   UNL     1      33.379 -20.460 -20.220  0.00  0.00    -0.001 C 
ATOM      3  C   UNL     1      35.795 -20.487 -20.220  0.00  0.00    -0.001 C 
ATOM      4  C   UNL     1      33.367 -21.614 -19.436  0.00  0.00    -0.000 C 
ATOM      5  C   UNL     1      35.783 -21.640 -19.436  0.00  0.00    -0.000 C 
ATOM      6  C   UNL     1      34.569 -22.204 -19.043  0.00  0.00    -0.000 C 
ENDROOT
BRANCH   1   7
ATOM      7  C   UNL     1      34.607 -18.664 -21.451  0.00  0.00    +0.236 C 
BRANCH   7   8
ATOM      8  O   UNL     1      35.303 -17.632 -20.762  0.00  0.00    -0.436 OA
BRANCH   8  10
ATOM      9  O   UNL     1      34.883 -15.436 -20.160  0.00  0.00    -0.238 OA
ATOM     10  C   UNL     1      34.821 -16.372 -20.944  0.00  0.00    +0.418 C 
ENDBRANCH   8  10
ENDBRANCH   7   8
ENDBRANCH   1   7
TORSDOF 3
ENDMDL
MODEL 2
REMARK VINA RESULT:      -6.4      0.056      1.529
REMARK  Name = 7708
REMARK  3 active torsions:
REMARK  status: ('A' for Active; 'I' for Inactive)
REMARK    1  A    between atoms: C_1  and  C_7
REMARK    2  A    between atoms: C_7  and  O_8
REMARK    3  A    between atoms: O_8  and  C_10
REMARK                            x       y       z     vdW  Elec       q    Type
REMARK                         _______ _______ _______ _____ _____    ______ ____
ROOT
ATOM      1  C   UNL     1      34.620 -19.885 -20.653  0.00  0.00    +0.021 C 
ATOM      2  C   UNL     1      35.802 -20.509 -20.256  0.00  0.00    -0.001 C 
ATOM      3  C   UNL     1      33.388 -20.412 -20.266  0.00  0.00    -0.001 C 
ATOM      4  C   UNL     1      35.752 -21.662 -19.471  0.00  0.00    -0.000 C 
ATOM      5  C   UNL     1      33.338 -21.564 -19.481  0.00  0.00    -0.000 C 
ATOM      6  C   UNL     1      34.521 -22.189 -19.084  0.00  0.00    -0.000 C 
ENDROOT
BRANCH   1   7
ATOM      7  C   UNL     1      34.673 -18.652 -21.492  0.00  0.00    +0.236 C 
BRANCH   7   8
ATOM      8  O   UNL     1      35.311 -17.611 -20.763  0.00  0.00    -0.436 OA
BRANCH   8  10
ATOM      9  O   UNL     1      34.906 -15.408 -20.176  0.00  0.00    -0.238 OA
ATOM     10  C   UNL     1      34.779 -16.368 -20.922  0.00  0.00    +0.418 C 
ENDBRANCH   8  10
ENDBRANCH   7   8
ENDBRANCH   1   7
TORSDOF 3
ENDMDL
MODEL 3
REMARK VINA RESULT:      -6.2      2.166      2.583
REMARK  Name = 7708
REMARK  3 active torsions:
REMARK  status: ('A' for Active; 'I' for Inactive)
REMARK    1  A    between atoms: C_1  and  C_7
REMARK    2  A    between atoms: C_7  and  O_8
REMARK    3  A    between atoms: O_8  and  C_10
REMARK                            x       y       z     vdW  Elec       q    Type
REMARK                         _______ _______ _______ _____ _____    ______ ____
ROOT
ATOM      1  C   UNL     1      34.904 -19.431 -21.290  0.00  0.00    +0.021 C 
ATOM      2  C   UNL     1      33.517 -19.427 -21.149  0.00  0.00    -0.001 C 
ATOM      3  C   UNL     1      35.675 -20.351 -20.581  0.00  0.00    -0.001 C 
ATOM      4  C   UNL     1      32.900 -20.343 -20.297  0.00  0.00    -0.000 C 
ATOM      5  C   UNL     1      35.058 -21.268 -19.729  0.00  0.00    -0.000 C 
ATOM      6  C   UNL     1      33.671 -21.264 -19.587  0.00  0.00    -0.000 C 
ENDROOT
BRANCH   1   7
ATOM      7  C   UNL     1      35.564 -18.451 -22.201  0.00  0.00    +0.236 C 
BRANCH   7   8
ATOM      8  O   UNL     1      35.264 -18.784 -23.551  0.00  0.00    -0.436 OA
BRANCH   8  10
ATOM      9  O   UNL     1      34.611 -17.782 -25.534  0.00  0.00    -0.238 OA
ATOM     10  C   UNL     1      34.858 -17.749 -24.338  0.00  0.00    +0.418 C 
ENDBRANCH   8  10
ENDBRANCH   7   8
ENDBRANCH   1   7
TORSDOF 3
ENDMDL
MODEL 4
REMARK VINA RESULT:      -6.1      3.408      4.909
REMARK  Name = 7708
REMARK  3 active torsions:
REMARK  status: ('A' for Active; 'I' for Inactive)
REMARK    1  A    between atoms: C_1  and  C_7
REMARK    2  A    between atoms: C_7  and  O_8
REMARK    3  A    between atoms: O_8  and  C_10
REMARK                            x       y       z     vdW  Elec       q    Type
REMARK                         _______ _______ _______ _____ _____    ______ ____
ROOT
ATOM      1  C   UNL     1      34.154 -21.429 -19.561  0.00  0.00    +0.021 C 
ATOM      2  C   UNL     1      33.125 -20.666 -20.111  0.00  0.00    -0.001 C 
ATOM      3  C   UNL     1      35.483 -21.110 -19.837  0.00  0.00    -0.001 C 
ATOM      4  C   UNL     1      33.425 -19.583 -20.938  0.00  0.00    -0.000 C 
ATOM      5  C   UNL     1      35.784 -20.027 -20.664  0.00  0.00    -0.000 C 
ATOM      6  C   UNL     1      34.755 -19.264 -21.215  0.00  0.00    -0.000 C 
ENDROOT
BRANCH   1   7
ATOM      7  C   UNL     1      33.833 -22.587 -18.677  0.00  0.00    +0.236 C 
BRANCH   7   8
ATOM      8  O   UNL     1      32.477 -22.497 -18.255  0.00  0.00    -0.436 OA
BRANCH   8  10
ATOM      9  O   UNL     1      31.136 -22.995 -16.435  0.00  0.00    -0.238 OA
ATOM     10  C   UNL     1      32.213 -22.985 -17.012  0.00  0.00    +0.418 C 
ENDBRANCH   8  10
ENDBRANCH   7   8
ENDBRANCH   1   7
TORSDOF 3
ENDMDL
MODEL 5
REMARK VINA RESULT:      -6.0      3.439      5.061
REMARK  Name = 7708
REMARK  3 active torsions:
REMARK  status: ('A' for Active; 'I' for Inactive)
REMARK    1  A    between atoms: C_1  and  C_7
REMARK    2  A    between atoms: C_7  and  O_8
REMARK    3  A    between atoms: O_8  and  C_10
REMARK                            x       y       z     vdW  Elec       q    Type
REMARK                         _______ _______ _______ _____ _____    ______ ____
ROOT
ATOM      1  C   UNL     1      33.958 -21.499 -19.433  0.00  0.00    +0.021 C 
ATOM      2  C   UNL     1      32.901 -20.761 -19.964  0.00  0.00    -0.001 C 
ATOM      3  C   UNL     1      35.272 -21.182 -19.774  0.00  0.00    -0.001 C 
ATOM      4  C   UNL     1      33.159 -19.704 -20.839  0.00  0.00    -0.000 C 
ATOM      5  C   UNL     1      35.531 -20.126 -20.648  0.00  0.00    -0.000 C 
ATOM      6  C   UNL     1      34.474 -19.387 -21.180  0.00  0.00    -0.000 C 
ENDROOT
BRANCH   1   7
ATOM      7  C   UNL     1      33.682 -22.629 -18.498  0.00  0.00    +0.236 C 
BRANCH   7   8
ATOM      8  O   UNL     1      34.798 -22.813 -17.636  0.00  0.00    -0.436 OA
BRANCH   8  10
ATOM      9  O   UNL     1      34.980 -24.328 -15.896  0.00  0.00    -0.238 OA
ATOM     10  C   UNL     1      34.516 -23.320 -16.404  0.00  0.00    +0.418 C 
ENDBRANCH   8  10
ENDBRANCH   7   8
ENDBRANCH   1   7
TORSDOF 3
ENDMDL
MODEL 6
REMARK VINA RESULT:      -5.9      2.768      4.257
REMARK  Name = 7708
REMARK  3 active torsions:
REMARK  status: ('A' for Active; 'I' for Inactive)
REMARK    1  A    between atoms: C_1  and  C_7
REMARK    2  A    between atoms: C_7  and  O_8
REMARK    3  A    between atoms: O_8  and  C_10
REMARK                            x       y       z     vdW  Elec       q    Type
REMARK                         _______ _______ _______ _____ _____    ______ ____
ROOT
ATOM      1  C   UNL     1      35.261 -20.873 -19.911  0.00  0.00    +0.021 C 
ATOM      2  C   UNL     1      34.053 -21.423 -19.484  0.00  0.00    -0.001 C 
ATOM      3  C   UNL     1      35.264 -19.791 -20.791  0.00  0.00    -0.001 C 
ATOM      4  C   UNL     1      32.846 -20.891 -19.938  0.00  0.00    -0.000 C 
ATOM      5  C   UNL     1      34.056 -19.259 -21.245  0.00  0.00    -0.000 C 
ATOM      6  C   UNL     1      32.847 -19.809 -20.819  0.00  0.00    -0.000 C 
ENDROOT
BRANCH   1   7
ATOM      7  C   UNL     1      36.552 -21.442 -19.426  0.00  0.00    +0.236 C 
BRANCH   7   8
ATOM      8  O   UNL     1      36.812 -20.970 -18.110  0.00  0.00    -0.436 OA
BRANCH   8  10
ATOM      9  O   UNL     1      37.629 -21.969 -16.187  0.00  0.00    -0.238 OA
ATOM     10  C   UNL     1      36.865 -21.924 -17.140  0.00  0.00    +0.418 C 
ENDBRANCH   8  10
ENDBRANCH   7   8
ENDBRANCH   1   7
TORSDOF 3
ENDMDL
MODEL 7
REMARK VINA RESULT:      -5.8      2.699      5.086
REMARK  Name = 7708
REMARK  3 active torsions:
REMARK  status: ('A' for Active; 'I' for Inactive)
REMARK    1  A    between atoms: C_1  and  C_7
REMARK    2  A    between atoms: C_7  and  O_8
REMARK    3  A    between atoms: O_8  and  C_10
REMARK                            x       y       z     vdW  Elec       q    Type
REMARK                         _______ _______ _______ _____ _____    ______ ____
ROOT
ATOM      1  C   UNL     1      34.939 -18.490 -22.746  0.00  0.00    +0.021 C 
ATOM      2  C   UNL     1      34.667 -18.987 -24.020  0.00  0.00    -0.001 C 
ATOM      3  C   UNL     1      35.094 -17.118 -22.550  0.00  0.00    -0.001 C 
ATOM      4  C   UNL     1      34.551 -18.112 -25.100  0.00  0.00    -0.000 C 
ATOM      5  C   UNL     1      34.978 -16.242 -23.630  0.00  0.00    -0.000 C 
ATOM      6  C   UNL     1      34.706 -16.739 -24.905  0.00  0.00    -0.000 C 
ENDROOT
BRANCH   1   7
ATOM      7  C   UNL     1      35.063 -19.426 -21.591  0.00  0.00    +0.236 C 
BRANCH   7   8
ATOM      8  O   UNL     1      33.884 -19.358 -20.798  0.00  0.00    -0.436 OA
BRANCH   8  10
ATOM      9  O   UNL     1      32.533 -20.705 -19.488  0.00  0.00    -0.238 OA
ATOM     10  C   UNL     1      33.475 -20.533 -20.246  0.00  0.00    +0.418 C 
ENDBRANCH   8  10
ENDBRANCH   7   8
ENDBRANCH   1   7
TORSDOF 3
ENDMDL
MODEL 8
REMARK VINA RESULT:      -5.7      3.628      4.716
REMARK  Name = 7708
REMARK  3 active torsions:
REMARK  status: ('A' for Active; 'I' for Inactive)
REMARK    1  A    between atoms: C_1  and  C_7
REMARK    2  A    between atoms: C_7  and  O_8
REMARK    3  A    between atoms: O_8  and  C_10
REMARK                            x       y       z     vdW  Elec       q    Type
REMARK                         _______ _______ _______ _____ _____    ______ ____
ROOT
ATOM      1  C   UNL     1      34.794 -17.444 -23.636  0.00  0.00    +0.021 C 
ATOM      2  C   UNL     1      34.798 -18.835 -23.539  0.00  0.00    -0.001 C 
ATOM      3  C   UNL     1      34.951 -16.663 -22.492  0.00  0.00    -0.001 C 
ATOM      4  C   UNL     1      34.958 -19.446 -22.294  0.00  0.00    -0.000 C 
ATOM      5  C   UNL     1      35.112 -17.274 -21.248  0.00  0.00    -0.000 C 
ATOM      6  C   UNL     1      35.115 -18.666 -21.149  0.00  0.00    -0.000 C 
ENDROOT
BRANCH   1   7
ATOM      7  C   UNL     1      34.623 -16.791 -24.967  0.00  0.00    +0.236 C 
BRANCH   7   8
ATOM      8  O   UNL     1      33.909 -15.571 -24.805  0.00  0.00    -0.436 OA
BRANCH   8  10
ATOM      9  O   UNL     1      33.628 -14.886 -26.999  0.00  0.00    -0.238 OA
ATOM     10  C   UNL     1      33.196 -15.157 -25.889  0.00  0.00    +0.418 C 
ENDBRANCH   8  10
ENDBRANCH   7   8
ENDBRANCH   1   7
TORSDOF 3
ENDMDL
MODEL 9
REMARK VINA RESULT:      -5.7      2.568      4.965
REMARK  Name = 7708
REMARK  3 active torsions:
REMARK  status: ('A' for Active; 'I' for Inactive)
REMARK    1  A    between atoms: C_1  and  C_7
REMARK    2  A    between atoms: C_7  and  O_8
REMARK    3  A    between atoms: O_8  and  C_10
REMARK                            x       y       z     vdW  Elec       q    Type
REMARK                         _______ _______ _______ _____ _____    ______ ____
ROOT
ATOM      1  C   UNL     1      35.413 -18.154 -22.604  0.00  0.00    +0.021 C 
ATOM      2  C   UNL     1      35.001 -19.147 -23.493  0.00  0.00    -0.001 C 
ATOM      3  C   UNL     1      35.291 -16.810 -22.953  0.00  0.00    -0.001 C 
ATOM      4  C   UNL     1      34.468 -18.794 -24.733  0.00  0.00    -0.000 C 
ATOM      5  C   UNL     1      34.758 -16.457 -24.193  0.00  0.00    -0.000 C 
ATOM      6  C   UNL     1      34.346 -17.449 -25.083  0.00  0.00    -0.000 C 
ENDROOT
BRANCH   1   7
ATOM      7  C   UNL     1      35.983 -18.531 -21.278  0.00  0.00    +0.236 C 
BRANCH   7   8
ATOM      8  O   UNL     1      35.104 -19.440 -20.627  0.00  0.00    -0.436 OA
BRANCH   8  10
ATOM      9  O   UNL     1      36.342 -20.741 -19.165  0.00  0.00    -0.238 OA
ATOM     10  C   UNL     1      35.674 -20.592 -20.177  0.00  0.00    +0.418 C 
ENDBRANCH   8  10
ENDBRANCH   7   8
ENDBRANCH   1   7
TORSDOF 3
ENDMDL
