MODEL 1
REMARK VINA RESULT:      -6.7      0.000      0.000
REMARK  Name = 77982
REMARK  11 active torsions:
REMARK  status: ('A' for Active; 'I' for Inactive)
REMARK    1  A    between atoms: C_1  and  O_2
REMARK    2  A    between atoms: C_1  and  C_4
REMARK    3  A    between atoms: C_1  and  C_12
REMARK    4  A    between atoms: C_4  and  O_5
REMARK    5  A    between atoms: C_4  and  C_7
REMARK    6  A    between atoms: C_7  and  O_8
REMARK    7  A    between atoms: C_7  and  C_11
REMARK    8  A    between atoms: C_12  and  O_13
REMARK    9  A    between atoms: O_13  and  P_14
REMARK   10  A    between atoms: P_14  and  O_16
REMARK   11  A    between atoms: P_14  and  O_18
REMARK                            x       y       z     vdW  Elec       q    Type
REMARK                         _______ _______ _______ _____ _____    ______ ____
ROOT
ATOM      1  C   UNL     1      36.832 -25.516 -13.453  0.00  0.00    +0.170 C 
ENDROOT
BRANCH   1   2
ATOM      2  O   UNL     1      36.839 -26.644 -12.578  0.00  0.00    -0.379 OA
ATOM      3  H   UNL     1      36.098 -26.575 -11.956  0.00  0.00    +0.211 HD
ENDBRANCH   1   2
BRANCH   1   4
ATOM      4  C   UNL     1      37.267 -24.259 -12.686  0.00  0.00    +0.174 C 
BRANCH   4   5
ATOM      5  O   UNL     1      37.953 -23.383 -13.582  0.00  0.00    -0.379 OA
ATOM      6  H   UNL     1      38.898 -23.600 -13.587  0.00  0.00    +0.211 HD
ENDBRANCH   4   5
BRANCH   4   7
ATOM      7  C   UNL     1      36.116 -23.505 -12.007  0.00  0.00    +0.205 C 
BRANCH   7   8
ATOM      8  O   UNL     1      34.960 -23.613 -12.826  0.00  0.00    -0.375 OA
ATOM      9  H   UNL     1      35.077 -23.070 -13.622  0.00  0.00    +0.211 HD
ENDBRANCH   7   8
BRANCH   7  11
ATOM     10  O   UNL     1      35.290 -25.166 -10.441  0.00  0.00    -0.286 OA
ATOM     11  C   UNL     1      35.789 -24.062 -10.635  0.00  0.00    +0.239 C 
ENDBRANCH   7  11
ENDBRANCH   4   7
ENDBRANCH   1   4
BRANCH   1  12
ATOM     12  C   UNL     1      37.750 -25.815 -14.639  0.00  0.00    +0.185 C 
BRANCH  12  13
ATOM     13  O   UNL     1      38.910 -26.492 -14.166  0.00  0.00    -0.271 OA
BRANCH  13  14
ATOM     14  P   UNL     1      40.358 -25.875 -14.529  0.00  0.00    +0.473 P 
ATOM     15  O   UNL     1      40.650 -24.536 -13.918  0.00  0.00    -0.227 OA
BRANCH  14  16
ATOM     16  O   UNL     1      40.404 -25.922 -16.145  0.00  0.00    -0.303 OA
ATOM     17  H   UNL     1      39.502 -25.861 -16.496  0.00  0.00    +0.222 HD
ENDBRANCH  14  16
BRANCH  14  18
ATOM     18  O   UNL     1      41.369 -27.059 -14.095  0.00  0.00    -0.303 OA
ATOM     19  H   UNL     1      41.529 -27.014 -13.140  0.00  0.00    +0.222 HD
ENDBRANCH  14  18
ENDBRANCH  13  14
ENDBRANCH  12  13
ENDBRANCH   1  12
TORSDOF 11
ENDMDL
MODEL 2
REMARK VINA RESULT:      -6.7      0.744      1.216
REMARK  Name = 77982
REMARK  11 active torsions:
REMARK  status: ('A' for Active; 'I' for Inactive)
REMARK    1  A    between atoms: C_1  and  O_2
REMARK    2  A    between atoms: C_1  and  C_4
REMARK    3  A    between atoms: C_1  and  C_12
REMARK    4  A    between atoms: C_4  and  O_5
REMARK    5  A    between atoms: C_4  and  C_7
REMARK    6  A    between atoms: C_7  and  O_8
REMARK    7  A    between atoms: C_7  and  C_11
REMARK    8  A    between atoms: C_12  and  O_13
REMARK    9  A    between atoms: O_13  and  P_14
REMARK   10  A    between atoms: P_14  and  O_16
REMARK   11  A    between atoms: P_14  and  O_18
REMARK                            x       y       z     vdW  Elec       q    Type
REMARK                         _______ _______ _______ _____ _____    ______ ____
ROOT
ATOM      1  C   UNL     1      36.723 -25.620 -13.783  0.00  0.00    +0.170 C 
ENDROOT
BRANCH   1   2
ATOM      2  O   UNL     1      36.864 -26.568 -12.725  0.00  0.00    -0.379 OA
ATOM      3  H   UNL     1      37.422 -27.303 -13.022  0.00  0.00    +0.211 HD
ENDBRANCH   1   2
BRANCH   1   4
ATOM      4  C   UNL     1      36.927 -24.198 -13.239  0.00  0.00    +0.174 C 
BRANCH   4   5
ATOM      5  O   UNL     1      35.714 -23.461 -13.397  0.00  0.00    -0.379 OA
ATOM      6  H   UNL     1      35.171 -23.874 -14.086  0.00  0.00    +0.211 HD
ENDBRANCH   4   5
BRANCH   4   7
ATOM      7  C   UNL     1      37.377 -24.143 -11.773  0.00  0.00    +0.205 C 
BRANCH   7   8
ATOM      8  O   UNL     1      38.234 -23.022 -11.606  0.00  0.00    -0.375 OA
ATOM      9  H   UNL     1      38.884 -23.003 -12.327  0.00  0.00    +0.211 HD
ENDBRANCH   7   8
BRANCH   7  11
ATOM     10  O   UNL     1      35.392 -24.891 -10.593  0.00  0.00    -0.286 OA
ATOM     11  C   UNL     1      36.211 -24.005 -10.814  0.00  0.00    +0.239 C 
ENDBRANCH   7  11
ENDBRANCH   4   7
ENDBRANCH   1   4
BRANCH   1  12
ATOM     12  C   UNL     1      37.727 -25.966 -14.884  0.00  0.00    +0.185 C 
BRANCH  12  13
ATOM     13  O   UNL     1      38.866 -26.584 -14.293  0.00  0.00    -0.271 OA
BRANCH  13  14
ATOM     14  P   UNL     1      40.316 -25.923 -14.553  0.00  0.00    +0.473 P 
ATOM     15  O   UNL     1      40.537 -24.593 -13.895  0.00  0.00    -0.227 OA
BRANCH  14  16
ATOM     16  O   UNL     1      40.460 -25.929 -16.164  0.00  0.00    -0.303 OA
ATOM     17  H   UNL     1      39.796 -25.337 -16.550  0.00  0.00    +0.222 HD
ENDBRANCH  14  16
BRANCH  14  18
ATOM     18  O   UNL     1      41.329 -27.094 -14.086  0.00  0.00    -0.303 OA
ATOM     19  H   UNL     1      41.374 -27.115 -13.118  0.00  0.00    +0.222 HD
ENDBRANCH  14  18
ENDBRANCH  13  14
ENDBRANCH  12  13
ENDBRANCH   1  12
TORSDOF 11
ENDMDL
MODEL 3
REMARK VINA RESULT:      -6.7      1.639      2.715
REMARK  Name = 77982
REMARK  11 active torsions:
REMARK  status: ('A' for Active; 'I' for Inactive)
REMARK    1  A    between atoms: C_1  and  O_2
REMARK    2  A    between atoms: C_1  and  C_4
REMARK    3  A    between atoms: C_1  and  C_12
REMARK    4  A    between atoms: C_4  and  O_5
REMARK    5  A    between atoms: C_4  and  C_7
REMARK    6  A    between atoms: C_7  and  O_8
REMARK    7  A    between atoms: C_7  and  C_11
REMARK    8  A    between atoms: C_12  and  O_13
REMARK    9  A    between atoms: O_13  and  P_14
REMARK   10  A    between atoms: P_14  and  O_16
REMARK   11  A    between atoms: P_14  and  O_18
REMARK                            x       y       z     vdW  Elec       q    Type
REMARK                         _______ _______ _______ _____ _____    ______ ____
ROOT
ATOM      1  C   UNL     1      37.602 -24.003 -11.868  0.00  0.00    +0.170 C 
ENDROOT
BRANCH   1   2
ATOM      2  O   UNL     1      38.521 -22.935 -11.635  0.00  0.00    -0.379 OA
ATOM      3  H   UNL     1      38.260 -22.164 -12.161  0.00  0.00    +0.211 HD
ENDBRANCH   1   2
BRANCH   1   4
ATOM      4  C   UNL     1      36.522 -23.553 -12.864  0.00  0.00    +0.174 C 
BRANCH   4   5
ATOM      5  O   UNL     1      37.153 -22.932 -13.984  0.00  0.00    -0.379 OA
ATOM      6  H   UNL     1      36.573 -22.242 -14.341  0.00  0.00    +0.211 HD
ENDBRANCH   4   5
BRANCH   4   7
ATOM      7  C   UNL     1      35.603 -24.682 -13.349  0.00  0.00    +0.205 C 
BRANCH   7   8
ATOM      8  O   UNL     1      34.352 -24.562 -12.686  0.00  0.00    -0.375 OA
ATOM      9  H   UNL     1      33.866 -25.398 -12.762  0.00  0.00    +0.211 HD
ENDBRANCH   7   8
BRANCH   7  11
ATOM     10  O   UNL     1      36.157 -25.037 -15.686  0.00  0.00    -0.286 OA
ATOM     11  C   UNL     1      35.363 -24.629 -14.846  0.00  0.00    +0.239 C 
ENDBRANCH   7  11
ENDBRANCH   4   7
ENDBRANCH   1   4
BRANCH   1  12
ATOM     12  C   UNL     1      38.383 -25.216 -12.374  0.00  0.00    +0.185 C 
BRANCH  12  13
ATOM     13  O   UNL     1      39.470 -24.764 -13.177  0.00  0.00    -0.271 OA
BRANCH  13  14
ATOM     14  P   UNL     1      39.676 -25.432 -14.633  0.00  0.00    +0.473 P 
ATOM     15  O   UNL     1      41.068 -25.913 -14.921  0.00  0.00    -0.227 OA
BRANCH  14  16
ATOM     16  O   UNL     1      39.105 -24.315 -15.654  0.00  0.00    -0.303 OA
ATOM     17  H   UNL     1      38.312 -24.657 -16.096  0.00  0.00    +0.222 HD
ENDBRANCH  14  16
BRANCH  14  18
ATOM     18  O   UNL     1      38.536 -26.578 -14.662  0.00  0.00    -0.303 OA
ATOM     19  H   UNL     1      38.766 -27.245 -15.327  0.00  0.00    +0.222 HD
ENDBRANCH  14  18
ENDBRANCH  13  14
ENDBRANCH  12  13
ENDBRANCH   1  12
TORSDOF 11
ENDMDL
MODEL 4
REMARK VINA RESULT:      -6.6      2.108      3.069
REMARK  Name = 77982
REMARK  11 active torsions:
REMARK  status: ('A' for Active; 'I' for Inactive)
REMARK    1  A    between atoms: C_1  and  O_2
REMARK    2  A    between atoms: C_1  and  C_4
REMARK    3  A    between atoms: C_1  and  C_12
REMARK    4  A    between atoms: C_4  and  O_5
REMARK    5  A    between atoms: C_4  and  C_7
REMARK    6  A    between atoms: C_7  and  O_8
REMARK    7  A    between atoms: C_7  and  C_11
REMARK    8  A    between atoms: C_12  and  O_13
REMARK    9  A    between atoms: O_13  and  P_14
REMARK   10  A    between atoms: P_14  and  O_16
REMARK   11  A    between atoms: P_14  and  O_18
REMARK                            x       y       z     vdW  Elec       q    Type
REMARK                         _______ _______ _______ _____ _____    ______ ____
ROOT
ATOM      1  C   UNL     1      36.954 -25.499 -15.006  0.00  0.00    +0.170 C 
ENDROOT
BRANCH   1   2
ATOM      2  O   UNL     1      35.760 -26.141 -15.455  0.00  0.00    -0.379 OA
ATOM      3  H   UNL     1      35.005 -25.813 -14.943  0.00  0.00    +0.211 HD
ENDBRANCH   1   2
BRANCH   1   4
ATOM      4  C   UNL     1      36.622 -24.096 -14.475  0.00  0.00    +0.174 C 
BRANCH   4   5
ATOM      5  O   UNL     1      37.161 -23.958 -13.159  0.00  0.00    -0.379 OA
ATOM      6  H   UNL     1      37.480 -23.051 -13.034  0.00  0.00    +0.211 HD
ENDBRANCH   4   5
BRANCH   4   7
ATOM      7  C   UNL     1      37.128 -22.950 -15.362  0.00  0.00    +0.205 C 
BRANCH   7   8
ATOM      8  O   UNL     1      38.378 -23.331 -15.921  0.00  0.00    -0.375 OA
ATOM      9  H   UNL     1      38.988 -23.576 -15.208  0.00  0.00    +0.211 HD
ENDBRANCH   7   8
BRANCH   7  11
ATOM     10  O   UNL     1      35.108 -23.211 -16.684  0.00  0.00    -0.286 OA
ATOM     11  C   UNL     1      36.171 -22.629 -16.494  0.00  0.00    +0.239 C 
ENDBRANCH   7  11
ENDBRANCH   4   7
ENDBRANCH   1   4
BRANCH   1  12
ATOM     12  C   UNL     1      37.609 -26.379 -13.940  0.00  0.00    +0.185 C 
BRANCH  12  13
ATOM     13  O   UNL     1      38.833 -26.893 -14.455  0.00  0.00    -0.271 OA
BRANCH  13  14
ATOM     14  P   UNL     1      40.114 -25.910 -14.505  0.00  0.00    +0.473 P 
ATOM     15  O   UNL     1      39.982 -24.650 -13.701  0.00  0.00    -0.227 OA
BRANCH  14  16
ATOM     16  O   UNL     1      40.376 -25.697 -16.087  0.00  0.00    -0.303 OA
ATOM     17  H   UNL     1      40.104 -24.802 -16.341  0.00  0.00    +0.222 HD
ENDBRANCH  14  16
BRANCH  14  18
ATOM     18  O   UNL     1      41.326 -26.882 -14.056  0.00  0.00    -0.303 OA
ATOM     19  H   UNL     1      42.077 -26.347 -13.759  0.00  0.00    +0.222 HD
ENDBRANCH  14  18
ENDBRANCH  13  14
ENDBRANCH  12  13
ENDBRANCH   1  12
TORSDOF 11
ENDMDL
MODEL 5
REMARK VINA RESULT:      -6.6      2.724      4.774
REMARK  Name = 77982
REMARK  11 active torsions:
REMARK  status: ('A' for Active; 'I' for Inactive)
REMARK    1  A    between atoms: C_1  and  O_2
REMARK    2  A    between atoms: C_1  and  C_4
REMARK    3  A    between atoms: C_1  and  C_12
REMARK    4  A    between atoms: C_4  and  O_5
REMARK    5  A    between atoms: C_4  and  C_7
REMARK    6  A    between atoms: C_7  and  O_8
REMARK    7  A    between atoms: C_7  and  C_11
REMARK    8  A    between atoms: C_12  and  O_13
REMARK    9  A    between atoms: O_13  and  P_14
REMARK   10  A    between atoms: P_14  and  O_16
REMARK   11  A    between atoms: P_14  and  O_18
REMARK                            x       y       z     vdW  Elec       q    Type
REMARK                         _______ _______ _______ _____ _____    ______ ____
ROOT
ATOM      1  C   UNL     1      37.542 -26.108 -13.900  0.00  0.00    +0.170 C 
ENDROOT
BRANCH   1   2
ATOM      2  O   UNL     1      36.788 -27.295 -13.658  0.00  0.00    -0.379 OA
ATOM      3  H   UNL     1      36.654 -27.769 -14.493  0.00  0.00    +0.211 HD
ENDBRANCH   1   2
BRANCH   1   4
ATOM      4  C   UNL     1      36.791 -25.207 -14.892  0.00  0.00    +0.174 C 
BRANCH   4   5
ATOM      5  O   UNL     1      35.397 -25.238 -14.585  0.00  0.00    -0.379 OA
ATOM      6  H   UNL     1      34.884 -25.240 -15.408  0.00  0.00    +0.211 HD
ENDBRANCH   4   5
BRANCH   4   7
ATOM      7  C   UNL     1      37.281 -23.752 -14.918  0.00  0.00    +0.205 C 
BRANCH   7   8
ATOM      8  O   UNL     1      38.520 -23.706 -15.613  0.00  0.00    -0.375 OA
ATOM      9  H   UNL     1      39.247 -23.825 -14.982  0.00  0.00    +0.211 HD
ENDBRANCH   7   8
BRANCH   7  11
ATOM     10  O   UNL     1      35.688 -23.112 -16.635  0.00  0.00    -0.286 OA
ATOM     11  C   UNL     1      36.303 -22.825 -15.613  0.00  0.00    +0.239 C 
ENDBRANCH   7  11
ENDBRANCH   4   7
ENDBRANCH   1   4
BRANCH   1  12
ATOM     12  C   UNL     1      37.793 -25.409 -12.563  0.00  0.00    +0.185 C 
BRANCH  12  13
ATOM     13  O   UNL     1      36.596 -25.445 -11.792  0.00  0.00    -0.271 OA
BRANCH  13  14
ATOM     14  P   UNL     1      36.075 -24.070 -11.123  0.00  0.00    +0.473 P 
ATOM     15  O   UNL     1      37.123 -23.010 -10.949  0.00  0.00    -0.227 OA
BRANCH  14  16
ATOM     16  O   UNL     1      35.347 -24.553  -9.762  0.00  0.00    -0.303 OA
ATOM     17  H   UNL     1      35.932 -25.160  -9.281  0.00  0.00    +0.222 HD
ENDBRANCH  14  16
BRANCH  14  18
ATOM     18  O   UNL     1      34.838 -23.657 -12.079  0.00  0.00    -0.303 OA
ATOM     19  H   UNL     1      34.655 -24.378 -12.701  0.00  0.00    +0.222 HD
ENDBRANCH  14  18
ENDBRANCH  13  14
ENDBRANCH  12  13
ENDBRANCH   1  12
TORSDOF 11
ENDMDL
MODEL 6
REMARK VINA RESULT:      -6.4      1.640      2.588
REMARK  Name = 77982
REMARK  11 active torsions:
REMARK  status: ('A' for Active; 'I' for Inactive)
REMARK    1  A    between atoms: C_1  and  O_2
REMARK    2  A    between atoms: C_1  and  C_4
REMARK    3  A    between atoms: C_1  and  C_12
REMARK    4  A    between atoms: C_4  and  O_5
REMARK    5  A    between atoms: C_4  and  C_7
REMARK    6  A    between atoms: C_7  and  O_8
REMARK    7  A    between atoms: C_7  and  C_11
REMARK    8  A    between atoms: C_12  and  O_13
REMARK    9  A    between atoms: O_13  and  P_14
REMARK   10  A    between atoms: P_14  and  O_16
REMARK   11  A    between atoms: P_14  and  O_18
REMARK                            x       y       z     vdW  Elec       q    Type
REMARK                         _______ _______ _______ _____ _____    ______ ____
ROOT
ATOM      1  C   UNL     1      36.272 -23.302 -14.191  0.00  0.00    +0.170 C 
ENDROOT
BRANCH   1   2
ATOM      2  O   UNL     1      35.289 -22.545 -14.897  0.00  0.00    -0.379 OA
ATOM      3  H   UNL     1      34.617 -23.144 -15.256  0.00  0.00    +0.211 HD
ENDBRANCH   1   2
BRANCH   1   4
ATOM      4  C   UNL     1      35.585 -24.370 -13.326  0.00  0.00    +0.174 C 
BRANCH   4   5
ATOM      5  O   UNL     1      35.923 -25.663 -13.829  0.00  0.00    -0.379 OA
ATOM      6  H   UNL     1      35.992 -25.626 -14.795  0.00  0.00    +0.211 HD
ENDBRANCH   4   5
BRANCH   4   7
ATOM      7  C   UNL     1      35.932 -24.290 -11.833  0.00  0.00    +0.205 C 
BRANCH   7   8
ATOM      8  O   UNL     1      36.457 -25.546 -11.424  0.00  0.00    -0.375 OA
ATOM      9  H   UNL     1      37.376 -25.432 -11.133  0.00  0.00    +0.211 HD
ENDBRANCH   7   8
BRANCH   7  11
ATOM     10  O   UNL     1      38.155 -23.437 -11.358  0.00  0.00    -0.286 OA
ATOM     11  C   UNL     1      36.961 -23.217 -11.534  0.00  0.00    +0.239 C 
ENDBRANCH   7  11
ENDBRANCH   4   7
ENDBRANCH   1   4
BRANCH   1  12
ATOM     12  C   UNL     1      37.237 -23.916 -15.206  0.00  0.00    +0.185 C 
BRANCH  12  13
ATOM     13  O   UNL     1      38.538 -23.978 -14.628  0.00  0.00    -0.271 OA
BRANCH  13  14
ATOM     14  P   UNL     1      39.268 -25.417 -14.542  0.00  0.00    +0.473 P 
ATOM     15  O   UNL     1      40.735 -25.405 -14.854  0.00  0.00    -0.227 OA
BRANCH  14  16
ATOM     16  O   UNL     1      38.366 -26.366 -15.492  0.00  0.00    -0.303 OA
ATOM     17  H   UNL     1      37.475 -26.444 -15.117  0.00  0.00    +0.222 HD
ENDBRANCH  14  16
BRANCH  14  18
ATOM     18  O   UNL     1      38.890 -25.918 -13.051  0.00  0.00    -0.303 OA
ATOM     19  H   UNL     1      39.279 -25.315 -12.399  0.00  0.00    +0.222 HD
ENDBRANCH  14  18
ENDBRANCH  13  14
ENDBRANCH  12  13
ENDBRANCH   1  12
TORSDOF 11
ENDMDL
MODEL 7
REMARK VINA RESULT:      -6.4      2.115      3.324
REMARK  Name = 77982
REMARK  11 active torsions:
REMARK  status: ('A' for Active; 'I' for Inactive)
REMARK    1  A    between atoms: C_1  and  O_2
REMARK    2  A    between atoms: C_1  and  C_4
REMARK    3  A    between atoms: C_1  and  C_12
REMARK    4  A    between atoms: C_4  and  O_5
REMARK    5  A    between atoms: C_4  and  C_7
REMARK    6  A    between atoms: C_7  and  O_8
REMARK    7  A    between atoms: C_7  and  C_11
REMARK    8  A    between atoms: C_12  and  O_13
REMARK    9  A    between atoms: O_13  and  P_14
REMARK   10  A    between atoms: P_14  and  O_16
REMARK   11  A    between atoms: P_14  and  O_18
REMARK                            x       y       z     vdW  Elec       q    Type
REMARK                         _______ _______ _______ _____ _____    ______ ____
ROOT
ATOM      1  C   UNL     1      34.923 -23.942 -13.325  0.00  0.00    +0.170 C 
ENDROOT
BRANCH   1   2
ATOM      2  O   UNL     1      33.871 -24.906 -13.270  0.00  0.00    -0.379 OA
ATOM      3  H   UNL     1      34.149 -25.714 -13.729  0.00  0.00    +0.211 HD
ENDBRANCH   1   2
BRANCH   1   4
ATOM      4  C   UNL     1      35.790 -24.045 -12.061  0.00  0.00    +0.174 C 
BRANCH   4   5
ATOM      5  O   UNL     1      36.009 -25.424 -11.758  0.00  0.00    -0.379 OA
ATOM      6  H   UNL     1      36.528 -25.832 -12.468  0.00  0.00    +0.211 HD
ENDBRANCH   4   5
BRANCH   4   7
ATOM      7  C   UNL     1      37.139 -23.319 -12.161  0.00  0.00    +0.205 C 
BRANCH   7   8
ATOM      8  O   UNL     1      37.220 -22.372 -11.105  0.00  0.00    -0.375 OA
ATOM      9  H   UNL     1      38.110 -22.396 -10.718  0.00  0.00    +0.211 HD
ENDBRANCH   7   8
BRANCH   7  11
ATOM     10  O   UNL     1      39.201 -24.370 -12.893  0.00  0.00    -0.286 OA
ATOM     11  C   UNL     1      38.317 -24.267 -12.050  0.00  0.00    +0.239 C 
ENDBRANCH   7  11
ENDBRANCH   4   7
ENDBRANCH   1   4
BRANCH   1  12
ATOM     12  C   UNL     1      35.734 -24.178 -14.600  0.00  0.00    +0.185 C 
BRANCH  12  13
ATOM     13  O   UNL     1      35.637 -25.553 -14.961  0.00  0.00    -0.271 OA
BRANCH  13  14
ATOM     14  P   UNL     1      36.994 -26.427 -15.012  0.00  0.00    +0.473 P 
ATOM     15  O   UNL     1      37.296 -27.207 -13.765  0.00  0.00    -0.227 OA
BRANCH  14  16
ATOM     16  O   UNL     1      38.127 -25.359 -15.451  0.00  0.00    -0.303 OA
ATOM     17  H   UNL     1      37.700 -24.552 -15.776  0.00  0.00    +0.222 HD
ENDBRANCH  14  16
BRANCH  14  18
ATOM     18  O   UNL     1      36.791 -27.321 -16.344  0.00  0.00    -0.303 OA
ATOM     19  H   UNL     1      36.657 -28.248 -16.094  0.00  0.00    +0.222 HD
ENDBRANCH  14  18
ENDBRANCH  13  14
ENDBRANCH  12  13
ENDBRANCH   1  12
TORSDOF 11
ENDMDL
MODEL 8
REMARK VINA RESULT:      -6.1      2.442      4.745
REMARK  Name = 77982
REMARK  11 active torsions:
REMARK  status: ('A' for Active; 'I' for Inactive)
REMARK    1  A    between atoms: C_1  and  O_2
REMARK    2  A    between atoms: C_1  and  C_4
REMARK    3  A    between atoms: C_1  and  C_12
REMARK    4  A    between atoms: C_4  and  O_5
REMARK    5  A    between atoms: C_4  and  C_7
REMARK    6  A    between atoms: C_7  and  O_8
REMARK    7  A    between atoms: C_7  and  C_11
REMARK    8  A    between atoms: C_12  and  O_13
REMARK    9  A    between atoms: O_13  and  P_14
REMARK   10  A    between atoms: P_14  and  O_16
REMARK   11  A    between atoms: P_14  and  O_18
REMARK                            x       y       z     vdW  Elec       q    Type
REMARK                         _______ _______ _______ _____ _____    ______ ____
ROOT
ATOM      1  C   UNL     1      37.923 -24.892 -13.583  0.00  0.00    +0.170 C 
ENDROOT
BRANCH   1   2
ATOM      2  O   UNL     1      39.285 -24.722 -13.978  0.00  0.00    -0.379 OA
ATOM      3  H   UNL     1      39.858 -25.245 -13.397  0.00  0.00    +0.211 HD
ENDBRANCH   1   2
BRANCH   1   4
ATOM      4  C   UNL     1      37.195 -25.789 -14.596  0.00  0.00    +0.174 C 
BRANCH   4   5
ATOM      5  O   UNL     1      36.854 -27.023 -13.963  0.00  0.00    -0.379 OA
ATOM      6  H   UNL     1      36.903 -26.917 -13.000  0.00  0.00    +0.211 HD
ENDBRANCH   4   5
BRANCH   4   7
ATOM      7  C   UNL     1      35.936 -25.157 -15.206  0.00  0.00    +0.205 C 
BRANCH   7   8
ATOM      8  O   UNL     1      34.833 -25.439 -14.356  0.00  0.00    -0.375 OA
ATOM      9  H   UNL     1      35.146 -25.907 -13.566  0.00  0.00    +0.211 HD
ENDBRANCH   7   8
BRANCH   7  11
ATOM     10  O   UNL     1      36.372 -23.087 -16.397  0.00  0.00    -0.286 OA
ATOM     11  C   UNL     1      36.058 -23.653 -15.355  0.00  0.00    +0.239 C 
ENDBRANCH   7  11
ENDBRANCH   4   7
ENDBRANCH   1   4
BRANCH   1  12
ATOM     12  C   UNL     1      37.896 -25.478 -12.170  0.00  0.00    +0.185 C 
BRANCH  12  13
ATOM     13  O   UNL     1      36.545 -25.544 -11.724  0.00  0.00    -0.271 OA
BRANCH  13  14
ATOM     14  P   UNL     1      35.859 -24.196 -11.157  0.00  0.00    +0.473 P 
ATOM     15  O   UNL     1      34.782 -23.616 -12.026  0.00  0.00    -0.227 OA
BRANCH  14  16
ATOM     16  O   UNL     1      37.114 -23.218 -10.866  0.00  0.00    -0.303 OA
ATOM     17  H   UNL     1      37.872 -23.745 -10.571  0.00  0.00    +0.222 HD
ENDBRANCH  14  16
BRANCH  14  18
ATOM     18  O   UNL     1      35.380 -24.636  -9.677  0.00  0.00    -0.303 OA
ATOM     19  H   UNL     1      35.955 -25.343  -9.348  0.00  0.00    +0.222 HD
ENDBRANCH  14  18
ENDBRANCH  13  14
ENDBRANCH  12  13
ENDBRANCH   1  12
TORSDOF 11
ENDMDL
MODEL 9
REMARK VINA RESULT:      -6.1      2.365      4.655
REMARK  Name = 77982
REMARK  11 active torsions:
REMARK  status: ('A' for Active; 'I' for Inactive)
REMARK    1  A    between atoms: C_1  and  O_2
REMARK    2  A    between atoms: C_1  and  C_4
REMARK    3  A    between atoms: C_1  and  C_12
REMARK    4  A    between atoms: C_4  and  O_5
REMARK    5  A    between atoms: C_4  and  C_7
REMARK    6  A    between atoms: C_7  and  O_8
REMARK    7  A    between atoms: C_7  and  C_11
REMARK    8  A    between atoms: C_12  and  O_13
REMARK    9  A    between atoms: O_13  and  P_14
REMARK   10  A    between atoms: P_14  and  O_16
REMARK   11  A    between atoms: P_14  and  O_18
REMARK                            x       y       z     vdW  Elec       q    Type
REMARK                         _______ _______ _______ _____ _____    ______ ____
ROOT
ATOM      1  C   UNL     1      35.501 -24.020 -14.727  0.00  0.00    +0.170 C 
ENDROOT
BRANCH   1   2
ATOM      2  O   UNL     1      35.377 -22.605 -14.579  0.00  0.00    -0.379 OA
ATOM      3  H   UNL     1      34.790 -22.258 -15.268  0.00  0.00    +0.211 HD
ENDBRANCH   1   2
BRANCH   1   4
ATOM      4  C   UNL     1      36.959 -24.383 -15.049  0.00  0.00    +0.174 C 
BRANCH   4   5
ATOM      5  O   UNL     1      37.827 -23.546 -14.284  0.00  0.00    -0.379 OA
ATOM      6  H   UNL     1      37.895 -23.891 -13.380  0.00  0.00    +0.211 HD
ENDBRANCH   4   5
BRANCH   4   7
ATOM      7  C   UNL     1      37.311 -25.856 -14.799  0.00  0.00    +0.205 C 
BRANCH   7   8
ATOM      8  O   UNL     1      37.080 -26.584 -15.997  0.00  0.00    -0.375 OA
ATOM      9  H   UNL     1      36.880 -27.509 -15.779  0.00  0.00    +0.211 HD
ENDBRANCH   7   8
BRANCH   7  11
ATOM     10  O   UNL     1      39.170 -25.948 -13.240  0.00  0.00    -0.286 OA
ATOM     11  C   UNL     1      38.759 -26.044 -14.392  0.00  0.00    +0.239 C 
ENDBRANCH   7  11
ENDBRANCH   4   7
ENDBRANCH   1   4
BRANCH   1  12
ATOM     12  C   UNL     1      35.010 -24.689 -13.443  0.00  0.00    +0.185 C 
BRANCH  12  13
ATOM     13  O   UNL     1      35.207 -23.795 -12.352  0.00  0.00    -0.271 OA
BRANCH  13  14
ATOM     14  P   UNL     1      36.286 -24.196 -11.219  0.00  0.00    +0.473 P 
ATOM     15  O   UNL     1      37.443 -23.251 -11.078  0.00  0.00    -0.227 OA
BRANCH  14  16
ATOM     16  O   UNL     1      36.680 -25.722 -11.583  0.00  0.00    -0.303 OA
ATOM     17  H   UNL     1      35.880 -26.212 -11.830  0.00  0.00    +0.222 HD
ENDBRANCH  14  16
BRANCH  14  18
ATOM     18  O   UNL     1      35.369 -24.356  -9.896  0.00  0.00    -0.303 OA
ATOM     19  H   UNL     1      35.422 -25.268  -9.574  0.00  0.00    +0.222 HD
ENDBRANCH  14  18
ENDBRANCH  13  14
ENDBRANCH  12  13
ENDBRANCH   1  12
TORSDOF 11
ENDMDL
