MODEL 1
REMARK VINA RESULT:     -10.3      0.000      0.000
REMARK  Name = 448991
REMARK  8 active torsions:
REMARK  status: ('A' for Active; 'I' for Inactive)
REMARK    1  A    between atoms: N_1  and  CA_28
REMARK    2  A    between atoms: N_2  and  C_12
REMARK    3  A    between atoms: N_15  and  C_18
REMARK    4  A    between atoms: C_23  and  C_25
REMARK    5  A    between atoms: C_25  and  O_26
REMARK    6  A    between atoms: CA_28  and  CB_29
REMARK    7  A    between atoms: CA_28  and  C_32
REMARK    8  A    between atoms: C_32  and  O_33
REMARK                            x       y       z     vdW  Elec       q    Type
REMARK                         _______ _______ _______ _____ _____    ______ ____
ROOT
ATOM      1  N   UNL     1      32.840 -22.583 -18.341  0.00  0.00    -0.258 N 
ATOM      2  N   UNL     1      29.790 -23.894 -14.942  0.00  0.00    -0.262 N 
ATOM      3  N   UNL     1      31.186 -23.150 -16.787  0.00  0.00    -0.311 NA
ATOM      4  N   UNL     1      33.541 -23.634 -16.368  0.00  0.00    -0.311 NA
ATOM      5  N   UNL     1      31.355 -24.740 -13.597  0.00  0.00    -0.240 NA
ATOM      6  C   UNL     1      30.981 -23.717 -15.587  0.00  0.00    +0.220 C 
ATOM      7  C   ACE A   0      32.509 -23.142 -17.121  0.00  0.00    +0.202 C 
ATOM      8  C   UNL     1      31.938 -24.248 -14.738  0.00  0.00    +0.168 C 
ATOM      9  C   UNL     1      33.260 -24.194 -15.166  0.00  0.00    +0.219 C 
ATOM     10  C   UNL     1      30.067 -24.512 -13.752  0.00  0.00    +0.222 C 
ATOM     11  H   UNL     1      32.115 -22.225 -18.902  0.00  0.00    +0.160 HD
ATOM     12  N   UNL     1      34.296 -24.709 -14.368  0.00  0.00    -0.286 N 
ATOM     13  H   UNL     1      33.983 -25.093 -13.516  0.00  0.00    +0.155 HD
ENDROOT
BRANCH  12  15
ATOM     14 CL   UNL     1      38.532 -22.631 -16.342  0.00  0.00    -0.082 Cl
ATOM     15  C   UNL     1      35.694 -24.787 -14.544  0.00  0.00    +0.051 C 
ATOM     16  C   UNL     1      36.361 -23.798 -15.267  0.00  0.00    +0.026 C 
ATOM     17  C   UNL     1      36.407 -25.852 -13.994  0.00  0.00    +0.015 C 
ATOM     18  C   UNL     1      37.743 -23.875 -15.441  0.00  0.00    +0.065 C 
ATOM     19  C   UNL     1      37.789 -25.928 -14.167  0.00  0.00    +0.009 C 
ATOM     20  C   UNL     1      38.457 -24.940 -14.891  0.00  0.00    +0.086 C 
BRANCH  20  22
ATOM     21  O   UNL     1      40.743 -24.575 -14.288  0.00  0.00    -0.245 OA
ATOM     22  C   UNL     1      39.901 -25.062 -15.046  0.00  0.00    +0.339 C 
BRANCH  22  23
ATOM     23  O   UNL     1      40.244 -25.789 -16.143  0.00  0.00    -0.477 OA
ATOM     24  H   UNL     1      40.952 -26.400 -16.097  0.00  0.00    +0.295 HD
ENDBRANCH  22  23
ENDBRANCH  20  22
ENDBRANCH  12  15
BRANCH   2  25
ATOM     25  C   UNL     1      28.484 -23.506 -15.416  0.00  0.00    +0.077 C 
ATOM     26  C   UNL     1      28.277 -21.992 -15.350  0.00  0.00    +0.022 C 
ATOM     27  C   UNL     1      28.196 -24.054 -16.815  0.00  0.00    +0.022 C 
ENDBRANCH   2  25
BRANCH   1  28
ATOM     28  CA  UNL     1      34.202 -22.497 -18.838  0.00  0.00    +0.109 C 
BRANCH  28  29
ATOM     29  CB  UNL     1      34.508 -21.066 -19.335  0.00  0.00    +0.021 C 
ATOM     30  CG1 UNL     1      33.421 -20.478 -20.241  0.00  0.00    +0.002 C 
ATOM     31  CG2 UNL     1      35.866 -20.999 -20.043  0.00  0.00    +0.002 C 
ENDBRANCH  28  29
BRANCH  28  32
ATOM     32  C   UNL     1      34.406 -23.557 -19.924  0.00  0.00    +0.157 C 
BRANCH  32  33
ATOM     33  O   UNL     1      33.761 -24.764 -19.529  0.00  0.00    -0.380 OA
ATOM     34  H   UNL     1      34.161 -25.512 -19.998  0.00  0.00    +0.211 HD
ENDBRANCH  32  33
ENDBRANCH  28  32
ENDBRANCH   1  28
TORSDOF 8
ENDMDL
MODEL 2
REMARK VINA RESULT:     -10.2      1.208      1.586
REMARK  Name = 448991
REMARK  8 active torsions:
REMARK  status: ('A' for Active; 'I' for Inactive)
REMARK    1  A    between atoms: N_1  and  CA_28
REMARK    2  A    between atoms: N_2  and  C_12
REMARK    3  A    between atoms: N_15  and  C_18
REMARK    4  A    between atoms: C_23  and  C_25
REMARK    5  A    between atoms: C_25  and  O_26
REMARK    6  A    between atoms: CA_28  and  CB_29
REMARK    7  A    between atoms: CA_28  and  C_32
REMARK    8  A    between atoms: C_32  and  O_33
REMARK                            x       y       z     vdW  Elec       q    Type
REMARK                         _______ _______ _______ _____ _____    ______ ____
ROOT
ATOM      1  N   UNL     1      33.107 -22.454 -18.908  0.00  0.00    -0.258 N 
ATOM      2  N   UNL     1      29.798 -22.921 -15.531  0.00  0.00    -0.262 N 
ATOM      3  N   UNL     1      31.339 -22.612 -17.383  0.00  0.00    -0.311 NA
ATOM      4  N   UNL     1      33.613 -23.241 -16.760  0.00  0.00    -0.311 NA
ATOM      5  N   UNL     1      31.210 -23.686 -13.983  0.00  0.00    -0.240 NA
ATOM      6  C   UNL     1      31.027 -22.960 -16.125  0.00  0.00    +0.220 C 
ATOM      7  C   ACE A   0      32.670 -22.779 -17.638  0.00  0.00    +0.202 C 
ATOM      8  C   UNL     1      31.888 -23.437 -15.151  0.00  0.00    +0.168 C 
ATOM      9  C   UNL     1      33.226 -23.575 -15.505  0.00  0.00    +0.219 C 
ATOM     10  C   UNL     1      29.960 -23.367 -14.245  0.00  0.00    +0.222 C 
ATOM     11  H   UNL     1      32.446 -22.122 -19.557  0.00  0.00    +0.160 HD
ATOM     12  N   UNL     1      34.170 -24.052 -14.579  0.00  0.00    -0.286 N 
ATOM     13  H   UNL     1      33.784 -24.266 -13.698  0.00  0.00    +0.155 HD
ENDROOT
BRANCH  12  15
ATOM     14 CL   UNL     1      37.988 -27.454 -14.656  0.00  0.00    -0.082 Cl
ATOM     15  C   UNL     1      35.559 -24.286 -14.659  0.00  0.00    +0.051 C 
ATOM     16  C   UNL     1      36.048 -25.591 -14.623  0.00  0.00    +0.026 C 
ATOM     17  C   UNL     1      36.441 -23.212 -14.775  0.00  0.00    +0.015 C 
ATOM     18  C   UNL     1      37.422 -25.823 -14.703  0.00  0.00    +0.065 C 
ATOM     19  C   UNL     1      37.814 -23.444 -14.855  0.00  0.00    +0.009 C 
ATOM     20  C   UNL     1      38.304 -24.749 -14.819  0.00  0.00    +0.086 C 
BRANCH  20  22
ATOM     21  O   UNL     1      40.561 -24.630 -14.035  0.00  0.00    -0.245 OA
ATOM     22  C   UNL     1      39.746 -24.942 -14.906  0.00  0.00    +0.339 C 
BRANCH  22  23
ATOM     23  O   UNL     1      40.121 -25.519 -16.079  0.00  0.00    -0.477 OA
ATOM     24  H   UNL     1      40.467 -24.991 -16.771  0.00  0.00    +0.295 HD
ENDBRANCH  22  23
ENDBRANCH  20  22
ENDBRANCH  12  15
BRANCH   2  25
ATOM     25  C   UNL     1      28.559 -22.493 -16.132  0.00  0.00    +0.077 C 
ATOM     26  C   UNL     1      28.046 -23.498 -17.165  0.00  0.00    +0.022 C 
ATOM     27  C   UNL     1      27.494 -22.172 -15.083  0.00  0.00    +0.022 C 
ENDBRANCH   2  25
BRANCH   1  28
ATOM     28  CA  UNL     1      34.490 -22.574 -19.332  0.00  0.00    +0.109 C 
BRANCH  28  29
ATOM     29  CB  UNL     1      35.101 -21.178 -19.596  0.00  0.00    +0.021 C 
ATOM     30  CG1 UNL     1      34.309 -20.335 -20.600  0.00  0.00    +0.002 C 
ATOM     31  CG2 UNL     1      36.562 -21.283 -20.043  0.00  0.00    +0.002 C 
ENDBRANCH  28  29
BRANCH  28  32
ATOM     32  C   UNL     1      34.559 -23.490 -20.557  0.00  0.00    +0.157 C 
BRANCH  32  33
ATOM     33  O   UNL     1      34.062 -24.778 -20.208  0.00  0.00    -0.380 OA
ATOM     34  H   UNL     1      34.581 -25.137 -19.472  0.00  0.00    +0.211 HD
ENDBRANCH  32  33
ENDBRANCH  28  32
ENDBRANCH   1  28
TORSDOF 8
ENDMDL
MODEL 3
REMARK VINA RESULT:      -9.9      2.536      5.559
REMARK  Name = 448991
REMARK  8 active torsions:
REMARK  status: ('A' for Active; 'I' for Inactive)
REMARK    1  A    between atoms: N_1  and  CA_28
REMARK    2  A    between atoms: N_2  and  C_12
REMARK    3  A    between atoms: N_15  and  C_18
REMARK    4  A    between atoms: C_23  and  C_25
REMARK    5  A    between atoms: C_25  and  O_26
REMARK    6  A    between atoms: CA_28  and  CB_29
REMARK    7  A    between atoms: CA_28  and  C_32
REMARK    8  A    between atoms: C_32  and  O_33
REMARK                            x       y       z     vdW  Elec       q    Type
REMARK                         _______ _______ _______ _____ _____    ______ ____
ROOT
ATOM      1  N   UNL     1      31.587 -22.882 -17.364  0.00  0.00    -0.258 N 
ATOM      2  N   UNL     1      34.519 -20.652 -20.365  0.00  0.00    -0.262 N 
ATOM      3  N   UNL     1      32.862 -21.733 -18.955  0.00  0.00    -0.311 NA
ATOM      4  N   UNL     1      33.907 -22.827 -17.040  0.00  0.00    -0.311 NA
ATOM      5  N   UNL     1      36.373 -21.159 -19.234  0.00  0.00    -0.240 NA
ATOM      6  C   UNL     1      34.115 -21.382 -19.284  0.00  0.00    +0.220 C 
ATOM      7  C   ACE A   0      32.830 -22.466 -17.803  0.00  0.00    +0.202 C 
ATOM      8  C   UNL     1      35.278 -21.687 -18.596  0.00  0.00    +0.168 C 
ATOM      9  C   UNL     1      35.143 -22.437 -17.432  0.00  0.00    +0.219 C 
ATOM     10  C   UNL     1      35.882 -20.545 -20.291  0.00  0.00    +0.222 C 
ATOM     11  H   UNL     1      30.797 -22.631 -17.895  0.00  0.00    +0.160 HD
ATOM     12  N   UNL     1      36.271 -22.792 -16.671  0.00  0.00    -0.286 N 
ATOM     13  H   UNL     1      37.119 -22.458 -17.044  0.00  0.00    +0.155 HD
ENDROOT
BRANCH  12  15
ATOM     14 CL   UNL     1      37.613 -22.805 -11.736  0.00  0.00    -0.082 Cl
ATOM     15  C   UNL     1      36.429 -23.529 -15.479  0.00  0.00    +0.051 C 
ATOM     16  C   UNL     1      36.887 -22.896 -14.324  0.00  0.00    +0.026 C 
ATOM     17  C   UNL     1      36.127 -24.891 -15.456  0.00  0.00    +0.015 C 
ATOM     18  C   UNL     1      37.044 -23.626 -13.144  0.00  0.00    +0.065 C 
ATOM     19  C   UNL     1      36.283 -25.620 -14.278  0.00  0.00    +0.009 C 
ATOM     20  C   UNL     1      36.742 -24.987 -13.122  0.00  0.00    +0.086 C 
BRANCH  20  22
ATOM     21  O   UNL     1      37.751 -26.652 -11.732  0.00  0.00    -0.245 OA
ATOM     22  C   UNL     1      36.889 -25.790 -11.914  0.00  0.00    +0.339 C 
BRANCH  22  23
ATOM     23  O   UNL     1      35.953 -25.487 -10.975  0.00  0.00    -0.477 OA
ATOM     24  H   UNL     1      36.204 -25.392 -10.077  0.00  0.00    +0.295 HD
ENDBRANCH  22  23
ENDBRANCH  20  22
ENDBRANCH  12  15
BRANCH   2  25
ATOM     25  C   UNL     1      33.677 -20.096 -21.396  0.00  0.00    +0.077 C 
ATOM     26  C   UNL     1      32.583 -19.197 -20.819  0.00  0.00    +0.022 C 
ATOM     27  C   UNL     1      34.491 -19.373 -22.471  0.00  0.00    +0.022 C 
ENDBRANCH   2  25
BRANCH   1  28
ATOM     28  CA  UNL     1      31.387 -23.669 -16.161  0.00  0.00    +0.109 C 
BRANCH  28  29
ATOM     29  CB  UNL     1      30.069 -24.473 -16.252  0.00  0.00    +0.021 C 
ATOM     30  CG1 UNL     1      28.829 -23.606 -16.489  0.00  0.00    +0.002 C 
ATOM     31  CG2 UNL     1      29.862 -25.348 -15.011  0.00  0.00    +0.002 C 
ENDBRANCH  28  29
BRANCH  28  32
ATOM     32  C   UNL     1      31.430 -22.741 -14.944  0.00  0.00    +0.157 C 
BRANCH  32  33
ATOM     33  O   UNL     1      32.685 -22.887 -14.286  0.00  0.00    -0.380 OA
ATOM     34  H   UNL     1      32.608 -23.554 -13.587  0.00  0.00    +0.211 HD
ENDBRANCH  32  33
ENDBRANCH  28  32
ENDBRANCH   1  28
TORSDOF 8
ENDMDL
MODEL 4
REMARK VINA RESULT:      -9.3      1.667      2.126
REMARK  Name = 448991
REMARK  8 active torsions:
REMARK  status: ('A' for Active; 'I' for Inactive)
REMARK    1  A    between atoms: N_1  and  CA_28
REMARK    2  A    between atoms: N_2  and  C_12
REMARK    3  A    between atoms: N_15  and  C_18
REMARK    4  A    between atoms: C_23  and  C_25
REMARK    5  A    between atoms: C_25  and  O_26
REMARK    6  A    between atoms: CA_28  and  CB_29
REMARK    7  A    between atoms: CA_28  and  C_32
REMARK    8  A    between atoms: C_32  and  O_33
REMARK                            x       y       z     vdW  Elec       q    Type
REMARK                         _______ _______ _______ _____ _____    ______ ____
ROOT
ATOM      1  N   UNL     1      34.156 -22.386 -18.226  0.00  0.00    -0.258 N 
ATOM      2  N   UNL     1      30.470 -23.703 -15.533  0.00  0.00    -0.262 N 
ATOM      3  N   UNL     1      32.218 -22.934 -17.036  0.00  0.00    -0.311 NA
ATOM      4  N   UNL     1      34.422 -23.649 -16.272  0.00  0.00    -0.311 NA
ATOM      5  N   UNL     1      31.710 -24.785 -14.028  0.00  0.00    -0.240 NA
ATOM      6  C   UNL     1      31.765 -23.576 -15.947  0.00  0.00    +0.220 C 
ATOM      7  C   ACE A   0      33.577 -23.011 -17.139  0.00  0.00    +0.202 C 
ATOM      8  C   UNL     1      32.518 -24.254 -15.002  0.00  0.00    +0.168 C 
ATOM      9  C   UNL     1      33.896 -24.278 -15.193  0.00  0.00    +0.219 C 
ATOM     10  C   UNL     1      30.489 -24.437 -14.377  0.00  0.00    +0.222 C 
ATOM     11  H   UNL     1      33.568 -21.923 -18.865  0.00  0.00    +0.160 HD
ATOM     12  N   UNL     1      34.736 -24.943 -14.284  0.00  0.00    -0.286 N 
ATOM     13  H   UNL     1      34.252 -25.367 -13.537  0.00  0.00    +0.155 HD
ENDROOT
BRANCH  12  15
ATOM     14 CL   UNL     1      39.167 -23.753 -12.023  0.00  0.00    -0.082 Cl
ATOM     15  C   UNL     1      36.134 -25.125 -14.227  0.00  0.00    +0.051 C 
ATOM     16  C   UNL     1      36.887 -24.439 -13.274  0.00  0.00    +0.026 C 
ATOM     17  C   UNL     1      36.761 -25.990 -15.123  0.00  0.00    +0.015 C 
ATOM     18  C   UNL     1      38.270 -24.619 -13.217  0.00  0.00    +0.065 C 
ATOM     19  C   UNL     1      38.143 -26.170 -15.066  0.00  0.00    +0.009 C 
ATOM     20  C   UNL     1      38.897 -25.484 -14.114  0.00  0.00    +0.086 C 
BRANCH  20  22
ATOM     21  O   UNL     1      40.901 -26.696 -13.623  0.00  0.00    -0.245 OA
ATOM     22  C   UNL     1      40.338 -25.705 -14.092  0.00  0.00    +0.339 C 
BRANCH  22  23
ATOM     23  O   UNL     1      41.027 -24.678 -14.659  0.00  0.00    -0.477 OA
ATOM     24  H   UNL     1      41.751 -24.856 -15.226  0.00  0.00    +0.295 HD
ENDBRANCH  22  23
ENDBRANCH  20  22
ENDBRANCH  12  15
BRANCH   2  25
ATOM     25  C   UNL     1      29.298 -23.168 -16.182  0.00  0.00    +0.077 C 
ATOM     26  C   UNL     1      28.413 -24.271 -16.764  0.00  0.00    +0.022 C 
ATOM     27  C   UNL     1      28.507 -22.239 -15.260  0.00  0.00    +0.022 C 
ENDBRANCH   2  25
BRANCH   1  28
ATOM     28  CA  UNL     1      35.586 -22.376 -18.475  0.00  0.00    +0.109 C 
BRANCH  28  29
ATOM     29  CB  UNL     1      36.324 -21.587 -17.368  0.00  0.00    +0.021 C 
ATOM     30  CG1 UNL     1      37.192 -20.442 -17.897  0.00  0.00    +0.002 C 
ATOM     31  CG2 UNL     1      37.168 -22.515 -16.488  0.00  0.00    +0.002 C 
ENDBRANCH  28  29
BRANCH  28  32
ATOM     32  C   UNL     1      35.847 -21.814 -19.875  0.00  0.00    +0.157 C 
BRANCH  32  33
ATOM     33  O   UNL     1      34.818 -20.885 -20.206  0.00  0.00    -0.380 OA
ATOM     34  H   UNL     1      34.688 -20.876 -21.167  0.00  0.00    +0.211 HD
ENDBRANCH  32  33
ENDBRANCH  28  32
ENDBRANCH   1  28
TORSDOF 8
ENDMDL
MODEL 5
REMARK VINA RESULT:      -8.8      3.238      7.250
REMARK  Name = 448991
REMARK  8 active torsions:
REMARK  status: ('A' for Active; 'I' for Inactive)
REMARK    1  A    between atoms: N_1  and  CA_28
REMARK    2  A    between atoms: N_2  and  C_12
REMARK    3  A    between atoms: N_15  and  C_18
REMARK    4  A    between atoms: C_23  and  C_25
REMARK    5  A    between atoms: C_25  and  O_26
REMARK    6  A    between atoms: CA_28  and  CB_29
REMARK    7  A    between atoms: CA_28  and  C_32
REMARK    8  A    between atoms: C_32  and  O_33
REMARK                            x       y       z     vdW  Elec       q    Type
REMARK                         _______ _______ _______ _____ _____    ______ ____
ROOT
ATOM      1  N   UNL     1      33.405 -23.402 -14.695  0.00  0.00    -0.258 N 
ATOM      2  N   UNL     1      37.936 -24.548 -13.841  0.00  0.00    -0.262 N 
ATOM      3  N   UNL     1      35.571 -24.058 -14.098  0.00  0.00    -0.311 NA
ATOM      4  N   UNL     1      35.143 -22.801 -16.146  0.00  0.00    -0.311 NA
ATOM      5  N   UNL     1      38.729 -23.581 -15.687  0.00  0.00    -0.240 NA
ATOM      6  C   UNL     1      36.855 -24.017 -14.484  0.00  0.00    +0.220 C 
ATOM      7  C   ACE A   0      34.755 -23.421 -14.989  0.00  0.00    +0.202 C 
ATOM      8  C   UNL     1      37.367 -23.423 -15.626  0.00  0.00    +0.168 C 
ATOM      9  C   UNL     1      36.458 -22.798 -16.474  0.00  0.00    +0.219 C 
ATOM     10  C   UNL     1      39.038 -24.260 -14.602  0.00  0.00    +0.222 C 
ATOM     11  H   UNL     1      33.102 -23.844 -13.870  0.00  0.00    +0.160 HD
ATOM     12  N   UNL     1      36.890 -22.170 -17.655  0.00  0.00    -0.286 N 
ATOM     13  H   UNL     1      37.863 -22.227 -17.799  0.00  0.00    +0.155 HD
ENDROOT
BRANCH  12  15
ATOM     14 CL   UNL     1      37.109 -18.766 -21.466  0.00  0.00    -0.082 Cl
ATOM     15  C   UNL     1      36.208 -21.475 -18.676  0.00  0.00    +0.051 C 
ATOM     16  C   UNL     1      36.896 -20.568 -19.480  0.00  0.00    +0.026 C 
ATOM     17  C   UNL     1      34.845 -21.696 -18.879  0.00  0.00    +0.015 C 
ATOM     18  C   UNL     1      36.222 -19.880 -20.491  0.00  0.00    +0.065 C 
ATOM     19  C   UNL     1      34.172 -21.010 -19.889  0.00  0.00    +0.009 C 
ATOM     20  C   UNL     1      34.859 -20.102 -20.694  0.00  0.00    +0.086 C 
BRANCH  20  22
ATOM     21  O   UNL     1      34.321 -19.506 -22.948  0.00  0.00    -0.245 OA
ATOM     22  C   UNL     1      34.113 -19.408 -21.736  0.00  0.00    +0.339 C 
BRANCH  22  23
ATOM     23  O   UNL     1      33.133 -18.614 -21.229  0.00  0.00    -0.477 OA
ATOM     24  H   UNL     1      32.250 -18.708 -21.530  0.00  0.00    +0.295 HD
ENDBRANCH  22  23
ENDBRANCH  20  22
ENDBRANCH  12  15
BRANCH   2  25
ATOM     25  C   UNL     1      37.930 -25.274 -12.595  0.00  0.00    +0.077 C 
ATOM     26  C   UNL     1      37.416 -24.419 -11.435  0.00  0.00    +0.022 C 
ATOM     27  C   UNL     1      37.162 -26.593 -12.704  0.00  0.00    +0.022 C 
ENDBRANCH   2  25
BRANCH   1  28
ATOM     28  CA  UNL     1      32.412 -22.764 -15.540  0.00  0.00    +0.109 C 
BRANCH  28  29
ATOM     29  CB  UNL     1      31.057 -22.661 -14.801  0.00  0.00    +0.021 C 
ATOM     30  CG1 UNL     1      30.999 -23.464 -13.498  0.00  0.00    +0.002 C 
ATOM     31  CG2 UNL     1      29.892 -23.062 -15.712  0.00  0.00    +0.002 C 
ENDBRANCH  28  29
BRANCH  28  32
ATOM     32  C   UNL     1      32.308 -23.534 -16.859  0.00  0.00    +0.157 C 
BRANCH  32  33
ATOM     33  O   UNL     1      31.990 -22.626 -17.909  0.00  0.00    -0.380 OA
ATOM     34  H   UNL     1      32.794 -22.414 -18.407  0.00  0.00    +0.211 HD
ENDBRANCH  32  33
ENDBRANCH  28  32
ENDBRANCH   1  28
TORSDOF 8
ENDMDL
MODEL 6
REMARK VINA RESULT:      -8.6      3.518      7.426
REMARK  Name = 448991
REMARK  8 active torsions:
REMARK  status: ('A' for Active; 'I' for Inactive)
REMARK    1  A    between atoms: N_1  and  CA_28
REMARK    2  A    between atoms: N_2  and  C_12
REMARK    3  A    between atoms: N_15  and  C_18
REMARK    4  A    between atoms: C_23  and  C_25
REMARK    5  A    between atoms: C_25  and  O_26
REMARK    6  A    between atoms: CA_28  and  CB_29
REMARK    7  A    between atoms: CA_28  and  C_32
REMARK    8  A    between atoms: C_32  and  O_33
REMARK                            x       y       z     vdW  Elec       q    Type
REMARK                         _______ _______ _______ _____ _____    ______ ____
ROOT
ATOM      1  N   UNL     1      35.066 -23.052 -17.547  0.00  0.00    -0.258 N 
ATOM      2  N   UNL     1      36.379 -24.450 -13.200  0.00  0.00    -0.262 N 
ATOM      3  N   UNL     1      35.910 -23.741 -15.476  0.00  0.00    -0.311 NA
ATOM      4  N   UNL     1      33.519 -23.402 -15.824  0.00  0.00    -0.311 NA
ATOM      5  N   UNL     1      34.308 -24.485 -12.376  0.00  0.00    -0.240 NA
ATOM      6  C   UNL     1      35.559 -24.071 -14.223  0.00  0.00    +0.220 C 
ATOM      7  C   ACE A   0      34.824 -23.412 -16.235  0.00  0.00    +0.202 C 
ATOM      8  C   UNL     1      34.279 -24.098 -13.693  0.00  0.00    +0.168 C 
ATOM      9  C   UNL     1      33.237 -23.745 -14.544  0.00  0.00    +0.219 C 
ATOM     10  C   UNL     1      35.582 -24.688 -12.113  0.00  0.00    +0.222 C 
ATOM     11  H   UNL     1      35.998 -23.049 -17.865  0.00  0.00    +0.160 HD
ATOM     12  N   UNL     1      31.906 -23.745 -14.089  0.00  0.00    -0.286 N 
ATOM     13  H   UNL     1      31.813 -24.009 -13.145  0.00  0.00    +0.155 HD
ENDROOT
BRANCH  12  15
ATOM     14 CL   UNL     1      28.057 -25.325 -17.063  0.00  0.00    -0.082 Cl
ATOM     15  C   UNL     1      30.679 -23.441 -14.715  0.00  0.00    +0.051 C 
ATOM     16  C   UNL     1      30.036 -24.405 -15.492  0.00  0.00    +0.026 C 
ATOM     17  C   UNL     1      30.111 -22.177 -14.558  0.00  0.00    +0.015 C 
ATOM     18  C   UNL     1      28.822 -24.105 -16.111  0.00  0.00    +0.065 C 
ATOM     19  C   UNL     1      28.898 -21.878 -15.177  0.00  0.00    +0.009 C 
ATOM     20  C   UNL     1      28.254 -22.841 -15.954  0.00  0.00    +0.086 C 
BRANCH  20  22
ATOM     21  O   UNL     1      26.787 -22.416 -17.796  0.00  0.00    -0.245 OA
ATOM     22  C   UNL     1      26.988 -22.481 -16.581  0.00  0.00    +0.339 C 
BRANCH  22  23
ATOM     23  O   UNL     1      26.015 -22.216 -15.668  0.00  0.00    -0.477 OA
ATOM     24  H   UNL     1      25.507 -21.433 -15.739  0.00  0.00    +0.295 HD
ENDBRANCH  22  23
ENDBRANCH  20  22
ENDBRANCH  12  15
BRANCH   2  25
ATOM     25  C   UNL     1      37.815 -24.581 -13.246  0.00  0.00    +0.077 C 
ATOM     26  C   UNL     1      38.478 -24.068 -11.967  0.00  0.00    +0.022 C 
ATOM     27  C   UNL     1      38.250 -26.011 -13.571  0.00  0.00    +0.022 C 
ENDBRANCH   2  25
BRANCH   1  28
ATOM     28  CA  UNL     1      34.019 -22.678 -18.480  0.00  0.00    +0.109 C 
BRANCH  28  29
ATOM     29  CB  UNL     1      34.602 -21.844 -19.644  0.00  0.00    +0.021 C 
ATOM     30  CG1 UNL     1      35.993 -21.270 -19.360  0.00  0.00    +0.002 C 
ATOM     31  CG2 UNL     1      33.649 -20.717 -20.056  0.00  0.00    +0.002 C 
ENDBRANCH  28  29
BRANCH  28  32
ATOM     32  C   UNL     1      32.913 -21.940 -17.720  0.00  0.00    +0.157 C 
BRANCH  32  33
ATOM     33  O   UNL     1      31.698 -22.675 -17.830  0.00  0.00    -0.380 OA
ATOM     34  H   UNL     1      31.675 -23.137 -18.683  0.00  0.00    +0.211 HD
ENDBRANCH  32  33
ENDBRANCH  28  32
ENDBRANCH   1  28
TORSDOF 8
ENDMDL
MODEL 7
REMARK VINA RESULT:      -8.3      2.548      5.936
REMARK  Name = 448991
REMARK  8 active torsions:
REMARK  status: ('A' for Active; 'I' for Inactive)
REMARK    1  A    between atoms: N_1  and  CA_28
REMARK    2  A    between atoms: N_2  and  C_12
REMARK    3  A    between atoms: N_15  and  C_18
REMARK    4  A    between atoms: C_23  and  C_25
REMARK    5  A    between atoms: C_25  and  O_26
REMARK    6  A    between atoms: CA_28  and  CB_29
REMARK    7  A    between atoms: CA_28  and  C_32
REMARK    8  A    between atoms: C_32  and  O_33
REMARK                            x       y       z     vdW  Elec       q    Type
REMARK                         _______ _______ _______ _____ _____    ______ ____
ROOT
ATOM      1  N   UNL     1      35.165 -23.784 -15.342  0.00  0.00    -0.258 N 
ATOM      2  N   UNL     1      30.442 -24.294 -15.304  0.00  0.00    -0.262 N 
ATOM      3  N   UNL     1      32.862 -24.153 -15.152  0.00  0.00    -0.311 NA
ATOM      4  N   UNL     1      33.787 -22.804 -16.964  0.00  0.00    -0.311 NA
ATOM      5  N   UNL     1      30.102 -23.064 -17.133  0.00  0.00    -0.240 NA
ATOM      6  C   UNL     1      31.676 -23.882 -15.718  0.00  0.00    +0.220 C 
ATOM      7  C   ACE A   0      33.892 -23.574 -15.837  0.00  0.00    +0.202 C 
ATOM      8  C   UNL     1      31.444 -23.120 -16.852  0.00  0.00    +0.168 C 
ATOM      9  C   UNL     1      32.557 -22.571 -17.481  0.00  0.00    +0.219 C 
ATOM     10  C   UNL     1      29.529 -23.777 -16.186  0.00  0.00    +0.222 C 
ATOM     11  H   UNL     1      35.265 -24.332 -14.531  0.00  0.00    +0.160 HD
ATOM     12  N   UNL     1      32.414 -21.785 -18.637  0.00  0.00    -0.286 N 
ATOM     13  H   UNL     1      31.479 -21.677 -18.928  0.00  0.00    +0.155 HD
ENDROOT
BRANCH  12  15
ATOM     14 CL   UNL     1      37.264 -21.307 -20.189  0.00  0.00    -0.082 Cl
ATOM     15  C   UNL     1      33.343 -21.118 -19.464  0.00  0.00    +0.051 C 
ATOM     16  C   UNL     1      34.689 -21.483 -19.435  0.00  0.00    +0.026 C 
ATOM     17  C   UNL     1      32.915 -20.095 -20.310  0.00  0.00    +0.015 C 
ATOM     18  C   UNL     1      35.608 -20.825 -20.253  0.00  0.00    +0.065 C 
ATOM     19  C   UNL     1      33.833 -19.437 -21.127  0.00  0.00    +0.009 C 
ATOM     20  C   UNL     1      35.179 -19.801 -21.099  0.00  0.00    +0.086 C 
BRANCH  20  22
ATOM     21  O   UNL     1      37.220 -18.679 -21.646  0.00  0.00    -0.245 OA
ATOM     22  C   UNL     1      36.102 -19.085 -21.971  0.00  0.00    +0.339 C 
BRANCH  22  23
ATOM     23  O   UNL     1      35.595 -18.901 -23.219  0.00  0.00    -0.477 OA
ATOM     24  H   UNL     1      34.891 -18.298 -23.355  0.00  0.00    +0.295 HD
ENDBRANCH  22  23
ENDBRANCH  20  22
ENDBRANCH  12  15
BRANCH   2  25
ATOM     25  C   UNL     1      30.144 -25.118 -14.159  0.00  0.00    +0.077 C 
ATOM     26  C   UNL     1      30.338 -24.362 -12.843  0.00  0.00    +0.022 C 
ATOM     27  C   UNL     1      28.751 -25.743 -14.248  0.00  0.00    +0.022 C 
ENDBRANCH   2  25
BRANCH   1  28
ATOM     28  CA  UNL     1      36.362 -23.239 -15.957  0.00  0.00    +0.109 C 
BRANCH  28  29
ATOM     29  CB  UNL     1      37.621 -23.670 -15.170  0.00  0.00    +0.021 C 
ATOM     30  CG1 UNL     1      37.896 -25.176 -15.219  0.00  0.00    +0.002 C 
ATOM     31  CG2 UNL     1      37.557 -23.200 -13.713  0.00  0.00    +0.002 C 
ENDBRANCH  28  29
BRANCH  28  32
ATOM     32  C   UNL     1      36.222 -21.718 -16.061  0.00  0.00    +0.157 C 
BRANCH  32  33
ATOM     33  O   UNL     1      37.368 -21.185 -16.718  0.00  0.00    -0.380 OA
ATOM     34  H   UNL     1      37.325 -21.393 -17.664  0.00  0.00    +0.211 HD
ENDBRANCH  32  33
ENDBRANCH  28  32
ENDBRANCH   1  28
TORSDOF 8
ENDMDL
