MODEL 1
REMARK VINA RESULT:      -6.1      0.000      0.000
REMARK  Name = 1001
REMARK  3 active torsions:
REMARK  status: ('A' for Active; 'I' for Inactive)
REMARK    1  A    between atoms: C_1  and  C_2
REMARK    2  A    between atoms: C_1  and  C_8
REMARK    3  A    between atoms: C_8  and  N_9
REMARK                            x       y       z     vdW  Elec       q    Type
REMARK                         _______ _______ _______ _____ _____    ______ ____
ROOT
ATOM      1  C   UNL     1      36.026 -18.539 -21.765  0.00  0.00    +0.002 C 
ENDROOT
BRANCH   1   2
ATOM      2  C   UNL     1      35.139 -19.488 -21.030  0.00  0.00    -0.024 C 
ATOM      3  C   UNL     1      33.754 -19.334 -21.084  0.00  0.00    -0.004 C 
ATOM      4  C   UNL     1      35.697 -20.531 -20.289  0.00  0.00    -0.004 C 
ATOM      5  C   UNL     1      32.926 -20.221 -20.397  0.00  0.00    -0.000 C 
ATOM      6  C   UNL     1      34.868 -21.418 -19.603  0.00  0.00    -0.000 C 
ATOM      7  C   UNL     1      33.483 -21.264 -19.657  0.00  0.00    -0.000 C 
ENDBRANCH   1   2
BRANCH   1   8
ATOM      8  C   UNL     1      35.443 -18.143 -23.128  0.00  0.00    -0.081 C 
BRANCH   8   9
ATOM      9  N   UNL     1      35.607 -16.715 -23.386  0.00  0.00    +0.381 N 
ATOM     10  H   UNL     1      36.483 -16.395 -22.974  0.00  0.00    -0.089 HD
ATOM     11  H   UNL     1      34.829 -16.203 -22.970  0.00  0.00    -0.089 HD
ATOM     12  H   UNL     1      35.624 -16.551 -24.392  0.00  0.00    -0.089 HD
ENDBRANCH   8   9
ENDBRANCH   1   8
TORSDOF 3
ENDMDL
MODEL 2
REMARK VINA RESULT:      -6.1      0.069      1.612
REMARK  Name = 1001
REMARK  3 active torsions:
REMARK  status: ('A' for Active; 'I' for Inactive)
REMARK    1  A    between atoms: C_1  and  C_2
REMARK    2  A    between atoms: C_1  and  C_8
REMARK    3  A    between atoms: C_8  and  N_9
REMARK                            x       y       z     vdW  Elec       q    Type
REMARK                         _______ _______ _______ _____ _____    ______ ____
ROOT
ATOM      1  C   UNL     1      35.967 -18.542 -21.742  0.00  0.00    +0.002 C 
ENDROOT
BRANCH   1   2
ATOM      2  C   UNL     1      35.110 -19.516 -21.005  0.00  0.00    -0.024 C 
ATOM      3  C   UNL     1      35.697 -20.557 -20.286  0.00  0.00    -0.004 C 
ATOM      4  C   UNL     1      33.721 -19.386 -21.035  0.00  0.00    -0.004 C 
ATOM      5  C   UNL     1      34.898 -21.469 -19.598  0.00  0.00    -0.000 C 
ATOM      6  C   UNL     1      32.921 -20.296 -20.345  0.00  0.00    -0.000 C 
ATOM      7  C   UNL     1      33.508 -21.338 -19.627  0.00  0.00    -0.000 C 
ENDBRANCH   1   2
BRANCH   1   8
ATOM      8  C   UNL     1      35.351 -18.134 -23.088  0.00  0.00    -0.081 C 
BRANCH   8   9
ATOM      9  N   UNL     1      35.603 -16.727 -23.387  0.00  0.00    +0.381 N 
ATOM     10  H   UNL     1      35.659 -16.200 -22.516  0.00  0.00    -0.089 HD
ATOM     11  H   UNL     1      34.842 -16.360 -23.959  0.00  0.00    -0.089 HD
ATOM     12  H   UNL     1      36.483 -16.640 -23.895  0.00  0.00    -0.089 HD
ENDBRANCH   8   9
ENDBRANCH   1   8
TORSDOF 3
ENDMDL
MODEL 3
REMARK VINA RESULT:      -5.7      3.365      4.660
REMARK  Name = 1001
REMARK  3 active torsions:
REMARK  status: ('A' for Active; 'I' for Inactive)
REMARK    1  A    between atoms: C_1  and  C_2
REMARK    2  A    between atoms: C_1  and  C_8
REMARK    3  A    between atoms: C_8  and  N_9
REMARK                            x       y       z     vdW  Elec       q    Type
REMARK                         _______ _______ _______ _____ _____    ______ ____
ROOT
ATOM      1  C   UNL     1      34.644 -22.508 -18.812  0.00  0.00    +0.002 C 
ENDROOT
BRANCH   1   2
ATOM      2  C   UNL     1      34.422 -21.311 -19.674  0.00  0.00    -0.024 C 
ATOM      3  C   UNL     1      33.128 -20.837 -19.892  0.00  0.00    -0.004 C 
ATOM      4  C   UNL     1      35.509 -20.665 -20.264  0.00  0.00    -0.004 C 
ATOM      5  C   UNL     1      32.920 -19.719 -20.698  0.00  0.00    -0.000 C 
ATOM      6  C   UNL     1      35.301 -19.546 -21.069  0.00  0.00    -0.000 C 
ATOM      7  C   UNL     1      34.007 -19.073 -21.287  0.00  0.00    -0.000 C 
ENDBRANCH   1   2
BRANCH   1   8
ATOM      8  C   UNL     1      33.378 -22.907 -18.040  0.00  0.00    -0.081 C 
BRANCH   8   9
ATOM      9  N   UNL     1      33.693 -23.336 -16.681  0.00  0.00    +0.381 N 
ATOM     10  H   UNL     1      32.907 -23.862 -16.301  0.00  0.00    -0.089 HD
ATOM     11  H   UNL     1      33.868 -22.517 -16.098  0.00  0.00    -0.089 HD
ATOM     12  H   UNL     1      34.523 -23.928 -16.695  0.00  0.00    -0.089 HD
ENDBRANCH   8   9
ENDBRANCH   1   8
TORSDOF 3
ENDMDL
MODEL 4
REMARK VINA RESULT:      -5.6      2.510      4.376
REMARK  Name = 1001
REMARK  3 active torsions:
REMARK  status: ('A' for Active; 'I' for Inactive)
REMARK    1  A    between atoms: C_1  and  C_2
REMARK    2  A    between atoms: C_1  and  C_8
REMARK    3  A    between atoms: C_8  and  N_9
REMARK                            x       y       z     vdW  Elec       q    Type
REMARK                         _______ _______ _______ _____ _____    ______ ____
ROOT
ATOM      1  C   UNL     1      34.426 -19.962 -20.816  0.00  0.00    +0.002 C 
ENDROOT
BRANCH   1   2
ATOM      2  C   UNL     1      34.654 -18.849 -21.782  0.00  0.00    -0.024 C 
ATOM      3  C   UNL     1      34.675 -17.528 -21.333  0.00  0.00    -0.004 C 
ATOM      4  C   UNL     1      34.846 -19.128 -23.136  0.00  0.00    -0.004 C 
ATOM      5  C   UNL     1      34.888 -16.487 -22.236  0.00  0.00    -0.000 C 
ATOM      6  C   UNL     1      35.059 -18.087 -24.038  0.00  0.00    -0.000 C 
ATOM      7  C   UNL     1      35.080 -16.767 -23.590  0.00  0.00    -0.000 C 
ENDBRANCH   1   2
BRANCH   1   8
ATOM      8  C   UNL     1      32.934 -20.178 -20.525  0.00  0.00    -0.081 C 
BRANCH   8   9
ATOM      9  N   UNL     1      32.735 -21.086 -19.399  0.00  0.00    +0.381 N 
ATOM     10  H   UNL     1      32.936 -22.041 -19.694  0.00  0.00    -0.089 HD
ATOM     11  H   UNL     1      31.767 -21.025 -19.081  0.00  0.00    -0.089 HD
ATOM     12  H   UNL     1      33.361 -20.826 -18.637  0.00  0.00    -0.089 HD
ENDBRANCH   8   9
ENDBRANCH   1   8
TORSDOF 3
ENDMDL
MODEL 5
REMARK VINA RESULT:      -5.6      2.925      4.526
REMARK  Name = 1001
REMARK  3 active torsions:
REMARK  status: ('A' for Active; 'I' for Inactive)
REMARK    1  A    between atoms: C_1  and  C_2
REMARK    2  A    between atoms: C_1  and  C_8
REMARK    3  A    between atoms: C_8  and  N_9
REMARK                            x       y       z     vdW  Elec       q    Type
REMARK                         _______ _______ _______ _____ _____    ______ ____
ROOT
ATOM      1  C   UNL     1      33.215 -20.935 -19.915  0.00  0.00    +0.002 C 
ENDROOT
BRANCH   1   2
ATOM      2  C   UNL     1      34.354 -20.152 -20.476  0.00  0.00    -0.024 C 
ATOM      3  C   UNL     1      35.663 -20.468 -20.114  0.00  0.00    -0.004 C 
ATOM      4  C   UNL     1      34.110 -19.103 -21.364  0.00  0.00    -0.004 C 
ATOM      5  C   UNL     1      36.728 -19.736 -20.637  0.00  0.00    -0.000 C 
ATOM      6  C   UNL     1      35.175 -18.372 -21.888  0.00  0.00    -0.000 C 
ATOM      7  C   UNL     1      36.484 -18.687 -21.525  0.00  0.00    -0.000 C 
ENDBRANCH   1   2
BRANCH   1   8
ATOM      8  C   UNL     1      33.692 -22.136 -19.087  0.00  0.00    -0.081 C 
BRANCH   8   9
ATOM      9  N   UNL     1      32.654 -22.602 -18.173  0.00  0.00    +0.381 N 
ATOM     10  H   UNL     1      31.759 -22.193 -18.438  0.00  0.00    -0.089 HD
ATOM     11  H   UNL     1      32.888 -22.319 -17.221  0.00  0.00    -0.089 HD
ATOM     12  H   UNL     1      32.591 -23.619 -18.220  0.00  0.00    -0.089 HD
ENDBRANCH   8   9
ENDBRANCH   1   8
TORSDOF 3
ENDMDL
MODEL 6
REMARK VINA RESULT:      -5.4      3.210      4.643
REMARK  Name = 1001
REMARK  3 active torsions:
REMARK  status: ('A' for Active; 'I' for Inactive)
REMARK    1  A    between atoms: C_1  and  C_2
REMARK    2  A    between atoms: C_1  and  C_8
REMARK    3  A    between atoms: C_8  and  N_9
REMARK                            x       y       z     vdW  Elec       q    Type
REMARK                         _______ _______ _______ _____ _____    ______ ____
ROOT
ATOM      1  C   UNL     1      34.685 -22.342 -18.583  0.00  0.00    +0.002 C 
ENDROOT
BRANCH   1   2
ATOM      2  C   UNL     1      34.429 -21.263 -19.582  0.00  0.00    -0.024 C 
ATOM      3  C   UNL     1      35.497 -20.666 -20.253  0.00  0.00    -0.004 C 
ATOM      4  C   UNL     1      33.122 -20.852 -19.845  0.00  0.00    -0.004 C 
ATOM      5  C   UNL     1      35.259 -19.658 -21.185  0.00  0.00    -0.000 C 
ATOM      6  C   UNL     1      32.885 -19.843 -20.779  0.00  0.00    -0.000 C 
ATOM      7  C   UNL     1      33.952 -19.246 -21.449  0.00  0.00    -0.000 C 
ENDBRANCH   1   2
BRANCH   1   8
ATOM      8  C   UNL     1      35.978 -22.103 -17.792  0.00  0.00    -0.081 C 
BRANCH   8   9
ATOM      9  N   UNL     1      35.876 -22.621 -16.431  0.00  0.00    +0.381 N 
ATOM     10  H   UNL     1      36.670 -22.291 -15.882  0.00  0.00    -0.089 HD
ATOM     11  H   UNL     1      35.881 -23.641 -16.455  0.00  0.00    -0.089 HD
ATOM     12  H   UNL     1      35.009 -22.294 -16.006  0.00  0.00    -0.089 HD
ENDBRANCH   8   9
ENDBRANCH   1   8
TORSDOF 3
ENDMDL
MODEL 7
REMARK VINA RESULT:      -5.4      2.307      4.552
REMARK  Name = 1001
REMARK  3 active torsions:
REMARK  status: ('A' for Active; 'I' for Inactive)
REMARK    1  A    between atoms: C_1  and  C_2
REMARK    2  A    between atoms: C_1  and  C_8
REMARK    3  A    between atoms: C_8  and  N_9
REMARK                            x       y       z     vdW  Elec       q    Type
REMARK                         _______ _______ _______ _____ _____    ______ ____
ROOT
ATOM      1  C   UNL     1      35.980 -18.716 -21.379  0.00  0.00    +0.002 C 
ENDROOT
BRANCH   1   2
ATOM      2  C   UNL     1      35.426 -18.222 -22.673  0.00  0.00    -0.024 C 
ATOM      3  C   UNL     1      35.000 -19.130 -23.642  0.00  0.00    -0.004 C 
ATOM      4  C   UNL     1      35.333 -16.850 -22.913  0.00  0.00    -0.004 C 
ATOM      5  C   UNL     1      34.483 -18.669 -24.852  0.00  0.00    -0.000 C 
ATOM      6  C   UNL     1      34.815 -16.389 -24.123  0.00  0.00    -0.000 C 
ATOM      7  C   UNL     1      34.390 -17.297 -25.093  0.00  0.00    -0.000 C 
ENDBRANCH   1   2
BRANCH   1   8
ATOM      8  C   UNL     1      35.212 -19.934 -20.849  0.00  0.00    -0.081 C 
BRANCH   8   9
ATOM      9  N   UNL     1      35.898 -20.550 -19.717  0.00  0.00    +0.381 N 
ATOM     10  H   UNL     1      36.906 -20.475 -19.850  0.00  0.00    -0.089 HD
ATOM     11  H   UNL     1      35.635 -21.533 -19.655  0.00  0.00    -0.089 HD
ATOM     12  H   UNL     1      35.632 -20.071 -18.857  0.00  0.00    -0.089 HD
ENDBRANCH   8   9
ENDBRANCH   1   8
TORSDOF 3
ENDMDL
MODEL 8
REMARK VINA RESULT:      -5.4      2.364      4.406
REMARK  Name = 1001
REMARK  3 active torsions:
REMARK  status: ('A' for Active; 'I' for Inactive)
REMARK    1  A    between atoms: C_1  and  C_2
REMARK    2  A    between atoms: C_1  and  C_8
REMARK    3  A    between atoms: C_8  and  N_9
REMARK                            x       y       z     vdW  Elec       q    Type
REMARK                         _______ _______ _______ _____ _____    ______ ____
ROOT
ATOM      1  C   UNL     1      35.275 -18.409 -21.070  0.00  0.00    +0.002 C 
ENDROOT
BRANCH   1   2
ATOM      2  C   UNL     1      35.021 -18.101 -22.507  0.00  0.00    -0.024 C 
ATOM      3  C   UNL     1      35.067 -16.781 -22.957  0.00  0.00    -0.004 C 
ATOM      4  C   UNL     1      34.738 -19.133 -23.403  0.00  0.00    -0.004 C 
ATOM      5  C   UNL     1      34.829 -16.492 -24.300  0.00  0.00    -0.000 C 
ATOM      6  C   UNL     1      34.501 -18.844 -24.746  0.00  0.00    -0.000 C 
ATOM      7  C   UNL     1      34.546 -17.524 -25.196  0.00  0.00    -0.000 C 
ENDBRANCH   1   2
BRANCH   1   8
ATOM      8  C   UNL     1      35.569 -19.898 -20.842  0.00  0.00    -0.081 C 
BRANCH   8   9
ATOM      9  N   UNL     1      36.583 -20.093 -19.810  0.00  0.00    +0.381 N 
ATOM     10  H   UNL     1      36.208 -19.804 -18.907  0.00  0.00    -0.089 HD
ATOM     11  H   UNL     1      37.405 -19.531 -20.032  0.00  0.00    -0.089 HD
ATOM     12  H   UNL     1      36.844 -21.078 -19.772  0.00  0.00    -0.089 HD
ENDBRANCH   8   9
ENDBRANCH   1   8
TORSDOF 3
ENDMDL
MODEL 9
REMARK VINA RESULT:      -5.3      3.177      4.460
REMARK  Name = 1001
REMARK  3 active torsions:
REMARK  status: ('A' for Active; 'I' for Inactive)
REMARK    1  A    between atoms: C_1  and  C_2
REMARK    2  A    between atoms: C_1  and  C_8
REMARK    3  A    between atoms: C_8  and  N_9
REMARK                            x       y       z     vdW  Elec       q    Type
REMARK                         _______ _______ _______ _____ _____    ______ ____
ROOT
ATOM      1  C   UNL     1      34.570 -14.970 -22.919  0.00  0.00    +0.002 C 
ENDROOT
BRANCH   1   2
ATOM      2  C   UNL     1      34.661 -16.393 -23.359  0.00  0.00    -0.024 C 
ATOM      3  C   UNL     1      34.396 -16.732 -24.686  0.00  0.00    -0.004 C 
ATOM      4  C   UNL     1      35.011 -17.385 -22.442  0.00  0.00    -0.004 C 
ATOM      5  C   UNL     1      34.480 -18.062 -25.097  0.00  0.00    -0.000 C 
ATOM      6  C   UNL     1      35.096 -18.715 -22.854  0.00  0.00    -0.000 C 
ATOM      7  C   UNL     1      34.831 -19.054 -24.180  0.00  0.00    -0.000 C 
ENDBRANCH   1   2
BRANCH   1   8
ATOM      8  C   UNL     1      33.724 -14.122 -23.878  0.00  0.00    -0.081 C 
BRANCH   8   9
ATOM      9  N   UNL     1      34.088 -12.710 -23.808  0.00  0.00    +0.381 N 
ATOM     10  H   UNL     1      33.367 -12.151 -24.263  0.00  0.00    -0.089 HD
ATOM     11  H   UNL     1      34.980 -12.566 -24.281  0.00  0.00    -0.089 HD
ATOM     12  H   UNL     1      34.170 -12.429 -22.831  0.00  0.00    -0.089 HD
ENDBRANCH   8   9
ENDBRANCH   1   8
TORSDOF 3
ENDMDL
