MODEL 1
REMARK VINA RESULT:      -8.5      0.000      0.000
REMARK  Name = 4421
REMARK  3 active torsions:
REMARK  status: ('A' for Active; 'I' for Inactive)
REMARK    1  A    between atoms: N_2  and  C_17
REMARK    2  A    between atoms: C_7  and  C_14
REMARK    3  A    between atoms: C_14  and  O_15
REMARK                            x       y       z     vdW  Elec       q    Type
REMARK                         _______ _______ _______ _____ _____    ______ ____
ROOT
ATOM      1  O   UNL     1      34.072 -16.571 -26.053  0.00  0.00    -0.290 OA
ATOM      2  N   UNL     1      34.167 -15.369 -22.169  0.00  0.00    -0.264 N 
ATOM      3  N   UNL     1      35.038 -17.521 -21.486  0.00  0.00    -0.395 NA
ATOM      4  C   UNL     1      34.602 -16.687 -22.468  0.00  0.00    +0.174 C 
ATOM      5  C   UNL     1      34.575 -17.118 -23.805  0.00  0.00    +0.151 C 
ATOM      6  C   UNL     1      33.728 -14.538 -23.178  0.00  0.00    +0.076 C 
ATOM      7  C   UNL     1      33.665 -14.852 -24.477  0.00  0.00    +0.126 C 
ATOM      8  C   UNL     1      34.100 -16.212 -24.882  0.00  0.00    +0.192 C 
ATOM      9  C   UNL     1      34.998 -18.410 -24.128  0.00  0.00    -0.008 C 
ATOM     10  C   UNL     1      35.441 -18.766 -21.828  0.00  0.00    +0.110 C 
ATOM     11  C   UNL     1      35.441 -19.254 -23.120  0.00  0.00    +0.024 C 
ATOM     12  C   UNL     1      35.910 -19.643 -20.716  0.00  0.00    +0.066 C 
ENDROOT
BRANCH   7  14
ATOM     13  O   UNL     1      33.565 -12.684 -25.421  0.00  0.00    -0.245 OA
ATOM     14  C   UNL     1      33.172 -13.845 -25.417  0.00  0.00    +0.342 C 
BRANCH  14  15
ATOM     15  O   UNL     1      32.259 -14.390 -26.241  0.00  0.00    -0.477 OA
ATOM     16  H   UNL     1      31.978 -15.274 -26.108  0.00  0.00    +0.295 HD
ENDBRANCH  14  15
ENDBRANCH   7  14
BRANCH   2  17
ATOM     17  C   UNL     1      34.217 -14.975 -20.767  0.00  0.00    +0.098 C 
ATOM     18  C   UNL     1      32.820 -14.758 -20.208  0.00  0.00    +0.024 C 
ENDBRANCH   2  17
TORSDOF 3
ENDMDL
MODEL 2
REMARK VINA RESULT:      -8.1      2.709      5.349
REMARK  Name = 4421
REMARK  3 active torsions:
REMARK  status: ('A' for Active; 'I' for Inactive)
REMARK    1  A    between atoms: N_2  and  C_17
REMARK    2  A    between atoms: C_7  and  C_14
REMARK    3  A    between atoms: C_14  and  O_15
REMARK                            x       y       z     vdW  Elec       q    Type
REMARK                         _______ _______ _______ _____ _____    ______ ____
ROOT
ATOM      1  O   UNL     1      34.517 -17.064 -20.885  0.00  0.00    -0.290 OA
ATOM      2  N   UNL     1      33.503 -14.943 -24.203  0.00  0.00    -0.264 N 
ATOM      3  N   UNL     1      32.401 -13.272 -22.843  0.00  0.00    -0.395 NA
ATOM      4  C   UNL     1      33.101 -14.434 -22.939  0.00  0.00    +0.174 C 
ATOM      5  C   UNL     1      33.444 -15.155 -21.783  0.00  0.00    +0.151 C 
ATOM      6  C   UNL     1      34.214 -16.122 -24.281  0.00  0.00    +0.076 C 
ATOM      7  C   UNL     1      34.587 -16.879 -23.244  0.00  0.00    +0.126 C 
ATOM      8  C   UNL     1      34.209 -16.423 -21.883  0.00  0.00    +0.192 C 
ATOM      9  C   UNL     1      33.062 -14.676 -20.527  0.00  0.00    -0.008 C 
ATOM     10  C   UNL     1      32.044 -12.833 -21.614  0.00  0.00    +0.110 C 
ATOM     11  C   UNL     1      32.347 -13.491 -20.437  0.00  0.00    +0.024 C 
ATOM     12  C   UNL     1      31.276 -11.556 -21.559  0.00  0.00    +0.066 C 
ENDROOT
BRANCH   7  14
ATOM     13  O   UNL     1      34.940 -18.987 -24.259  0.00  0.00    -0.245 OA
ATOM     14  C   UNL     1      35.340 -18.106 -23.508  0.00  0.00    +0.342 C 
BRANCH  14  15
ATOM     15  O   UNL     1      36.495 -18.096 -22.819  0.00  0.00    -0.477 OA
ATOM     16  H   UNL     1      36.678 -17.398 -22.222  0.00  0.00    +0.295 HD
ENDBRANCH  14  15
ENDBRANCH   7  14
BRANCH   2  17
ATOM     17  C   UNL     1      33.122 -14.154 -25.368  0.00  0.00    +0.098 C 
ATOM     18  C   UNL     1      32.821 -15.047 -26.560  0.00  0.00    +0.024 C 
ENDBRANCH   2  17
TORSDOF 3
ENDMDL
MODEL 3
REMARK VINA RESULT:      -8.1      2.640      4.907
REMARK  Name = 4421
REMARK  3 active torsions:
REMARK  status: ('A' for Active; 'I' for Inactive)
REMARK    1  A    between atoms: N_2  and  C_17
REMARK    2  A    between atoms: C_7  and  C_14
REMARK    3  A    between atoms: C_14  and  O_15
REMARK                            x       y       z     vdW  Elec       q    Type
REMARK                         _______ _______ _______ _____ _____    ______ ____
ROOT
ATOM      1  O   UNL     1      35.273 -19.472 -23.732  0.00  0.00    -0.290 OA
ATOM      2  N   UNL     1      34.560 -16.068 -21.626  0.00  0.00    -0.264 N 
ATOM      3  N   UNL     1      33.820 -14.938 -23.633  0.00  0.00    -0.395 NA
ATOM      4  C   UNL     1      34.297 -16.055 -23.021  0.00  0.00    +0.174 C 
ATOM      5  C   UNL     1      34.538 -17.222 -23.764  0.00  0.00    +0.151 C 
ATOM      6  C   UNL     1      35.043 -17.210 -21.022  0.00  0.00    +0.076 C 
ATOM      7  C   UNL     1      35.304 -18.368 -21.638  0.00  0.00    +0.126 C 
ATOM      8  C   UNL     1      35.059 -18.445 -23.100  0.00  0.00    +0.192 C 
ATOM      9  C   UNL     1      34.287 -17.237 -25.138  0.00  0.00    -0.008 C 
ATOM     10  C   UNL     1      33.586 -14.980 -24.965  0.00  0.00    +0.110 C 
ATOM     11  C   UNL     1      33.801 -16.094 -25.754  0.00  0.00    +0.024 C 
ATOM     12  C   UNL     1      33.064 -13.731 -25.590  0.00  0.00    +0.066 C 
ENDROOT
BRANCH   7  14
ATOM     13  O   UNL     1      36.909 -19.467 -20.291  0.00  0.00    -0.245 OA
ATOM     14  C   UNL     1      35.816 -19.485 -20.842  0.00  0.00    +0.342 C 
BRANCH  14  15
ATOM     15  O   UNL     1      34.916 -20.485 -20.819  0.00  0.00    -0.477 OA
ATOM     16  H   UNL     1      34.704 -20.942 -21.609  0.00  0.00    +0.295 HD
ENDBRANCH  14  15
ENDBRANCH   7  14
BRANCH   2  17
ATOM     17  C   UNL     1      34.291 -14.830 -20.905  0.00  0.00    +0.098 C 
ATOM     18  C   UNL     1      32.897 -14.839 -20.300  0.00  0.00    +0.024 C 
ENDBRANCH   2  17
TORSDOF 3
ENDMDL
MODEL 4
REMARK VINA RESULT:      -8.1      9.733     12.510
REMARK  Name = 4421
REMARK  3 active torsions:
REMARK  status: ('A' for Active; 'I' for Inactive)
REMARK    1  A    between atoms: N_2  and  C_17
REMARK    2  A    between atoms: C_7  and  C_14
REMARK    3  A    between atoms: C_14  and  O_15
REMARK                            x       y       z     vdW  Elec       q    Type
REMARK                         _______ _______ _______ _____ _____    ______ ____
ROOT
ATOM      1  O   UNL     1      37.899 -23.140 -13.067  0.00  0.00    -0.290 OA
ATOM      2  N   UNL     1      34.118 -23.714 -14.450  0.00  0.00    -0.264 N 
ATOM      3  N   UNL     1      34.745 -22.861 -16.626  0.00  0.00    -0.395 NA
ATOM      4  C   UNL     1      35.079 -23.174 -15.345  0.00  0.00    +0.174 C 
ATOM      5  C   UNL     1      36.390 -22.969 -14.883  0.00  0.00    +0.151 C 
ATOM      6  C   UNL     1      34.475 -24.026 -13.155  0.00  0.00    +0.076 C 
ATOM      7  C   UNL     1      35.691 -23.869 -12.621  0.00  0.00    +0.126 C 
ATOM      8  C   UNL     1      36.760 -23.311 -13.485  0.00  0.00    +0.192 C 
ATOM      9  C   UNL     1      37.356 -22.441 -15.743  0.00  0.00    -0.008 C 
ATOM     10  C   UNL     1      35.701 -22.350 -17.436  0.00  0.00    +0.110 C 
ATOM     11  C   UNL     1      37.007 -22.124 -17.047  0.00  0.00    +0.024 C 
ATOM     12  C   UNL     1      35.286 -22.022 -18.831  0.00  0.00    +0.066 C 
ENDROOT
BRANCH   7  14
ATOM     13  O   UNL     1      35.309 -25.188 -10.694  0.00  0.00    -0.245 OA
ATOM     14  C   UNL     1      35.897 -24.254 -11.223  0.00  0.00    +0.342 C 
BRANCH  14  15
ATOM     15  O   UNL     1      36.805 -23.443 -10.651  0.00  0.00    -0.477 OA
ATOM     16  H   UNL     1      36.768 -23.276  -9.730  0.00  0.00    +0.295 HD
ENDBRANCH  14  15
ENDBRANCH   7  14
BRANCH   2  17
ATOM     17  C   UNL     1      32.775 -23.906 -14.982  0.00  0.00    +0.098 C 
ATOM     18  C   UNL     1      31.792 -22.930 -14.357  0.00  0.00    +0.024 C 
ENDBRANCH   2  17
TORSDOF 3
ENDMDL
MODEL 5
REMARK VINA RESULT:      -7.9     11.250     13.046
REMARK  Name = 4421
REMARK  3 active torsions:
REMARK  status: ('A' for Active; 'I' for Inactive)
REMARK    1  A    between atoms: N_2  and  C_17
REMARK    2  A    between atoms: C_7  and  C_14
REMARK    3  A    between atoms: C_14  and  O_15
REMARK                            x       y       z     vdW  Elec       q    Type
REMARK                         _______ _______ _______ _____ _____    ______ ____
ROOT
ATOM      1  O   UNL     1      34.923 -24.881 -11.518  0.00  0.00    -0.290 OA
ATOM      2  N   UNL     1      35.828 -23.073 -15.046  0.00  0.00    -0.264 N 
ATOM      3  N   UNL     1      33.509 -23.163 -15.729  0.00  0.00    -0.395 NA
ATOM      4  C   UNL     1      34.474 -23.424 -14.807  0.00  0.00    +0.174 C 
ATOM      5  C   UNL     1      34.144 -24.050 -13.593  0.00  0.00    +0.151 C 
ATOM      6  C   UNL     1      36.793 -23.346 -14.099  0.00  0.00    +0.076 C 
ATOM      7  C   UNL     1      36.582 -23.935 -12.917  0.00  0.00    +0.126 C 
ATOM      8  C   UNL     1      35.193 -24.337 -12.582  0.00  0.00    +0.192 C 
ATOM      9  C   UNL     1      32.818 -24.406 -13.331  0.00  0.00    -0.008 C 
ATOM     10  C   UNL     1      32.234 -23.519 -15.450  0.00  0.00    +0.110 C 
ATOM     11  C   UNL     1      31.841 -24.135 -14.277  0.00  0.00    +0.024 C 
ATOM     12  C   UNL     1      31.212 -23.211 -16.492  0.00  0.00    +0.066 C 
ENDROOT
BRANCH   7  14
ATOM     13  O   UNL     1      38.454 -23.243 -11.646  0.00  0.00    -0.245 OA
ATOM     14  C   UNL     1      37.725 -24.150 -12.028  0.00  0.00    +0.342 C 
BRANCH  14  15
ATOM     15  O   UNL     1      37.827 -25.454 -11.715  0.00  0.00    -0.477 OA
ATOM     16  H   UNL     1      37.076 -25.922 -11.408  0.00  0.00    +0.295 HD
ENDBRANCH  14  15
ENDBRANCH   7  14
BRANCH   2  17
ATOM     17  C   UNL     1      36.113 -22.427 -16.321  0.00  0.00    +0.098 C 
ATOM     18  C   UNL     1      37.580 -22.046 -16.427  0.00  0.00    +0.024 C 
ENDBRANCH   2  17
TORSDOF 3
ENDMDL
MODEL 6
REMARK VINA RESULT:      -7.8      9.197     11.417
REMARK  Name = 4421
REMARK  3 active torsions:
REMARK  status: ('A' for Active; 'I' for Inactive)
REMARK    1  A    between atoms: N_2  and  C_17
REMARK    2  A    between atoms: C_7  and  C_14
REMARK    3  A    between atoms: C_14  and  O_15
REMARK                            x       y       z     vdW  Elec       q    Type
REMARK                         _______ _______ _______ _____ _____    ______ ____
ROOT
ATOM      1  O   UNL     1      35.871 -22.727 -16.912  0.00  0.00    -0.290 OA
ATOM      2  N   UNL     1      32.762 -23.956 -14.597  0.00  0.00    -0.264 N 
ATOM      3  N   UNL     1      34.223 -24.160 -12.679  0.00  0.00    -0.395 NA
ATOM      4  C   UNL     1      34.042 -23.856 -13.993  0.00  0.00    +0.174 C 
ATOM      5  C   UNL     1      35.128 -23.433 -14.778  0.00  0.00    +0.151 C 
ATOM      6  C   UNL     1      32.598 -23.643 -15.931  0.00  0.00    +0.076 C 
ATOM      7  C   UNL     1      33.563 -23.232 -16.760  0.00  0.00    +0.126 C 
ATOM      8  C   UNL     1      34.936 -23.099 -16.213  0.00  0.00    +0.192 C 
ATOM      9  C   UNL     1      36.399 -23.325 -14.209  0.00  0.00    -0.008 C 
ATOM     10  C   UNL     1      35.464 -24.047 -12.154  0.00  0.00    +0.110 C 
ATOM     11  C   UNL     1      36.574 -23.637 -12.869  0.00  0.00    +0.024 C 
ATOM     12  C   UNL     1      35.612 -24.392 -10.711  0.00  0.00    +0.066 C 
ENDROOT
BRANCH   7  14
ATOM     13  O   UNL     1      32.390 -22.093 -18.470  0.00  0.00    -0.245 OA
ATOM     14  C   UNL     1      33.213 -22.942 -18.152  0.00  0.00    +0.342 C 
BRANCH  14  15
ATOM     15  O   UNL     1      33.923 -23.729 -18.980  0.00  0.00    -0.477 OA
ATOM     16  H   UNL     1      34.687 -23.392 -19.405  0.00  0.00    +0.295 HD
ENDBRANCH  14  15
ENDBRANCH   7  14
BRANCH   2  17
ATOM     17  C   UNL     1      31.673 -24.399 -13.736  0.00  0.00    +0.098 C 
ATOM     18  C   UNL     1      30.621 -25.158 -14.527  0.00  0.00    +0.024 C 
ENDBRANCH   2  17
TORSDOF 3
ENDMDL
MODEL 7
REMARK VINA RESULT:      -7.7      8.701     11.344
REMARK  Name = 4421
REMARK  3 active torsions:
REMARK  status: ('A' for Active; 'I' for Inactive)
REMARK    1  A    between atoms: N_2  and  C_17
REMARK    2  A    between atoms: C_7  and  C_14
REMARK    3  A    between atoms: C_14  and  O_15
REMARK                            x       y       z     vdW  Elec       q    Type
REMARK                         _______ _______ _______ _____ _____    ______ ____
ROOT
ATOM      1  O   UNL     1      30.628 -23.377 -16.447  0.00  0.00    -0.290 OA
ATOM      2  N   UNL     1      34.473 -23.834 -15.205  0.00  0.00    -0.264 N 
ATOM      3  N   UNL     1      35.289 -22.771 -17.220  0.00  0.00    -0.395 NA
ATOM      4  C   UNL     1      34.249 -23.207 -16.459  0.00  0.00    +0.174 C 
ATOM      5  C   UNL     1      32.926 -23.041 -16.903  0.00  0.00    +0.151 C 
ATOM      6  C   UNL     1      33.406 -24.269 -14.447  0.00  0.00    +0.076 C 
ATOM      7  C   UNL     1      32.115 -24.158 -14.779  0.00  0.00    +0.126 C 
ATOM      8  C   UNL     1      31.787 -23.514 -16.076  0.00  0.00    +0.192 C 
ATOM      9  C   UNL     1      32.677 -22.426 -18.133  0.00  0.00    -0.008 C 
ATOM     10  C   UNL     1      35.018 -22.180 -18.407  0.00  0.00    +0.110 C 
ATOM     11  C   UNL     1      33.743 -21.985 -18.902  0.00  0.00    +0.024 C 
ATOM     12  C   UNL     1      36.191 -21.720 -19.205  0.00  0.00    +0.066 C 
ENDROOT
BRANCH   7  14
ATOM     13  O   UNL     1      30.911 -24.197 -12.743  0.00  0.00    -0.245 OA
ATOM     14  C   UNL     1      31.107 -24.676 -13.853  0.00  0.00    +0.342 C 
BRANCH  14  15
ATOM     15  O   UNL     1      30.462 -25.718 -14.409  0.00  0.00    -0.477 OA
ATOM     16  H   UNL     1      30.827 -26.150 -15.155  0.00  0.00    +0.295 HD
ENDBRANCH  14  15
ENDBRANCH   7  14
BRANCH   2  17
ATOM     17  C   UNL     1      35.864 -23.978 -14.794  0.00  0.00    +0.098 C 
ATOM     18  C   UNL     1      36.318 -25.425 -14.894  0.00  0.00    +0.024 C 
ENDBRANCH   2  17
TORSDOF 3
ENDMDL
MODEL 8
REMARK VINA RESULT:      -7.7      9.386     11.880
REMARK  Name = 4421
REMARK  3 active torsions:
REMARK  status: ('A' for Active; 'I' for Inactive)
REMARK    1  A    between atoms: N_2  and  C_17
REMARK    2  A    between atoms: C_7  and  C_14
REMARK    3  A    between atoms: C_14  and  O_15
REMARK                            x       y       z     vdW  Elec       q    Type
REMARK                         _______ _______ _______ _____ _____    ______ ____
ROOT
ATOM      1  O   UNL     1      33.409 -24.242 -12.958  0.00  0.00    -0.290 OA
ATOM      2  N   UNL     1      33.352 -23.146 -16.874  0.00  0.00    -0.264 N 
ATOM      3  N   UNL     1      30.952 -22.848 -16.794  0.00  0.00    -0.395 NA
ATOM      4  C   UNL     1      32.117 -23.177 -16.174  0.00  0.00    +0.174 C 
ATOM      5  C   UNL     1      32.119 -23.553 -14.820  0.00  0.00    +0.151 C 
ATOM      6  C   UNL     1      34.524 -23.482 -16.228  0.00  0.00    +0.076 C 
ATOM      7  C   UNL     1      34.631 -23.852 -14.948  0.00  0.00    +0.126 C 
ATOM      8  C   UNL     1      33.389 -23.913 -14.138  0.00  0.00    +0.192 C 
ATOM      9  C   UNL     1      30.918 -23.592 -14.107  0.00  0.00    -0.008 C 
ATOM     10  C   UNL     1      29.804 -22.894 -16.079  0.00  0.00    +0.110 C 
ATOM     11  C   UNL     1      29.735 -23.256 -14.747  0.00  0.00    +0.024 C 
ATOM     12  C   UNL     1      28.553 -22.526 -16.802  0.00  0.00    +0.066 C 
ENDROOT
BRANCH   7  14
ATOM     13  O   UNL     1      36.902 -23.396 -14.463  0.00  0.00    -0.245 OA
ATOM     14  C   UNL     1      35.958 -24.176 -14.422  0.00  0.00    +0.342 C 
BRANCH  14  15
ATOM     15  O   UNL     1      35.959 -25.418 -13.905  0.00  0.00    -0.477 OA
ATOM     16  H   UNL     1      35.697 -26.145 -14.435  0.00  0.00    +0.295 HD
ENDBRANCH  14  15
ENDBRANCH   7  14
BRANCH   2  17
ATOM     17  C   UNL     1      33.291 -22.747 -18.274  0.00  0.00    +0.098 C 
ATOM     18  C   UNL     1      34.629 -22.206 -18.749  0.00  0.00    +0.024 C 
ENDBRANCH   2  17
TORSDOF 3
ENDMDL
MODEL 9
REMARK VINA RESULT:      -7.7      8.666     11.007
REMARK  Name = 4421
REMARK  3 active torsions:
REMARK  status: ('A' for Active; 'I' for Inactive)
REMARK    1  A    between atoms: N_2  and  C_17
REMARK    2  A    between atoms: C_7  and  C_14
REMARK    3  A    between atoms: C_14  and  O_15
REMARK                            x       y       z     vdW  Elec       q    Type
REMARK                         _______ _______ _______ _____ _____    ______ ____
ROOT
ATOM      1  O   UNL     1      30.953 -23.634 -13.795  0.00  0.00    -0.290 OA
ATOM      2  N   UNL     1      33.030 -23.060 -17.243  0.00  0.00    -0.264 N 
ATOM      3  N   UNL     1      35.108 -23.589 -16.123  0.00  0.00    -0.395 NA
ATOM      4  C   UNL     1      33.758 -23.430 -16.082  0.00  0.00    +0.174 C 
ATOM      5  C   UNL     1      33.056 -23.632 -14.882  0.00  0.00    +0.151 C 
ATOM      6  C   UNL     1      31.661 -22.903 -17.183  0.00  0.00    +0.076 C 
ATOM      7  C   UNL     1      30.903 -23.072 -16.094  0.00  0.00    +0.126 C 
ATOM      8  C   UNL     1      31.581 -23.461 -14.832  0.00  0.00    +0.192 C 
ATOM      9  C   UNL     1      33.747 -23.998 -13.724  0.00  0.00    -0.008 C 
ATOM     10  C   UNL     1      35.752 -23.943 -14.986  0.00  0.00    +0.110 C 
ATOM     11  C   UNL     1      35.124 -24.158 -13.775  0.00  0.00    +0.024 C 
ATOM     12  C   UNL     1      37.231 -24.104 -15.081  0.00  0.00    +0.066 C 
ENDROOT
BRANCH   7  14
ATOM     13  O   UNL     1      28.962 -21.992 -16.908  0.00  0.00    -0.245 OA
ATOM     14  C   UNL     1      29.458 -22.865 -16.207  0.00  0.00    +0.342 C 
BRANCH  14  15
ATOM     15  O   UNL     1      28.802 -23.760 -15.447  0.00  0.00    -0.477 OA
ATOM     16  H   UNL     1      28.185 -24.345 -15.840  0.00  0.00    +0.295 HD
ENDBRANCH  14  15
ENDBRANCH   7  14
BRANCH   2  17
ATOM     17  C   UNL     1      33.809 -22.864 -18.459  0.00  0.00    +0.098 C 
ATOM     18  C   UNL     1      33.330 -21.643 -19.227  0.00  0.00    +0.024 C 
ENDBRANCH   2  17
TORSDOF 3
ENDMDL
