MODEL 1
REMARK VINA RESULT:      -9.7      0.000      0.000
REMARK  Name = 4781
REMARK  5 active torsions:
REMARK  status: ('A' for Active; 'I' for Inactive)
REMARK    1  A    between atoms: N_3  and  C_8
REMARK    2  A    between atoms: N_4  and  C_14
REMARK    3  A    between atoms: C_5  and  C_20
REMARK    4  A    between atoms: C_20  and  C_21
REMARK    5  A    between atoms: C_21  and  C_22
REMARK                            x       y       z     vdW  Elec       q    Type
REMARK                         _______ _______ _______ _____ _____    ______ ____
ROOT
ATOM      1  O   UNL     1      35.484 -15.902 -23.661  0.00  0.00    -0.272 OA
ATOM      2  O   UNL     1      32.006 -15.923 -20.474  0.00  0.00    -0.272 OA
ATOM      3  N   UNL     1      33.710 -14.402 -23.142  0.00  0.00    -0.179 N 
ATOM      4  N   UNL     1      32.735 -14.360 -22.116  0.00  0.00    -0.179 N 
ATOM      5  C   UNL     1      33.877 -16.382 -21.927  0.00  0.00    +0.157 C 
ATOM      6  C   UNL     1      34.517 -15.541 -23.008  0.00  0.00    +0.254 C 
ATOM      7  C   UNL     1      32.716 -15.569 -21.404  0.00  0.00    +0.254 C 
ENDROOT
BRANCH   3   8
ATOM      8  C   UNL     1      33.629 -13.659 -24.359  0.00  0.00    +0.073 C 
ATOM      9  C   UNL     1      33.110 -14.254 -25.510  0.00  0.00    +0.017 C 
ATOM     10  C   UNL     1      34.068 -12.334 -24.401  0.00  0.00    +0.017 C 
ATOM     11  C   UNL     1      33.031 -13.528 -26.699  0.00  0.00    +0.001 C 
ATOM     12  C   UNL     1      33.988 -11.607 -25.590  0.00  0.00    +0.001 C 
ATOM     13  C   UNL     1      33.470 -12.205 -26.738  0.00  0.00    +0.000 C 
ENDBRANCH   3   8
BRANCH   4  14
ATOM     14  C   UNL     1      32.176 -13.156 -21.588  0.00  0.00    +0.073 C 
ATOM     15  C   UNL     1      31.518 -12.259 -22.433  0.00  0.00    +0.017 C 
ATOM     16  C   UNL     1      32.286 -12.871 -20.225  0.00  0.00    +0.017 C 
ATOM     17  C   UNL     1      30.971 -11.084 -21.918  0.00  0.00    +0.001 C 
ATOM     18  C   UNL     1      31.739 -11.695 -19.710  0.00  0.00    +0.001 C 
ATOM     19  C   UNL     1      31.082 -10.802 -20.556  0.00  0.00    +0.000 C 
ENDBRANCH   4  14
BRANCH   5  20
ATOM     20  C   UNL     1      34.871 -16.705 -20.826  0.00  0.00    +0.018 C 
BRANCH  20  21
ATOM     21  C   UNL     1      35.385 -18.140 -20.939  0.00  0.00    +0.001 C 
BRANCH  21  22
ATOM     22  C   UNL     1      34.379 -19.035 -21.664  0.00  0.00    +0.000 C 
ATOM     23  C   UNL     1      33.613 -19.915 -20.689  0.00  0.00    +0.000 C 
ENDBRANCH  21  22
ENDBRANCH  20  21
ENDBRANCH   5  20
TORSDOF 5
ENDMDL
MODEL 2
REMARK VINA RESULT:      -9.6      9.654     12.909
REMARK  Name = 4781
REMARK  5 active torsions:
REMARK  status: ('A' for Active; 'I' for Inactive)
REMARK    1  A    between atoms: N_3  and  C_8
REMARK    2  A    between atoms: N_4  and  C_14
REMARK    3  A    between atoms: C_5  and  C_20
REMARK    4  A    between atoms: C_20  and  C_21
REMARK    5  A    between atoms: C_21  and  C_22
REMARK                            x       y       z     vdW  Elec       q    Type
REMARK                         _______ _______ _______ _____ _____    ______ ____
ROOT
ATOM      1  O   UNL     1      31.974 -23.238 -16.443  0.00  0.00    -0.272 OA
ATOM      2  O   UNL     1      34.064 -24.381 -12.371  0.00  0.00    -0.272 OA
ATOM      3  N   UNL     1      34.238 -23.569 -15.783  0.00  0.00    -0.179 N 
ATOM      4  N   UNL     1      34.851 -24.018 -14.588  0.00  0.00    -0.179 N 
ATOM      5  C   UNL     1      32.572 -23.778 -14.169  0.00  0.00    +0.157 C 
ATOM      6  C   UNL     1      32.844 -23.524 -15.633  0.00  0.00    +0.254 C 
ATOM      7  C   UNL     1      33.916 -24.071 -13.544  0.00  0.00    +0.254 C 
ENDROOT
BRANCH   3   8
ATOM      8  C   UNL     1      34.921 -22.870 -16.824  0.00  0.00    +0.073 C 
ATOM      9  C   UNL     1      36.192 -22.340 -16.595  0.00  0.00    +0.017 C 
ATOM     10  C   UNL     1      34.320 -22.714 -18.075  0.00  0.00    +0.017 C 
ATOM     11  C   UNL     1      36.860 -21.657 -17.612  0.00  0.00    +0.001 C 
ATOM     12  C   UNL     1      34.988 -22.031 -19.092  0.00  0.00    +0.001 C 
ATOM     13  C   UNL     1      36.257 -21.503 -18.860  0.00  0.00    +0.000 C 
ENDBRANCH   3   8
BRANCH   4  14
ATOM     14  C   UNL     1      36.090 -24.727 -14.539  0.00  0.00    +0.073 C 
ATOM     15  C   UNL     1      37.195 -24.163 -13.898  0.00  0.00    +0.017 C 
ATOM     16  C   UNL     1      36.200 -25.987 -15.131  0.00  0.00    +0.017 C 
ATOM     17  C   UNL     1      38.405 -24.857 -13.848  0.00  0.00    +0.001 C 
ATOM     18  C   UNL     1      37.410 -26.681 -15.081  0.00  0.00    +0.001 C 
ATOM     19  C   UNL     1      38.512 -26.115 -14.440  0.00  0.00    +0.000 C 
ENDBRANCH   4  14
BRANCH   5  20
ATOM     20  C   UNL     1      31.608 -24.935 -13.985  0.00  0.00    +0.018 C 
BRANCH  20  21
ATOM     21  C   UNL     1      30.175 -24.444 -13.783  0.00  0.00    +0.001 C 
BRANCH  21  22
ATOM     22  C   UNL     1      29.255 -24.938 -14.900  0.00  0.00    +0.000 C 
ATOM     23  C   UNL     1      28.603 -23.780 -15.638  0.00  0.00    +0.000 C 
ENDBRANCH  21  22
ENDBRANCH  20  21
ENDBRANCH   5  20
TORSDOF 5
ENDMDL
MODEL 3
REMARK VINA RESULT:      -9.4      0.515      4.240
REMARK  Name = 4781
REMARK  5 active torsions:
REMARK  status: ('A' for Active; 'I' for Inactive)
REMARK    1  A    between atoms: N_3  and  C_8
REMARK    2  A    between atoms: N_4  and  C_14
REMARK    3  A    between atoms: C_5  and  C_20
REMARK    4  A    between atoms: C_20  and  C_21
REMARK    5  A    between atoms: C_21  and  C_22
REMARK                            x       y       z     vdW  Elec       q    Type
REMARK                         _______ _______ _______ _____ _____    ______ ____
ROOT
ATOM      1  O   UNL     1      32.266 -15.730 -20.011  0.00  0.00    -0.272 OA
ATOM      2  O   UNL     1      35.639 -15.872 -23.307  0.00  0.00    -0.272 OA
ATOM      3  N   UNL     1      32.851 -14.320 -21.839  0.00  0.00    -0.179 N 
ATOM      4  N   UNL     1      33.795 -14.424 -22.889  0.00  0.00    -0.179 N 
ATOM      5  C   UNL     1      34.160 -16.202 -21.428  0.00  0.00    +0.157 C 
ATOM      6  C   UNL     1      32.936 -15.433 -20.989  0.00  0.00    +0.254 C 
ATOM      7  C   UNL     1      34.682 -15.485 -22.651  0.00  0.00    +0.254 C 
ENDROOT
BRANCH   3   8
ATOM      8  C   UNL     1      32.213 -13.104 -21.448  0.00  0.00    +0.073 C 
ATOM      9  C   UNL     1      32.246 -12.693 -20.114  0.00  0.00    +0.017 C 
ATOM     10  C   UNL     1      31.556 -12.320 -22.399  0.00  0.00    +0.017 C 
ATOM     11  C   UNL     1      31.624 -11.504 -19.732  0.00  0.00    +0.001 C 
ATOM     12  C   UNL     1      30.933 -11.131 -22.016  0.00  0.00    +0.001 C 
ATOM     13  C   UNL     1      30.967 -10.724 -20.683  0.00  0.00    +0.000 C 
ENDBRANCH   3   8
BRANCH   4  14
ATOM     14  C   UNL     1      33.619 -13.854 -24.187  0.00  0.00    +0.073 C 
ATOM     15  C   UNL     1      33.991 -12.530 -24.427  0.00  0.00    +0.017 C 
ATOM     16  C   UNL     1      33.074 -14.620 -25.220  0.00  0.00    +0.017 C 
ATOM     17  C   UNL     1      33.820 -11.974 -25.695  0.00  0.00    +0.001 C 
ATOM     18  C   UNL     1      32.903 -14.064 -26.488  0.00  0.00    +0.001 C 
ATOM     19  C   UNL     1      33.276 -12.741 -26.726  0.00  0.00    +0.000 C 
ENDBRANCH   4  14
BRANCH   5  20
ATOM     20  C   UNL     1      33.816 -17.648 -21.736  0.00  0.00    +0.018 C 
BRANCH  20  21
ATOM     21  C   UNL     1      34.875 -18.604 -21.188  0.00  0.00    +0.001 C 
BRANCH  21  22
ATOM     22  C   UNL     1      34.254 -19.932 -20.754  0.00  0.00    +0.000 C 
ATOM     23  C   UNL     1      32.745 -19.820 -20.608  0.00  0.00    +0.000 C 
ENDBRANCH  21  22
ENDBRANCH  20  21
ENDBRANCH   5  20
TORSDOF 5
ENDMDL
MODEL 4
REMARK VINA RESULT:      -9.3      9.367     12.676
REMARK  Name = 4781
REMARK  5 active torsions:
REMARK  status: ('A' for Active; 'I' for Inactive)
REMARK    1  A    between atoms: N_3  and  C_8
REMARK    2  A    between atoms: N_4  and  C_14
REMARK    3  A    between atoms: C_5  and  C_20
REMARK    4  A    between atoms: C_20  and  C_21
REMARK    5  A    between atoms: C_21  and  C_22
REMARK                            x       y       z     vdW  Elec       q    Type
REMARK                         _______ _______ _______ _____ _____    ______ ____
ROOT
ATOM      1  O   UNL     1      32.988 -24.265 -13.105  0.00  0.00    -0.272 OA
ATOM      2  O   UNL     1      31.938 -23.190 -17.577  0.00  0.00    -0.272 OA
ATOM      3  N   UNL     1      34.289 -23.891 -15.063  0.00  0.00    -0.179 N 
ATOM      4  N   UNL     1      33.976 -23.462 -16.377  0.00  0.00    -0.179 N 
ATOM      5  C   UNL     1      31.969 -23.779 -15.237  0.00  0.00    +0.157 C 
ATOM      6  C   UNL     1      33.126 -23.980 -14.285  0.00  0.00    +0.254 C 
ATOM      7  C   UNL     1      32.588 -23.468 -16.579  0.00  0.00    +0.254 C 
ENDROOT
BRANCH   3   8
ATOM      8  C   UNL     1      35.508 -24.538 -14.698  0.00  0.00    +0.073 C 
ATOM      9  C   UNL     1      35.852 -25.761 -15.277  0.00  0.00    +0.017 C 
ATOM     10  C   UNL     1      36.361 -23.950 -13.762  0.00  0.00    +0.017 C 
ATOM     11  C   UNL     1      37.044 -26.394 -14.920  0.00  0.00    +0.001 C 
ATOM     12  C   UNL     1      37.552 -24.583 -13.405  0.00  0.00    +0.001 C 
ATOM     13  C   UNL     1      37.893 -25.805 -13.984  0.00  0.00    +0.000 C 
ENDBRANCH   3   8
BRANCH   4  14
ATOM     14  C   UNL     1      34.866 -22.720 -17.213  0.00  0.00    +0.073 C 
ATOM     15  C   UNL     1      36.094 -22.282 -16.714  0.00  0.00    +0.017 C 
ATOM     16  C   UNL     1      34.510 -22.430 -18.531  0.00  0.00    +0.017 C 
ATOM     17  C   UNL     1      36.963 -21.557 -17.530  0.00  0.00    +0.001 C 
ATOM     18  C   UNL     1      35.379 -21.706 -19.348  0.00  0.00    +0.001 C 
ATOM     19  C   UNL     1      36.605 -21.270 -18.847  0.00  0.00    +0.000 C 
ENDBRANCH   4  14
BRANCH   5  20
ATOM     20  C   UNL     1      31.064 -22.655 -14.767  0.00  0.00    +0.018 C 
BRANCH  20  21
ATOM     21  C   UNL     1      29.594 -23.073 -14.791  0.00  0.00    +0.001 C 
BRANCH  21  22
ATOM     22  C   UNL     1      28.863 -22.467 -15.990  0.00  0.00    +0.000 C 
ATOM     23  C   UNL     1      28.277 -23.545 -16.888  0.00  0.00    +0.000 C 
ENDBRANCH  21  22
ENDBRANCH  20  21
ENDBRANCH   5  20
TORSDOF 5
ENDMDL
MODEL 5
REMARK VINA RESULT:      -9.0      2.075      5.496
REMARK  Name = 4781
REMARK  5 active torsions:
REMARK  status: ('A' for Active; 'I' for Inactive)
REMARK    1  A    between atoms: N_3  and  C_8
REMARK    2  A    between atoms: N_4  and  C_14
REMARK    3  A    between atoms: C_5  and  C_20
REMARK    4  A    between atoms: C_20  and  C_21
REMARK    5  A    between atoms: C_21  and  C_22
REMARK                            x       y       z     vdW  Elec       q    Type
REMARK                         _______ _______ _______ _____ _____    ______ ____
ROOT
ATOM      1  O   UNL     1      32.637 -14.686 -20.756  0.00  0.00    -0.272 OA
ATOM      2  O   UNL     1      31.299 -10.568 -22.630  0.00  0.00    -0.272 OA
ATOM      3  N   UNL     1      33.187 -13.528 -22.762  0.00  0.00    -0.179 N 
ATOM      4  N   UNL     1      32.866 -12.245 -23.268  0.00  0.00    -0.179 N 
ATOM      5  C   UNL     1      31.628 -12.569 -21.321  0.00  0.00    +0.157 C 
ATOM      6  C   UNL     1      32.567 -13.736 -21.521  0.00  0.00    +0.254 C 
ATOM      7  C   UNL     1      31.856 -11.649 -22.498  0.00  0.00    +0.254 C 
ENDROOT
BRANCH   3   8
ATOM      8  C   UNL     1      33.694 -14.601 -23.555  0.00  0.00    +0.073 C 
ATOM      9  C   UNL     1      33.152 -14.857 -24.816  0.00  0.00    +0.017 C 
ATOM     10  C   UNL     1      34.736 -15.396 -23.074  0.00  0.00    +0.017 C 
ATOM     11  C   UNL     1      33.648 -15.906 -25.592  0.00  0.00    +0.001 C 
ATOM     12  C   UNL     1      35.232 -16.445 -23.850  0.00  0.00    +0.001 C 
ATOM     13  C   UNL     1      34.687 -16.699 -25.108  0.00  0.00    +0.000 C 
ENDBRANCH   3   8
BRANCH   4  14
ATOM     14  C   UNL     1      33.717 -11.484 -24.127  0.00  0.00    +0.073 C 
ATOM     15  C   UNL     1      34.008 -11.946 -25.413  0.00  0.00    +0.017 C 
ATOM     16  C   UNL     1      34.262 -10.277 -23.685  0.00  0.00    +0.017 C 
ATOM     17  C   UNL     1      34.838 -11.203 -26.253  0.00  0.00    +0.001 C 
ATOM     18  C   UNL     1      35.092  -9.534 -24.524  0.00  0.00    +0.001 C 
ATOM     19  C   UNL     1      35.381  -9.997 -25.808  0.00  0.00    +0.000 C 
ENDBRANCH   4  14
BRANCH   5  20
ATOM     20  C   UNL     1      31.903 -11.866 -20.004  0.00  0.00    +0.018 C 
BRANCH  20  21
ATOM     21  C   UNL     1      31.054 -10.603 -19.856  0.00  0.00    +0.001 C 
BRANCH  21  22
ATOM     22  C   UNL     1      31.864  -9.458 -19.248  0.00  0.00    +0.000 C 
ATOM     23  C   UNL     1      32.283  -8.450 -20.307  0.00  0.00    +0.000 C 
ENDBRANCH  21  22
ENDBRANCH  20  21
ENDBRANCH   5  20
TORSDOF 5
ENDMDL
MODEL 6
REMARK VINA RESULT:      -8.8      2.327      5.877
REMARK  Name = 4781
REMARK  5 active torsions:
REMARK  status: ('A' for Active; 'I' for Inactive)
REMARK    1  A    between atoms: N_3  and  C_8
REMARK    2  A    between atoms: N_4  and  C_14
REMARK    3  A    between atoms: C_5  and  C_20
REMARK    4  A    between atoms: C_20  and  C_21
REMARK    5  A    between atoms: C_21  and  C_22
REMARK                            x       y       z     vdW  Elec       q    Type
REMARK                         _______ _______ _______ _____ _____    ______ ____
ROOT
ATOM      1  O   UNL     1      31.928 -13.690 -20.339  0.00  0.00    -0.272 OA
ATOM      2  O   UNL     1      30.899  -9.797 -22.797  0.00  0.00    -0.272 OA
ATOM      3  N   UNL     1      32.770 -12.736 -22.352  0.00  0.00    -0.179 N 
ATOM      4  N   UNL     1      32.533 -11.514 -23.027  0.00  0.00    -0.179 N 
ATOM      5  C   UNL     1      31.023 -11.652 -21.258  0.00  0.00    +0.157 C 
ATOM      6  C   UNL     1      31.975 -12.823 -21.199  0.00  0.00    +0.254 C 
ATOM      7  C   UNL     1      31.424 -10.854 -22.476  0.00  0.00    +0.254 C 
ENDROOT
BRANCH   3   8
ATOM      8  C   UNL     1      33.383 -13.878 -22.949  0.00  0.00    +0.073 C 
ATOM      9  C   UNL     1      32.964 -14.321 -24.205  0.00  0.00    +0.017 C 
ATOM     10  C   UNL     1      34.405 -14.556 -22.281  0.00  0.00    +0.017 C 
ATOM     11  C   UNL     1      33.563 -15.438 -24.790  0.00  0.00    +0.001 C 
ATOM     12  C   UNL     1      35.004 -15.673 -22.866  0.00  0.00    +0.001 C 
ATOM     13  C   UNL     1      34.582 -16.113 -24.119  0.00  0.00    +0.000 C 
ENDBRANCH   3   8
BRANCH   4  14
ATOM     14  C   UNL     1      33.505 -10.836 -23.825  0.00  0.00    +0.073 C 
ATOM     15  C   UNL     1      34.019 -11.446 -24.971  0.00  0.00    +0.017 C 
ATOM     16  C   UNL     1      33.943  -9.560 -23.463  0.00  0.00    +0.017 C 
ATOM     17  C   UNL     1      34.967 -10.784 -25.751  0.00  0.00    +0.001 C 
ATOM     18  C   UNL     1      34.890  -8.898 -24.244  0.00  0.00    +0.001 C 
ATOM     19  C   UNL     1      35.403  -9.510 -25.388  0.00  0.00    +0.000 C 
ENDBRANCH   4  14
BRANCH   5  20
ATOM     20  C   UNL     1      31.106 -10.817 -19.993  0.00  0.00    +0.018 C 
BRANCH  20  21
ATOM     21  C   UNL     1      32.339  -9.914 -19.997  0.00  0.00    +0.001 C 
BRANCH  21  22
ATOM     22  C   UNL     1      31.962  -8.456 -19.734  0.00  0.00    +0.000 C 
ATOM     23  C   UNL     1      32.774  -7.506 -20.599  0.00  0.00    +0.000 C 
ENDBRANCH  21  22
ENDBRANCH  20  21
ENDBRANCH   5  20
TORSDOF 5
ENDMDL
MODEL 7
REMARK VINA RESULT:      -8.7      2.512      3.490
REMARK  Name = 4781
REMARK  5 active torsions:
REMARK  status: ('A' for Active; 'I' for Inactive)
REMARK    1  A    between atoms: N_3  and  C_8
REMARK    2  A    between atoms: N_4  and  C_14
REMARK    3  A    between atoms: C_5  and  C_20
REMARK    4  A    between atoms: C_20  and  C_21
REMARK    5  A    between atoms: C_21  and  C_22
REMARK                            x       y       z     vdW  Elec       q    Type
REMARK                         _______ _______ _______ _____ _____    ______ ____
ROOT
ATOM      1  O   UNL     1      34.327 -13.912 -23.049  0.00  0.00    -0.272 OA
ATOM      2  O   UNL     1      30.498 -11.595 -21.556  0.00  0.00    -0.272 OA
ATOM      3  N   UNL     1      33.463 -11.728 -23.436  0.00  0.00    -0.179 N 
ATOM      4  N   UNL     1      32.372 -11.000 -22.901  0.00  0.00    -0.179 N 
ATOM      5  C   UNL     1      32.246 -13.176 -22.078  0.00  0.00    +0.157 C 
ATOM      6  C   UNL     1      33.516 -13.015 -22.880  0.00  0.00    +0.254 C 
ATOM      7  C   UNL     1      31.540 -11.843 -22.148  0.00  0.00    +0.254 C 
ENDROOT
BRANCH   3   8
ATOM      8  C   UNL     1      34.142 -11.386 -24.644  0.00  0.00    +0.073 C 
ATOM      9  C   UNL     1      33.859 -12.074 -25.826  0.00  0.00    +0.017 C 
ATOM     10  C   UNL     1      35.090 -10.360 -24.650  0.00  0.00    +0.017 C 
ATOM     11  C   UNL     1      34.522 -11.740 -27.007  0.00  0.00    +0.001 C 
ATOM     12  C   UNL     1      35.753 -10.026 -25.831  0.00  0.00    +0.001 C 
ATOM     13  C   UNL     1      35.469 -10.716 -27.009  0.00  0.00    +0.000 C 
ENDBRANCH   3   8
BRANCH   4  14
ATOM     14  C   UNL     1      32.346  -9.579 -22.759  0.00  0.00    +0.073 C 
ATOM     15  C   UNL     1      31.897  -8.778 -23.812  0.00  0.00    +0.017 C 
ATOM     16  C   UNL     1      32.770  -8.986 -21.568  0.00  0.00    +0.017 C 
ATOM     17  C   UNL     1      31.871  -7.390 -23.673  0.00  0.00    +0.001 C 
ATOM     18  C   UNL     1      32.744  -7.598 -21.430  0.00  0.00    +0.001 C 
ATOM     19  C   UNL     1      32.295  -6.800 -22.482  0.00  0.00    +0.000 C 
ENDBRANCH   4  14
BRANCH   5  20
ATOM     20  C   UNL     1      32.551 -13.570 -20.644  0.00  0.00    +0.018 C 
BRANCH  20  21
ATOM     21  C   UNL     1      32.683 -15.085 -20.495  0.00  0.00    +0.001 C 
BRANCH  21  22
ATOM     22  C   UNL     1      34.128 -15.492 -20.209  0.00  0.00    +0.000 C 
ATOM     23  C   UNL     1      34.563 -16.656 -21.085  0.00  0.00    +0.000 C 
ENDBRANCH  21  22
ENDBRANCH  20  21
ENDBRANCH   5  20
TORSDOF 5
ENDMDL
MODEL 8
REMARK VINA RESULT:      -8.3      8.687     11.422
REMARK  Name = 4781
REMARK  5 active torsions:
REMARK  status: ('A' for Active; 'I' for Inactive)
REMARK    1  A    between atoms: N_3  and  C_8
REMARK    2  A    between atoms: N_4  and  C_14
REMARK    3  A    between atoms: C_5  and  C_20
REMARK    4  A    between atoms: C_20  and  C_21
REMARK    5  A    between atoms: C_21  and  C_22
REMARK                            x       y       z     vdW  Elec       q    Type
REMARK                         _______ _______ _______ _____ _____    ______ ____
ROOT
ATOM      1  O   UNL     1      38.120 -22.527 -16.118  0.00  0.00    -0.272 OA
ATOM      2  O   UNL     1      34.997 -25.610 -14.387  0.00  0.00    -0.272 OA
ATOM      3  N   UNL     1      35.788 -22.876 -16.445  0.00  0.00    -0.179 N 
ATOM      4  N   UNL     1      34.834 -23.732 -15.842  0.00  0.00    -0.179 N 
ATOM      5  C   UNL     1      36.934 -24.317 -15.020  0.00  0.00    +0.157 C 
ATOM      6  C   UNL     1      37.061 -23.094 -15.897  0.00  0.00    +0.254 C 
ATOM      7  C   UNL     1      35.471 -24.693 -15.042  0.00  0.00    +0.254 C 
ENDROOT
BRANCH   3   8
ATOM      8  C   UNL     1      35.593 -22.207 -17.691  0.00  0.00    +0.073 C 
ATOM      9  C   UNL     1      34.361 -22.286 -18.343  0.00  0.00    +0.017 C 
ATOM     10  C   UNL     1      36.634 -21.472 -18.262  0.00  0.00    +0.017 C 
ATOM     11  C   UNL     1      34.170 -21.632 -19.561  0.00  0.00    +0.001 C 
ATOM     12  C   UNL     1      36.443 -20.818 -19.480  0.00  0.00    +0.001 C 
ATOM     13  C   UNL     1      35.211 -20.899 -20.129  0.00  0.00    +0.000 C 
ENDBRANCH   3   8
BRANCH   4  14
ATOM     14  C   UNL     1      33.449 -23.414 -15.694  0.00  0.00    +0.073 C 
ATOM     15  C   UNL     1      32.582 -23.538 -16.782  0.00  0.00    +0.017 C 
ATOM     16  C   UNL     1      32.957 -22.980 -14.461  0.00  0.00    +0.017 C 
ATOM     17  C   UNL     1      31.230 -23.229 -16.638  0.00  0.00    +0.001 C 
ATOM     18  C   UNL     1      31.604 -22.671 -14.317  0.00  0.00    +0.001 C 
ATOM     19  C   UNL     1      30.741 -22.795 -15.406  0.00  0.00    +0.000 C 
ENDBRANCH   4  14
BRANCH   5  20
ATOM     20  C   UNL     1      37.413 -24.029 -13.608  0.00  0.00    +0.018 C 
BRANCH  20  21
ATOM     21  C   UNL     1      38.441 -25.061 -13.144  0.00  0.00    +0.001 C 
BRANCH  21  22
ATOM     22  C   UNL     1      38.965 -25.890 -14.317  0.00  0.00    +0.000 C 
ATOM     23  C   UNL     1      40.408 -25.544 -14.644  0.00  0.00    +0.000 C 
ENDBRANCH  21  22
ENDBRANCH  20  21
ENDBRANCH   5  20
TORSDOF 5
ENDMDL
MODEL 9
REMARK VINA RESULT:      -8.1      2.955      4.261
REMARK  Name = 4781
REMARK  5 active torsions:
REMARK  status: ('A' for Active; 'I' for Inactive)
REMARK    1  A    between atoms: N_3  and  C_8
REMARK    2  A    between atoms: N_4  and  C_14
REMARK    3  A    between atoms: C_5  and  C_20
REMARK    4  A    between atoms: C_20  and  C_21
REMARK    5  A    between atoms: C_21  and  C_22
REMARK                            x       y       z     vdW  Elec       q    Type
REMARK                         _______ _______ _______ _____ _____    ______ ____
ROOT
ATOM      1  O   UNL     1      34.605 -11.238 -25.212  0.00  0.00    -0.272 OA
ATOM      2  O   UNL     1      31.561 -13.457 -22.371  0.00  0.00    -0.272 OA
ATOM      3  N   UNL     1      33.168 -10.527 -23.452  0.00  0.00    -0.179 N 
ATOM      4  N   UNL     1      32.338 -11.212 -22.531  0.00  0.00    -0.179 N 
ATOM      5  C   UNL     1      33.153 -12.777 -24.053  0.00  0.00    +0.157 C 
ATOM      6  C   UNL     1      33.790 -11.434 -24.322  0.00  0.00    +0.254 C 
ATOM      7  C   UNL     1      32.207 -12.561 -22.895  0.00  0.00    +0.254 C 
ENDROOT
BRANCH   3   8
ATOM      8  C   UNL     1      33.068  -9.132 -23.740  0.00  0.00    +0.073 C 
ATOM      9  C   UNL     1      31.818  -8.548 -23.952  0.00  0.00    +0.017 C 
ATOM     10  C   UNL     1      34.221  -8.347 -23.810  0.00  0.00    +0.017 C 
ATOM     11  C   UNL     1      31.720  -7.185 -24.233  0.00  0.00    +0.001 C 
ATOM     12  C   UNL     1      34.123  -6.983 -24.092  0.00  0.00    +0.001 C 
ATOM     13  C   UNL     1      32.872  -6.404 -24.303  0.00  0.00    +0.000 C 
ENDBRANCH   3   8
BRANCH   4  14
ATOM     14  C   UNL     1      32.046 -10.747 -21.212  0.00  0.00    +0.073 C 
ATOM     15  C   UNL     1      31.644 -11.648 -20.224  0.00  0.00    +0.017 C 
ATOM     16  C   UNL     1      32.161  -9.389 -20.907  0.00  0.00    +0.017 C 
ATOM     17  C   UNL     1      31.360 -11.194 -18.936  0.00  0.00    +0.001 C 
ATOM     18  C   UNL     1      31.877  -8.935 -19.619  0.00  0.00    +0.001 C 
ATOM     19  C   UNL     1      31.476  -9.837 -18.633  0.00  0.00    +0.000 C 
ENDBRANCH   4  14
BRANCH   5  20
ATOM     20  C   UNL     1      34.202 -13.824 -23.727  0.00  0.00    +0.018 C 
BRANCH  20  21
ATOM     21  C   UNL     1      33.846 -15.181 -24.334  0.00  0.00    +0.001 C 
BRANCH  21  22
ATOM     22  C   UNL     1      34.863 -16.251 -23.937  0.00  0.00    +0.000 C 
ATOM     23  C   UNL     1      34.758 -17.477 -24.830  0.00  0.00    +0.000 C 
ENDBRANCH  21  22
ENDBRANCH  20  21
ENDBRANCH   5  20
TORSDOF 5
ENDMDL
