MODEL 1
REMARK VINA RESULT:      -5.9      0.000      0.000
REMARK  Name = 446896
REMARK  8 active torsions:
REMARK  status: ('A' for Active; 'I' for Inactive)
REMARK    1  A    between atoms: P_1  and  O_3
REMARK    2  A    between atoms: P_1  and  O_5
REMARK    3  A    between atoms: P_1  and  C_8
REMARK    4  A    between atoms: O_5  and  C_6
REMARK    5  A    between atoms: C_8  and  C_9
REMARK    6  A    between atoms: C_9  and  C_10
REMARK    7  A    between atoms: C_10  and  C_11
REMARK    8  A    between atoms: C_11  and  C_12
REMARK                            x       y       z     vdW  Elec       q    Type
REMARK                         _______ _______ _______ _____ _____    ______ ____
ROOT
ATOM      1  P   UNL     1      33.906 -22.605 -18.735  0.00  0.00    +0.340 P 
ATOM      2  O   UNL     1      32.538 -22.457 -18.162  0.00  0.00    -0.258 OA
ENDROOT
BRANCH   1   3
ATOM      3  O   UNL     1      34.108 -23.887 -19.691  0.00  0.00    -0.323 OA
ATOM      4  H   UNL     1      33.743 -24.674 -19.257  0.00  0.00    +0.220 HD
ENDBRANCH   1   3
BRANCH   1   5
ATOM      5  O   UNL     1      35.097 -22.702 -17.656  0.00  0.00    -0.294 OA
BRANCH   5   6
ATOM      6  C   UNL     1      36.285 -21.941 -17.793  0.00  0.00    +0.151 C 
ATOM      7  C   UNL     1      37.036 -21.958 -16.480  0.00  0.00    +0.035 C 
ENDBRANCH   5   6
ENDBRANCH   1   5
BRANCH   1   8
ATOM      8  C   UNL     1      34.369 -21.227 -19.809  0.00  0.00    +0.116 C 
BRANCH   8   9
ATOM      9  C   UNL     1      33.186 -20.387 -20.269  0.00  0.00    +0.013 C 
BRANCH   9  10
ATOM     10  C   UNL     1      33.587 -19.348 -21.317  0.00  0.00    +0.001 C 
BRANCH  10  11
ATOM     11  C   UNL     1      35.054 -18.941 -21.163  0.00  0.00    +0.000 C 
BRANCH  11  12
ATOM     12  C   UNL     1      35.659 -18.523 -22.503  0.00  0.00    +0.000 C 
ATOM     13  C   UNL     1      34.865 -19.083 -23.672  0.00  0.00    +0.000 C 
ENDBRANCH  11  12
ENDBRANCH  10  11
ENDBRANCH   9  10
ENDBRANCH   8   9
ENDBRANCH   1   8
TORSDOF 8
ENDMDL
MODEL 2
REMARK VINA RESULT:      -5.7      4.762      6.683
REMARK  Name = 446896
REMARK  8 active torsions:
REMARK  status: ('A' for Active; 'I' for Inactive)
REMARK    1  A    between atoms: P_1  and  O_3
REMARK    2  A    between atoms: P_1  and  O_5
REMARK    3  A    between atoms: P_1  and  C_8
REMARK    4  A    between atoms: O_5  and  C_6
REMARK    5  A    between atoms: C_8  and  C_9
REMARK    6  A    between atoms: C_9  and  C_10
REMARK    7  A    between atoms: C_10  and  C_11
REMARK    8  A    between atoms: C_11  and  C_12
REMARK                            x       y       z     vdW  Elec       q    Type
REMARK                         _______ _______ _______ _____ _____    ______ ____
ROOT
ATOM      1  P   UNL     1      34.283 -15.951 -21.329  0.00  0.00    +0.340 P 
ATOM      2  O   UNL     1      32.817 -16.144 -21.141  0.00  0.00    -0.258 OA
ENDROOT
BRANCH   1   3
ATOM      3  O   UNL     1      34.995 -15.031 -20.213  0.00  0.00    -0.323 OA
ATOM      4  H   UNL     1      34.332 -14.459 -19.795  0.00  0.00    +0.220 HD
ENDBRANCH   1   3
BRANCH   1   5
ATOM      5  O   UNL     1      34.716 -15.304 -22.738  0.00  0.00    -0.294 OA
BRANCH   5   6
ATOM      6  C   UNL     1      33.873 -15.372 -23.875  0.00  0.00    +0.151 C 
ATOM      7  C   UNL     1      34.397 -16.438 -24.813  0.00  0.00    +0.035 C 
ENDBRANCH   5   6
ENDBRANCH   1   5
BRANCH   1   8
ATOM      8  C   UNL     1      35.213 -17.497 -21.226  0.00  0.00    +0.116 C 
BRANCH   8   9
ATOM      9  C   UNL     1      34.464 -18.699 -21.785  0.00  0.00    +0.013 C 
BRANCH   9  10
ATOM     10  C   UNL     1      34.589 -19.928 -20.884  0.00  0.00    +0.001 C 
BRANCH  10  11
ATOM     11  C   UNL     1      33.236 -20.319 -20.287  0.00  0.00    +0.000 C 
BRANCH  11  12
ATOM     12  C   UNL     1      33.366 -21.527 -19.358  0.00  0.00    +0.000 C 
ATOM     13  C   UNL     1      34.802 -22.020 -19.284  0.00  0.00    +0.000 C 
ENDBRANCH  11  12
ENDBRANCH  10  11
ENDBRANCH   9  10
ENDBRANCH   8   9
ENDBRANCH   1   8
TORSDOF 8
ENDMDL
MODEL 3
REMARK VINA RESULT:      -5.6      4.025      6.090
REMARK  Name = 446896
REMARK  8 active torsions:
REMARK  status: ('A' for Active; 'I' for Inactive)
REMARK    1  A    between atoms: P_1  and  O_3
REMARK    2  A    between atoms: P_1  and  O_5
REMARK    3  A    between atoms: P_1  and  C_8
REMARK    4  A    between atoms: O_5  and  C_6
REMARK    5  A    between atoms: C_8  and  C_9
REMARK    6  A    between atoms: C_9  and  C_10
REMARK    7  A    between atoms: C_10  and  C_11
REMARK    8  A    between atoms: C_11  and  C_12
REMARK                            x       y       z     vdW  Elec       q    Type
REMARK                         _______ _______ _______ _____ _____    ______ ____
ROOT
ATOM      1  P   UNL     1      35.330 -17.866 -21.820  0.00  0.00    +0.340 P 
ATOM      2  O   UNL     1      35.398 -17.085 -20.552  0.00  0.00    -0.258 OA
ENDROOT
BRANCH   1   3
ATOM      3  O   UNL     1      36.758 -18.219 -22.478  0.00  0.00    -0.323 OA
ATOM      4  H   UNL     1      37.219 -17.397 -22.710  0.00  0.00    +0.220 HD
ENDBRANCH   1   3
BRANCH   1   5
ATOM      5  O   UNL     1      34.486 -17.178 -23.006  0.00  0.00    -0.294 OA
BRANCH   5   6
ATOM      6  C   UNL     1      34.945 -17.193 -24.347  0.00  0.00    +0.151 C 
ATOM      7  C   UNL     1      34.314 -18.364 -25.070  0.00  0.00    +0.035 C 
ENDBRANCH   5   6
ENDBRANCH   1   5
BRANCH   1   8
ATOM      8  C   UNL     1      34.575 -19.493 -21.602  0.00  0.00    +0.116 C 
BRANCH   8   9
ATOM      9  C   UNL     1      33.221 -19.451 -20.908  0.00  0.00    +0.013 C 
BRANCH   9  10
ATOM     10  C   UNL     1      33.021 -20.632 -19.957  0.00  0.00    +0.001 C 
BRANCH  10  11
ATOM     11  C   UNL     1      34.352 -21.313 -19.630  0.00  0.00    +0.000 C 
BRANCH  11  12
ATOM     12  C   UNL     1      34.149 -22.782 -19.259  0.00  0.00    +0.000 C 
ATOM     13  C   UNL     1      33.392 -22.926 -17.949  0.00  0.00    +0.000 C 
ENDBRANCH  11  12
ENDBRANCH  10  11
ENDBRANCH   9  10
ENDBRANCH   8   9
ENDBRANCH   1   8
TORSDOF 8
ENDMDL
MODEL 4
REMARK VINA RESULT:      -5.6      3.171      4.654
REMARK  Name = 446896
REMARK  8 active torsions:
REMARK  status: ('A' for Active; 'I' for Inactive)
REMARK    1  A    between atoms: P_1  and  O_3
REMARK    2  A    between atoms: P_1  and  O_5
REMARK    3  A    between atoms: P_1  and  C_8
REMARK    4  A    between atoms: O_5  and  C_6
REMARK    5  A    between atoms: C_8  and  C_9
REMARK    6  A    between atoms: C_9  and  C_10
REMARK    7  A    between atoms: C_10  and  C_11
REMARK    8  A    between atoms: C_11  and  C_12
REMARK                            x       y       z     vdW  Elec       q    Type
REMARK                         _______ _______ _______ _____ _____    ______ ____
ROOT
ATOM      1  P   UNL     1      37.495 -23.455 -15.340  0.00  0.00    +0.340 P 
ATOM      2  O   UNL     1      36.468 -24.525 -15.487  0.00  0.00    -0.258 OA
ENDROOT
BRANCH   1   3
ATOM      3  O   UNL     1      39.000 -23.905 -15.702  0.00  0.00    -0.323 OA
ATOM      4  H   UNL     1      39.529 -23.121 -15.918  0.00  0.00    +0.220 HD
ENDBRANCH   1   3
BRANCH   1   5
ATOM      5  O   UNL     1      37.601 -22.800 -13.873  0.00  0.00    -0.294 OA
BRANCH   5   6
ATOM      6  C   UNL     1      37.085 -23.457 -12.729  0.00  0.00    +0.151 C 
ATOM      7  C   UNL     1      38.080 -24.500 -12.268  0.00  0.00    +0.035 C 
ENDBRANCH   5   6
ENDBRANCH   1   5
BRANCH   1   8
ATOM      8  C   UNL     1      37.217 -22.058 -16.450  0.00  0.00    +0.116 C 
BRANCH   8   9
ATOM      9  C   UNL     1      35.956 -22.189 -17.294  0.00  0.00    +0.013 C 
BRANCH   9  10
ATOM     10  C   UNL     1      36.122 -21.568 -18.682  0.00  0.00    +0.001 C 
BRANCH  10  11
ATOM     11  C   UNL     1      34.853 -21.738 -19.521  0.00  0.00    +0.000 C 
BRANCH  11  12
ATOM     12  C   UNL     1      34.551 -20.479 -20.333  0.00  0.00    +0.000 C 
ATOM     13  C   UNL     1      33.056 -20.221 -20.426  0.00  0.00    +0.000 C 
ENDBRANCH  11  12
ENDBRANCH  10  11
ENDBRANCH   9  10
ENDBRANCH   8   9
ENDBRANCH   1   8
TORSDOF 8
ENDMDL
MODEL 5
REMARK VINA RESULT:      -5.5      3.590      4.456
REMARK  Name = 446896
REMARK  8 active torsions:
REMARK  status: ('A' for Active; 'I' for Inactive)
REMARK    1  A    between atoms: P_1  and  O_3
REMARK    2  A    between atoms: P_1  and  O_5
REMARK    3  A    between atoms: P_1  and  C_8
REMARK    4  A    between atoms: O_5  and  C_6
REMARK    5  A    between atoms: C_8  and  C_9
REMARK    6  A    between atoms: C_9  and  C_10
REMARK    7  A    between atoms: C_10  and  C_11
REMARK    8  A    between atoms: C_11  and  C_12
REMARK                            x       y       z     vdW  Elec       q    Type
REMARK                         _______ _______ _______ _____ _____    ______ ____
ROOT
ATOM      1  P   UNL     1      35.257 -18.282 -21.198  0.00  0.00    +0.340 P 
ATOM      2  O   UNL     1      35.309 -16.926 -20.581  0.00  0.00    -0.258 OA
ENDROOT
BRANCH   1   3
ATOM      3  O   UNL     1      33.783 -18.927 -21.296  0.00  0.00    -0.323 OA
ATOM      4  H   UNL     1      33.686 -19.383 -22.147  0.00  0.00    +0.220 HD
ENDBRANCH   1   3
BRANCH   1   5
ATOM      5  O   UNL     1      36.152 -19.403 -20.468  0.00  0.00    -0.294 OA
BRANCH   5   6
ATOM      6  C   UNL     1      35.678 -20.726 -20.285  0.00  0.00    +0.151 C 
ATOM      7  C   UNL     1      36.428 -21.365 -19.136  0.00  0.00    +0.035 C 
ENDBRANCH   5   6
ENDBRANCH   1   5
BRANCH   1   8
ATOM      8  C   UNL     1      35.815 -18.293 -22.916  0.00  0.00    +0.116 C 
BRANCH   8   9
ATOM      9  C   UNL     1      34.930 -19.118 -23.840  0.00  0.00    +0.013 C 
BRANCH   9  10
ATOM     10  C   UNL     1      34.325 -18.277 -24.965  0.00  0.00    +0.001 C 
BRANCH  10  11
ATOM     11  C   UNL     1      34.923 -16.869 -24.989  0.00  0.00    +0.000 C 
BRANCH  11  12
ATOM     12  C   UNL     1      33.860 -15.809 -24.698  0.00  0.00    +0.000 C 
ATOM     13  C   UNL     1      34.241 -14.953 -23.501  0.00  0.00    +0.000 C 
ENDBRANCH  11  12
ENDBRANCH  10  11
ENDBRANCH   9  10
ENDBRANCH   8   9
ENDBRANCH   1   8
TORSDOF 8
ENDMDL
MODEL 6
REMARK VINA RESULT:      -5.5      5.770      7.811
REMARK  Name = 446896
REMARK  8 active torsions:
REMARK  status: ('A' for Active; 'I' for Inactive)
REMARK    1  A    between atoms: P_1  and  O_3
REMARK    2  A    between atoms: P_1  and  O_5
REMARK    3  A    between atoms: P_1  and  C_8
REMARK    4  A    between atoms: O_5  and  C_6
REMARK    5  A    between atoms: C_8  and  C_9
REMARK    6  A    between atoms: C_9  and  C_10
REMARK    7  A    between atoms: C_10  and  C_11
REMARK    8  A    between atoms: C_11  and  C_12
REMARK                            x       y       z     vdW  Elec       q    Type
REMARK                         _______ _______ _______ _____ _____    ______ ____
ROOT
ATOM      1  P   UNL     1      33.915 -15.249 -22.917  0.00  0.00    +0.340 P 
ATOM      2  O   UNL     1      32.846 -15.408 -21.890  0.00  0.00    -0.258 OA
ENDROOT
BRANCH   1   3
ATOM      3  O   UNL     1      34.770 -13.887 -22.803  0.00  0.00    -0.323 OA
ATOM      4  H   UNL     1      34.207 -13.182 -22.446  0.00  0.00    +0.220 HD
ENDBRANCH   1   3
BRANCH   1   5
ATOM      5  O   UNL     1      33.413 -15.297 -24.446  0.00  0.00    -0.294 OA
BRANCH   5   6
ATOM      6  C   UNL     1      33.039 -14.119 -25.139  0.00  0.00    +0.151 C 
ATOM      7  C   UNL     1      33.092 -14.385 -26.628  0.00  0.00    +0.035 C 
ENDBRANCH   5   6
ENDBRANCH   1   5
BRANCH   1   8
ATOM      8  C   UNL     1      35.186 -16.529 -22.809  0.00  0.00    +0.116 C 
BRANCH   8   9
ATOM      9  C   UNL     1      34.923 -17.729 -23.709  0.00  0.00    +0.013 C 
BRANCH   9  10
ATOM     10  C   UNL     1      34.879 -19.041 -22.925  0.00  0.00    +0.001 C 
BRANCH  10  11
ATOM     11  C   UNL     1      34.710 -18.788 -21.426  0.00  0.00    +0.000 C 
BRANCH  11  12
ATOM     12  C   UNL     1      34.379 -20.078 -20.677  0.00  0.00    +0.000 C 
ATOM     13  C   UNL     1      32.888 -20.196 -20.402  0.00  0.00    +0.000 C 
ENDBRANCH  11  12
ENDBRANCH  10  11
ENDBRANCH   9  10
ENDBRANCH   8   9
ENDBRANCH   1   8
TORSDOF 8
ENDMDL
MODEL 7
REMARK VINA RESULT:      -5.4      2.681      4.095
REMARK  Name = 446896
REMARK  8 active torsions:
REMARK  status: ('A' for Active; 'I' for Inactive)
REMARK    1  A    between atoms: P_1  and  O_3
REMARK    2  A    between atoms: P_1  and  O_5
REMARK    3  A    between atoms: P_1  and  C_8
REMARK    4  A    between atoms: O_5  and  C_6
REMARK    5  A    between atoms: C_8  and  C_9
REMARK    6  A    between atoms: C_9  and  C_10
REMARK    7  A    between atoms: C_10  and  C_11
REMARK    8  A    between atoms: C_11  and  C_12
REMARK                            x       y       z     vdW  Elec       q    Type
REMARK                         _______ _______ _______ _____ _____    ______ ____
ROOT
ATOM      1  P   UNL     1      36.192 -22.973 -15.713  0.00  0.00    +0.340 P 
ATOM      2  O   UNL     1      37.556 -22.396 -15.544  0.00  0.00    -0.258 OA
ENDROOT
BRANCH   1   3
ATOM      3  O   UNL     1      35.106 -22.478 -14.629  0.00  0.00    -0.323 OA
ATOM      4  H   UNL     1      34.234 -22.835 -14.860  0.00  0.00    +0.220 HD
ENDBRANCH   1   3
BRANCH   1   5
ATOM      5  O   UNL     1      36.116 -24.581 -15.671  0.00  0.00    -0.294 OA
BRANCH   5   6
ATOM      6  C   UNL     1      36.917 -25.338 -14.780  0.00  0.00    +0.151 C 
ATOM      7  C   UNL     1      36.929 -26.782 -15.233  0.00  0.00    +0.035 C 
ENDBRANCH   5   6
ENDBRANCH   1   5
BRANCH   1   8
ATOM      8  C   UNL     1      35.427 -22.516 -17.284  0.00  0.00    +0.116 C 
BRANCH   8   9
ATOM      9  C   UNL     1      36.348 -21.729 -18.206  0.00  0.00    +0.013 C 
BRANCH   9  10
ATOM     10  C   UNL     1      35.644 -21.292 -19.492  0.00  0.00    +0.001 C 
BRANCH  10  11
ATOM     11  C   UNL     1      34.163 -21.677 -19.472  0.00  0.00    +0.000 C 
BRANCH  11  12
ATOM     12  C   UNL     1      33.301 -20.604 -20.138  0.00  0.00    +0.000 C 
ATOM     13  C   UNL     1      34.152 -19.584 -20.875  0.00  0.00    +0.000 C 
ENDBRANCH  11  12
ENDBRANCH  10  11
ENDBRANCH   9  10
ENDBRANCH   8   9
ENDBRANCH   1   8
TORSDOF 8
ENDMDL
MODEL 8
REMARK VINA RESULT:      -5.3      5.759      7.500
REMARK  Name = 446896
REMARK  8 active torsions:
REMARK  status: ('A' for Active; 'I' for Inactive)
REMARK    1  A    between atoms: P_1  and  O_3
REMARK    2  A    between atoms: P_1  and  O_5
REMARK    3  A    between atoms: P_1  and  C_8
REMARK    4  A    between atoms: O_5  and  C_6
REMARK    5  A    between atoms: C_8  and  C_9
REMARK    6  A    between atoms: C_9  and  C_10
REMARK    7  A    between atoms: C_10  and  C_11
REMARK    8  A    between atoms: C_11  and  C_12
REMARK                            x       y       z     vdW  Elec       q    Type
REMARK                         _______ _______ _______ _____ _____    ______ ____
ROOT
ATOM      1  P   UNL     1      34.386 -15.319 -23.042  0.00  0.00    +0.340 P 
ATOM      2  O   UNL     1      34.527 -13.946 -22.480  0.00  0.00    -0.258 OA
ENDROOT
BRANCH   1   3
ATOM      3  O   UNL     1      35.738 -15.942 -23.661  0.00  0.00    -0.323 OA
ATOM      4  H   UNL     1      36.481 -15.346 -23.480  0.00  0.00    +0.220 HD
ENDBRANCH   1   3
BRANCH   1   5
ATOM      5  O   UNL     1      33.286 -15.475 -24.208  0.00  0.00    -0.294 OA
BRANCH   5   6
ATOM      6  C   UNL     1      33.659 -15.538 -25.574  0.00  0.00    +0.151 C 
ATOM      7  C   UNL     1      32.904 -14.474 -26.341  0.00  0.00    +0.035 C 
ENDBRANCH   5   6
ENDBRANCH   1   5
BRANCH   1   8
ATOM      8  C   UNL     1      33.914 -16.542 -21.798  0.00  0.00    +0.116 C 
BRANCH   8   9
ATOM      9  C   UNL     1      35.097 -17.139 -21.049  0.00  0.00    +0.013 C 
BRANCH   9  10
ATOM     10  C   UNL     1      35.112 -18.667 -21.115  0.00  0.00    +0.001 C 
BRANCH  10  11
ATOM     11  C   UNL     1      34.268 -19.181 -22.283  0.00  0.00    +0.000 C 
BRANCH  11  12
ATOM     12  C   UNL     1      35.120 -19.395 -23.533  0.00  0.00    +0.000 C 
ATOM     13  C   UNL     1      34.379 -18.976 -24.792  0.00  0.00    +0.000 C 
ENDBRANCH  11  12
ENDBRANCH  10  11
ENDBRANCH   9  10
ENDBRANCH   8   9
ENDBRANCH   1   8
TORSDOF 8
ENDMDL
MODEL 9
REMARK VINA RESULT:      -5.3      4.322      5.952
REMARK  Name = 446896
REMARK  8 active torsions:
REMARK  status: ('A' for Active; 'I' for Inactive)
REMARK    1  A    between atoms: P_1  and  O_3
REMARK    2  A    between atoms: P_1  and  O_5
REMARK    3  A    between atoms: P_1  and  C_8
REMARK    4  A    between atoms: O_5  and  C_6
REMARK    5  A    between atoms: C_8  and  C_9
REMARK    6  A    between atoms: C_9  and  C_10
REMARK    7  A    between atoms: C_10  and  C_11
REMARK    8  A    between atoms: C_11  and  C_12
REMARK                            x       y       z     vdW  Elec       q    Type
REMARK                         _______ _______ _______ _____ _____    ______ ____
ROOT
ATOM      1  P   UNL     1      36.875 -25.956 -15.005  0.00  0.00    +0.340 P 
ATOM      2  O   UNL     1      36.746 -27.163 -15.870  0.00  0.00    -0.258 OA
ENDROOT
BRANCH   1   3
ATOM      3  O   UNL     1      38.086 -24.967 -15.395  0.00  0.00    -0.323 OA
ATOM      4  H   UNL     1      37.728 -24.164 -15.806  0.00  0.00    +0.220 HD
ENDBRANCH   1   3
BRANCH   1   5
ATOM      5  O   UNL     1      37.073 -26.254 -13.435  0.00  0.00    -0.294 OA
BRANCH   5   6
ATOM      6  C   UNL     1      38.172 -25.725 -12.714  0.00  0.00    +0.151 C 
ATOM      7  C   UNL     1      37.725 -24.483 -11.974  0.00  0.00    +0.035 C 
ENDBRANCH   5   6
ENDBRANCH   1   5
BRANCH   1   8
ATOM      8  C   UNL     1      35.430 -24.874 -15.090  0.00  0.00    +0.116 C 
BRANCH   8   9
ATOM      9  C   UNL     1      35.777 -23.392 -15.095  0.00  0.00    +0.013 C 
BRANCH   9  10
ATOM     10  C   UNL     1      35.526 -22.744 -16.458  0.00  0.00    +0.001 C 
BRANCH  10  11
ATOM     11  C   UNL     1      36.768 -22.004 -16.958  0.00  0.00    +0.000 C 
BRANCH  11  12
ATOM     12  C   UNL     1      36.622 -21.599 -18.425  0.00  0.00    +0.000 C 
ATOM     13  C   UNL     1      35.224 -21.890 -18.946  0.00  0.00    +0.000 C 
ENDBRANCH  11  12
ENDBRANCH  10  11
ENDBRANCH   9  10
ENDBRANCH   8   9
ENDBRANCH   1   8
TORSDOF 8
ENDMDL
