MODEL 1
REMARK VINA RESULT:     -10.4      0.000      0.000
REMARK  Name = 9968957
REMARK  5 active torsions:
REMARK  status: ('A' for Active; 'I' for Inactive)
REMARK    1  A    between atoms: C_3  and  C_13
REMARK    2  A    between atoms: C_6  and  C_23
REMARK    3  A    between atoms: N_22  and  C_25
REMARK    4  A    between atoms: C_25  and  C_28
REMARK    5  A    between atoms: C_28  and  O_29
REMARK                            x       y       z     vdW  Elec       q    Type
REMARK                         _______ _______ _______ _____ _____    ______ ____
ROOT
ATOM      1  N   UNL     1      30.223 -23.604 -16.113  0.00  0.00    -0.284 N 
ATOM      2  C   UNL     1      32.431 -23.482 -15.813  0.00  0.00    +0.016 C 
ATOM      3  C   UNL     1      32.095 -22.871 -17.054  0.00  0.00    +0.029 C 
ATOM      4  C   UNL     1      31.239 -23.933 -15.243  0.00  0.00    +0.052 C 
ATOM      5  C   UNL     1      30.731 -22.962 -17.210  0.00  0.00    +0.067 C 
ATOM      6  C   UNL     1      33.582 -24.345 -13.896  0.00  0.00    +0.053 C 
ATOM      7  C   UNL     1      33.638 -23.695 -15.118  0.00  0.00    +0.006 C 
ATOM      8  C   UNL     1      31.194 -24.589 -14.008  0.00  0.00    +0.015 C 
ATOM      9  C   UNL     1      32.403 -24.789 -13.336  0.00  0.00    +0.006 C 
ATOM     10  C   UNL     1      28.819 -23.888 -15.911  0.00  0.00    +0.117 C 
ENDROOT
BRANCH   3  13
ATOM     11  N   UNL     1      32.617 -21.345 -18.993  0.00  0.00    -0.298 N 
ATOM     12  N   UNL     1      33.686 -20.093 -20.751  0.00  0.00    -0.229 NA
ATOM     13  C   UNL     1      32.999 -22.241 -18.028  0.00  0.00    +0.051 C 
ATOM     14  C   UNL     1      34.359 -22.437 -18.140  0.00  0.00    +0.017 C 
ATOM     15  C   UNL     1      34.821 -21.631 -19.214  0.00  0.00    +0.033 C 
ATOM     16  C   UNL     1      33.711 -20.963 -19.724  0.00  0.00    +0.132 C 
ATOM     17  C   UNL     1      36.061 -21.383 -19.825  0.00  0.00    +0.004 C 
ATOM     18  C   UNL     1      36.093 -20.489 -20.893  0.00  0.00    +0.021 C 
ATOM     19  C   UNL     1      34.907 -19.891 -21.300  0.00  0.00    +0.100 C 
ATOM     20  H   UNL     1      31.697 -21.024 -19.139  0.00  0.00    +0.154 HD
ENDBRANCH   3  13
BRANCH   6  23
ATOM     21  O   UNL     1      34.815 -24.732 -11.940  0.00  0.00    -0.270 OA
ATOM     22  N   UNL     1      35.994 -24.607 -13.932  0.00  0.00    -0.302 N 
ATOM     23  C   UNL     1      34.850 -24.572 -13.158  0.00  0.00    +0.246 C 
ATOM     24  H   UNL     1      35.915 -24.466 -14.904  0.00  0.00    +0.150 HD
BRANCH  22  25
ATOM     25  C   UNL     1      37.308 -24.845 -13.360  0.00  0.00    +0.084 C 
ATOM     26  C   UNL     1      38.354 -24.783 -14.480  0.00  0.00    +0.022 C 
ATOM     27  C   UNL     1      37.331 -26.240 -12.720  0.00  0.00    +0.022 C 
BRANCH  25  28
ATOM     28  C   UNL     1      37.614 -23.755 -12.319  0.00  0.00    +0.155 C 
BRANCH  28  29
ATOM     29  O   UNL     1      37.571 -24.271 -10.993  0.00  0.00    -0.380 OA
ATOM     30  H   UNL     1      37.198 -23.602 -10.397  0.00  0.00    +0.211 HD
ENDBRANCH  28  29
ENDBRANCH  25  28
ENDBRANCH  22  25
ENDBRANCH   6  23
TORSDOF 5
ENDMDL
MODEL 2
REMARK VINA RESULT:     -10.1      2.443      5.550
REMARK  Name = 9968957
REMARK  5 active torsions:
REMARK  status: ('A' for Active; 'I' for Inactive)
REMARK    1  A    between atoms: C_3  and  C_13
REMARK    2  A    between atoms: C_6  and  C_23
REMARK    3  A    between atoms: N_22  and  C_25
REMARK    4  A    between atoms: C_25  and  C_28
REMARK    5  A    between atoms: C_28  and  O_29
REMARK                            x       y       z     vdW  Elec       q    Type
REMARK                         _______ _______ _______ _____ _____    ______ ____
ROOT
ATOM      1  N   UNL     1      37.176 -23.782 -14.881  0.00  0.00    -0.284 N 
ATOM      2  C   UNL     1      35.134 -23.216 -15.579  0.00  0.00    +0.016 C 
ATOM      3  C   UNL     1      36.095 -22.717 -16.502  0.00  0.00    +0.029 C 
ATOM      4  C   UNL     1      35.838 -23.879 -14.572  0.00  0.00    +0.052 C 
ATOM      5  C   UNL     1      37.341 -23.082 -16.046  0.00  0.00    +0.067 C 
ATOM      6  C   UNL     1      33.110 -23.780 -14.426  0.00  0.00    +0.053 C 
ATOM      7  C   UNL     1      33.727 -23.164 -15.502  0.00  0.00    +0.006 C 
ATOM      8  C   UNL     1      35.203 -24.497 -13.489  0.00  0.00    +0.015 C 
ATOM      9  C   UNL     1      33.808 -24.435 -13.434  0.00  0.00    +0.006 C 
ATOM     10  C   UNL     1      38.262 -24.334 -14.101  0.00  0.00    +0.117 C 
ENDROOT
BRANCH   3  13
ATOM     11  N   UNL     1      36.743 -21.069 -18.298  0.00  0.00    -0.298 N 
ATOM     12  N   UNL     1      36.803 -19.632 -20.230  0.00  0.00    -0.229 NA
ATOM     13  C   UNL     1      35.857 -21.951 -17.734  0.00  0.00    +0.051 C 
ATOM     14  C   UNL     1      34.726 -21.982 -18.521  0.00  0.00    +0.017 C 
ATOM     15  C   UNL     1      34.931 -21.086 -19.603  0.00  0.00    +0.033 C 
ATOM     16  C   UNL     1      36.197 -20.534 -19.435  0.00  0.00    +0.132 C 
ATOM     17  C   UNL     1      34.187 -20.670 -20.720  0.00  0.00    +0.004 C 
ATOM     18  C   UNL     1      34.768 -19.737 -21.577  0.00  0.00    +0.021 C 
ATOM     19  C   UNL     1      36.043 -19.268 -21.289  0.00  0.00    +0.100 C 
ATOM     20  H   UNL     1      37.635 -20.854 -17.942  0.00  0.00    +0.154 HD
ENDBRANCH   3  13
BRANCH   6  23
ATOM     21  O   UNL     1      31.093 -23.680 -13.235  0.00  0.00    -0.270 OA
ATOM     22  N   UNL     1      30.959 -23.725 -15.549  0.00  0.00    -0.302 N 
ATOM     23  C   UNL     1      31.628 -23.732 -14.340  0.00  0.00    +0.246 C 
ATOM     24  H   UNL     1      31.482 -23.770 -16.382  0.00  0.00    +0.150 HD
BRANCH  22  25
ATOM     25  C   UNL     1      29.510 -23.654 -15.631  0.00  0.00    +0.084 C 
ATOM     26  C   UNL     1      29.041 -22.345 -14.983  0.00  0.00    +0.022 C 
ATOM     27  C   UNL     1      28.907 -24.843 -14.869  0.00  0.00    +0.022 C 
BRANCH  25  28
ATOM     28  C   UNL     1      29.083 -23.671 -17.109  0.00  0.00    +0.155 C 
BRANCH  28  29
ATOM     29  O   UNL     1      27.813 -24.289 -17.278  0.00  0.00    -0.380 OA
ATOM     30  H   UNL     1      27.900 -25.049 -17.877  0.00  0.00    +0.211 HD
ENDBRANCH  28  29
ENDBRANCH  25  28
ENDBRANCH  22  25
ENDBRANCH   6  23
TORSDOF 5
ENDMDL
MODEL 3
REMARK VINA RESULT:     -10.0      1.698      5.235
REMARK  Name = 9968957
REMARK  5 active torsions:
REMARK  status: ('A' for Active; 'I' for Inactive)
REMARK    1  A    between atoms: C_3  and  C_13
REMARK    2  A    between atoms: C_6  and  C_23
REMARK    3  A    between atoms: N_22  and  C_25
REMARK    4  A    between atoms: C_25  and  C_28
REMARK    5  A    between atoms: C_28  and  O_29
REMARK                            x       y       z     vdW  Elec       q    Type
REMARK                         _______ _______ _______ _____ _____    ______ ____
ROOT
ATOM      1  N   UNL     1      34.902 -21.572 -19.095  0.00  0.00    -0.284 N 
ATOM      2  C   UNL     1      34.842 -22.613 -17.122  0.00  0.00    +0.016 C 
ATOM      3  C   UNL     1      33.518 -22.516 -17.637  0.00  0.00    +0.029 C 
ATOM      4  C   UNL     1      35.690 -22.014 -18.055  0.00  0.00    +0.052 C 
ATOM      5  C   UNL     1      33.588 -21.871 -18.850  0.00  0.00    +0.067 C 
ATOM      6  C   UNL     1      36.772 -23.067 -15.777  0.00  0.00    +0.053 C 
ATOM      7  C   UNL     1      35.401 -23.155 -15.947  0.00  0.00    +0.006 C 
ATOM      8  C   UNL     1      37.074 -21.930 -17.872  0.00  0.00    +0.015 C 
ATOM      9  C   UNL     1      37.606 -22.475 -16.700  0.00  0.00    +0.006 C 
ATOM     10  C   UNL     1      35.377 -20.891 -20.279  0.00  0.00    +0.117 C 
ENDROOT
BRANCH   3  13
ATOM     11  N   UNL     1      31.029 -22.455 -17.236  0.00  0.00    -0.298 N 
ATOM     12  N   UNL     1      28.777 -22.877 -16.491  0.00  0.00    -0.229 NA
ATOM     13  C   UNL     1      32.270 -22.999 -17.028  0.00  0.00    +0.051 C 
ATOM     14  C   UNL     1      32.132 -24.061 -16.160  0.00  0.00    +0.017 C 
ATOM     15  C   UNL     1      30.756 -24.166 -15.826  0.00  0.00    +0.033 C 
ATOM     16  C   UNL     1      30.095 -23.151 -16.513  0.00  0.00    +0.132 C 
ATOM     17  C   UNL     1      29.978 -25.008 -15.015  0.00  0.00    +0.004 C 
ATOM     18  C   UNL     1      28.606 -24.770 -14.955  0.00  0.00    +0.021 C 
ATOM     19  C   UNL     1      28.078 -23.720 -15.695  0.00  0.00    +0.100 C 
ATOM     20  H   UNL     1      30.837 -21.683 -17.816  0.00  0.00    +0.154 HD
ENDBRANCH   3  13
BRANCH   6  23
ATOM     21  O   UNL     1      38.574 -23.869 -14.510  0.00  0.00    -0.270 OA
ATOM     22  N   UNL     1      36.490 -23.842 -13.495  0.00  0.00    -0.302 N 
ATOM     23  C   UNL     1      37.368 -23.637 -14.541  0.00  0.00    +0.246 C 
ATOM     24  H   UNL     1      35.539 -23.624 -13.622  0.00  0.00    +0.150 HD
BRANCH  22  25
ATOM     25  C   UNL     1      36.926 -24.369 -12.212  0.00  0.00    +0.084 C 
ATOM     26  C   UNL     1      38.081 -23.507 -11.688  0.00  0.00    +0.022 C 
ATOM     27  C   UNL     1      37.414 -25.812 -12.404  0.00  0.00    +0.022 C 
BRANCH  25  28
ATOM     28  C   UNL     1      35.756 -24.311 -11.215  0.00  0.00    +0.155 C 
BRANCH  28  29
ATOM     29  O   UNL     1      36.216 -24.138  -9.879  0.00  0.00    -0.380 OA
ATOM     30  H   UNL     1      35.547 -24.474  -9.261  0.00  0.00    +0.211 HD
ENDBRANCH  28  29
ENDBRANCH  25  28
ENDBRANCH  22  25
ENDBRANCH   6  23
TORSDOF 5
ENDMDL
MODEL 4
REMARK VINA RESULT:      -9.7      2.994      5.843
REMARK  Name = 9968957
REMARK  5 active torsions:
REMARK  status: ('A' for Active; 'I' for Inactive)
REMARK    1  A    between atoms: C_3  and  C_13
REMARK    2  A    between atoms: C_6  and  C_23
REMARK    3  A    between atoms: N_22  and  C_25
REMARK    4  A    between atoms: C_25  and  C_28
REMARK    5  A    between atoms: C_28  and  O_29
REMARK                            x       y       z     vdW  Elec       q    Type
REMARK                         _______ _______ _______ _____ _____    ______ ____
ROOT
ATOM      1  N   UNL     1      36.737 -22.968 -16.307  0.00  0.00    -0.284 N 
ATOM      2  C   UNL     1      34.767 -22.427 -17.205  0.00  0.00    +0.016 C 
ATOM      3  C   UNL     1      35.808 -21.853 -17.987  0.00  0.00    +0.029 C 
ATOM      4  C   UNL     1      35.376 -23.121 -16.158  0.00  0.00    +0.052 C 
ATOM      5  C   UNL     1      37.007 -22.203 -17.411  0.00  0.00    +0.067 C 
ATOM      6  C   UNL     1      32.648 -23.111 -16.320  0.00  0.00    +0.053 C 
ATOM      7  C   UNL     1      33.360 -22.421 -17.287  0.00  0.00    +0.006 C 
ATOM      8  C   UNL     1      34.646 -23.813 -15.185  0.00  0.00    +0.015 C 
ATOM      9  C   UNL     1      33.252 -23.795 -15.288  0.00  0.00    +0.006 C 
ATOM     10  C   UNL     1      37.746 -23.528 -15.436  0.00  0.00    +0.117 C 
ENDROOT
BRANCH   3  13
ATOM     11  N   UNL     1      36.661 -20.210 -19.701  0.00  0.00    -0.298 N 
ATOM     12  N   UNL     1      36.917 -18.723 -21.578  0.00  0.00    -0.229 NA
ATOM     13  C   UNL     1      35.683 -21.030 -19.200  0.00  0.00    +0.051 C 
ATOM     14  C   UNL     1      34.584 -20.940 -20.027  0.00  0.00    +0.017 C 
ATOM     15  C   UNL     1      34.906 -20.031 -21.070  0.00  0.00    +0.033 C 
ATOM     16  C   UNL     1      36.207 -19.594 -20.837  0.00  0.00    +0.132 C 
ATOM     17  C   UNL     1      34.244 -19.518 -22.197  0.00  0.00    +0.004 C 
ATOM     18  C   UNL     1      34.934 -18.612 -23.000  0.00  0.00    +0.021 C 
ATOM     19  C   UNL     1      36.231 -18.262 -22.650  0.00  0.00    +0.100 C 
ATOM     20  H   UNL     1      37.554 -20.083 -19.305  0.00  0.00    +0.154 HD
ENDBRANCH   3  13
BRANCH   6  23
ATOM     21  O   UNL     1      30.608 -22.367 -17.205  0.00  0.00    -0.270 OA
ATOM     22  N   UNL     1      30.520 -23.991 -15.553  0.00  0.00    -0.302 N 
ATOM     23  C   UNL     1      31.164 -23.110 -16.401  0.00  0.00    +0.246 C 
ATOM     24  H   UNL     1      31.059 -24.545 -14.944  0.00  0.00    +0.150 HD
BRANCH  22  25
ATOM     25  C   UNL     1      29.073 -24.126 -15.533  0.00  0.00    +0.084 C 
ATOM     26  C   UNL     1      28.694 -25.249 -14.559  0.00  0.00    +0.022 C 
ATOM     27  C   UNL     1      28.583 -24.486 -16.942  0.00  0.00    +0.022 C 
BRANCH  25  28
ATOM     28  C   UNL     1      28.446 -22.805 -15.052  0.00  0.00    +0.155 C 
BRANCH  28  29
ATOM     29  O   UNL     1      27.892 -22.065 -16.134  0.00  0.00    -0.380 OA
ATOM     30  H   UNL     1      28.444 -22.186 -16.924  0.00  0.00    +0.211 HD
ENDBRANCH  28  29
ENDBRANCH  25  28
ENDBRANCH  22  25
ENDBRANCH   6  23
TORSDOF 5
ENDMDL
MODEL 5
REMARK VINA RESULT:      -9.6      2.006      5.448
REMARK  Name = 9968957
REMARK  5 active torsions:
REMARK  status: ('A' for Active; 'I' for Inactive)
REMARK    1  A    between atoms: C_3  and  C_13
REMARK    2  A    between atoms: C_6  and  C_23
REMARK    3  A    between atoms: N_22  and  C_25
REMARK    4  A    between atoms: C_25  and  C_28
REMARK    5  A    between atoms: C_28  and  O_29
REMARK                            x       y       z     vdW  Elec       q    Type
REMARK                         _______ _______ _______ _____ _____    ______ ____
ROOT
ATOM      1  N   UNL     1      34.439 -21.313 -19.396  0.00  0.00    -0.284 N 
ATOM      2  C   UNL     1      34.645 -22.419 -17.469  0.00  0.00    +0.016 C 
ATOM      3  C   UNL     1      33.270 -22.377 -17.837  0.00  0.00    +0.029 C 
ATOM      4  C   UNL     1      35.356 -21.744 -18.464  0.00  0.00    +0.052 C 
ATOM      5  C   UNL     1      33.176 -21.691 -19.026  0.00  0.00    +0.067 C 
ATOM      6  C   UNL     1      36.729 -22.810 -16.354  0.00  0.00    +0.053 C 
ATOM      7  C   UNL     1      35.353 -22.968 -16.382  0.00  0.00    +0.006 C 
ATOM      8  C   UNL     1      36.746 -21.591 -18.425  0.00  0.00    +0.015 C 
ATOM      9  C   UNL     1      37.428 -22.144 -17.338  0.00  0.00    +0.006 C 
ATOM     10  C   UNL     1      34.748 -20.568 -20.597  0.00  0.00    +0.117 C 
ENDROOT
BRANCH   3  13
ATOM     11  N   UNL     1      30.831 -22.491 -17.205  0.00  0.00    -0.298 N 
ATOM     12  N   UNL     1      28.694 -23.071 -16.257  0.00  0.00    -0.229 NA
ATOM     13  C   UNL     1      32.121 -22.948 -17.119  0.00  0.00    +0.051 C 
ATOM     14  C   UNL     1      32.139 -24.018 -16.250  0.00  0.00    +0.017 C 
ATOM     15  C   UNL     1      30.810 -24.220 -15.790  0.00  0.00    +0.033 C 
ATOM     16  C   UNL     1      30.020 -23.252 -16.404  0.00  0.00    +0.132 C 
ATOM     17  C   UNL     1      30.173 -25.116 -14.917  0.00  0.00    +0.004 C 
ATOM     18  C   UNL     1      28.799 -24.974 -14.728  0.00  0.00    +0.021 C 
ATOM     19  C   UNL     1      28.133 -23.962 -15.406  0.00  0.00    +0.100 C 
ATOM     20  H   UNL     1      30.533 -21.733 -17.758  0.00  0.00    +0.154 HD
ENDBRANCH   3  13
BRANCH   6  23
ATOM     21  O   UNL     1      37.760 -22.669 -14.253  0.00  0.00    -0.270 OA
ATOM     22  N   UNL     1      37.798 -24.727 -15.320  0.00  0.00    -0.302 N 
ATOM     23  C   UNL     1      37.483 -23.387 -15.211  0.00  0.00    +0.246 C 
ATOM     24  H   UNL     1      37.531 -25.215 -16.133  0.00  0.00    +0.150 HD
BRANCH  22  25
ATOM     25  C   UNL     1      38.511 -25.441 -14.274  0.00  0.00    +0.084 C 
ATOM     26  C   UNL     1      38.016 -26.893 -14.240  0.00  0.00    +0.022 C 
ATOM     27  C   UNL     1      38.219 -24.772 -12.923  0.00  0.00    +0.022 C 
BRANCH  25  28
ATOM     28  C   UNL     1      40.018 -25.426 -14.583  0.00  0.00    +0.155 C 
BRANCH  28  29
ATOM     29  O   UNL     1      40.277 -25.783 -15.936  0.00  0.00    -0.380 OA
ATOM     30  H   UNL     1      39.623 -25.357 -16.514  0.00  0.00    +0.211 HD
ENDBRANCH  28  29
ENDBRANCH  25  28
ENDBRANCH  22  25
ENDBRANCH   6  23
TORSDOF 5
ENDMDL
MODEL 6
REMARK VINA RESULT:      -9.4      3.226      7.410
REMARK  Name = 9968957
REMARK  5 active torsions:
REMARK  status: ('A' for Active; 'I' for Inactive)
REMARK    1  A    between atoms: C_3  and  C_13
REMARK    2  A    between atoms: C_6  and  C_23
REMARK    3  A    between atoms: N_22  and  C_25
REMARK    4  A    between atoms: C_25  and  C_28
REMARK    5  A    between atoms: C_28  and  O_29
REMARK                            x       y       z     vdW  Elec       q    Type
REMARK                         _______ _______ _______ _____ _____    ______ ____
ROOT
ATOM      1  N   UNL     1      32.378 -23.730 -15.799  0.00  0.00    -0.284 N 
ATOM      2  C   UNL     1      34.244 -23.099 -16.847  0.00  0.00    +0.016 C 
ATOM      3  C   UNL     1      34.591 -23.886 -15.713  0.00  0.00    +0.029 C 
ATOM      4  C   UNL     1      32.850 -23.017 -16.878  0.00  0.00    +0.052 C 
ATOM      5  C   UNL     1      33.422 -24.260 -15.090  0.00  0.00    +0.067 C 
ATOM      6  C   UNL     1      34.289 -21.752 -18.828  0.00  0.00    +0.053 C 
ATOM      7  C   UNL     1      34.984 -22.446 -17.852  0.00  0.00    +0.006 C 
ATOM      8  C   UNL     1      32.158 -22.311 -17.869  0.00  0.00    +0.015 C 
ATOM      9  C   UNL     1      32.913 -21.673 -18.856  0.00  0.00    +0.006 C 
ATOM     10  C   UNL     1      30.984 -23.906 -15.453  0.00  0.00    +0.117 C 
ENDROOT
BRANCH   3  13
ATOM     11  N   UNL     1      37.110 -23.802 -15.776  0.00  0.00    -0.298 N 
ATOM     12  N   UNL     1      39.464 -24.120 -15.372  0.00  0.00    -0.229 NA
ATOM     13  C   UNL     1      35.933 -24.265 -15.248  0.00  0.00    +0.051 C 
ATOM     14  C   UNL     1      36.237 -25.134 -14.222  0.00  0.00    +0.017 C 
ATOM     15  C   UNL     1      37.652 -25.203 -14.123  0.00  0.00    +0.033 C 
ATOM     16  C   UNL     1      38.166 -24.361 -15.105  0.00  0.00    +0.132 C 
ATOM     17  C   UNL     1      38.572 -25.885 -13.310  0.00  0.00    +0.004 C 
ATOM     18  C   UNL     1      39.929 -25.671 -13.543  0.00  0.00    +0.021 C 
ATOM     19  C   UNL     1      40.304 -24.802 -14.559  0.00  0.00    +0.100 C 
ATOM     20  H   UNL     1      37.186 -23.164 -16.523  0.00  0.00    +0.154 HD
ENDBRANCH   3  13
BRANCH   6  23
ATOM     21  O   UNL     1      36.045 -21.619 -20.375  0.00  0.00    -0.270 OA
ATOM     22  N   UNL     1      34.582 -19.824 -20.272  0.00  0.00    -0.302 N 
ATOM     23  C   UNL     1      35.063 -21.062 -19.892  0.00  0.00    +0.246 C 
ATOM     24  H   UNL     1      33.785 -19.463 -19.820  0.00  0.00    +0.150 HD
BRANCH  22  25
ATOM     25  C   UNL     1      35.215 -19.037 -21.317  0.00  0.00    +0.084 C 
ATOM     26  C   UNL     1      34.933 -19.696 -22.673  0.00  0.00    +0.022 C 
ATOM     27  C   UNL     1      36.730 -19.003 -21.072  0.00  0.00    +0.022 C 
BRANCH  25  28
ATOM     28  C   UNL     1      34.624 -17.616 -21.312  0.00  0.00    +0.155 C 
BRANCH  28  29
ATOM     29  O   UNL     1      35.320 -16.764 -20.409  0.00  0.00    -0.380 OA
ATOM     30  H   UNL     1      36.266 -16.764 -20.629  0.00  0.00    +0.211 HD
ENDBRANCH  28  29
ENDBRANCH  25  28
ENDBRANCH  22  25
ENDBRANCH   6  23
TORSDOF 5
ENDMDL
MODEL 7
REMARK VINA RESULT:      -9.3      3.284      7.848
REMARK  Name = 9968957
REMARK  5 active torsions:
REMARK  status: ('A' for Active; 'I' for Inactive)
REMARK    1  A    between atoms: C_3  and  C_13
REMARK    2  A    between atoms: C_6  and  C_23
REMARK    3  A    between atoms: N_22  and  C_25
REMARK    4  A    between atoms: C_25  and  C_28
REMARK    5  A    between atoms: C_28  and  O_29
REMARK                            x       y       z     vdW  Elec       q    Type
REMARK                         _______ _______ _______ _____ _____    ______ ____
ROOT
ATOM      1  N   UNL     1      36.313 -23.366 -15.692  0.00  0.00    -0.284 N 
ATOM      2  C   UNL     1      34.814 -22.564 -17.136  0.00  0.00    +0.016 C 
ATOM      3  C   UNL     1      34.135 -23.290 -16.117  0.00  0.00    +0.029 C 
ATOM      4  C   UNL     1      36.178 -22.627 -16.846  0.00  0.00    +0.052 C 
ATOM      5  C   UNL     1      35.084 -23.771 -15.244  0.00  0.00    +0.067 C 
ATOM      6  C   UNL     1      35.367 -21.256 -19.066  0.00  0.00    +0.053 C 
ATOM      7  C   UNL     1      34.397 -21.857 -18.282  0.00  0.00    +0.006 C 
ATOM      8  C   UNL     1      37.150 -22.016 -17.646  0.00  0.00    +0.015 C 
ATOM      9  C   UNL     1      36.713 -21.320 -18.776  0.00  0.00    +0.006 C 
ATOM     10  C   UNL     1      37.563 -23.679 -15.034  0.00  0.00    +0.117 C 
ENDROOT
BRANCH   3  13
ATOM     11  N   UNL     1      31.720 -22.940 -16.754  0.00  0.00    -0.298 N 
ATOM     12  N   UNL     1      29.316 -22.994 -16.897  0.00  0.00    -0.229 NA
ATOM     13  C   UNL     1      32.689 -23.515 -15.973  0.00  0.00    +0.051 C 
ATOM     14  C   UNL     1      32.068 -24.325 -15.047  0.00  0.00    +0.017 C 
ATOM     15  C   UNL     1      30.668 -24.239 -15.273  0.00  0.00    +0.033 C 
ATOM     16  C   UNL     1      30.485 -23.368 -16.343  0.00  0.00    +0.132 C 
ATOM     17  C   UNL     1      29.519 -24.799 -14.692  0.00  0.00    +0.004 C 
ATOM     18  C   UNL     1      28.282 -24.446 -15.227  0.00  0.00    +0.021 C 
ATOM     19  C   UNL     1      28.244 -23.565 -16.299  0.00  0.00    +0.100 C 
ATOM     20  H   UNL     1      31.886 -22.316 -17.498  0.00  0.00    +0.154 HD
ENDBRANCH   3  13
BRANCH   6  23
ATOM     21  O   UNL     1      33.866 -20.797 -20.808  0.00  0.00    -0.270 OA
ATOM     22  N   UNL     1      35.788 -19.506 -20.694  0.00  0.00    -0.302 N 
ATOM     23  C   UNL     1      34.934 -20.508 -20.275  0.00  0.00    +0.246 C 
ATOM     24  H   UNL     1      36.624 -19.354 -20.197  0.00  0.00    +0.150 HD
BRANCH  22  25
ATOM     25  C   UNL     1      35.492 -18.670 -21.845  0.00  0.00    +0.084 C 
ATOM     26  C   UNL     1      34.726 -19.504 -22.880  0.00  0.00    +0.022 C 
ATOM     27  C   UNL     1      36.810 -18.180 -22.462  0.00  0.00    +0.022 C 
BRANCH  25  28
ATOM     28  C   UNL     1      34.617 -17.485 -21.401  0.00  0.00    +0.155 C 
BRANCH  28  29
ATOM     29  O   UNL     1      35.221 -16.759 -20.336  0.00  0.00    -0.380 OA
ATOM     30  H   UNL     1      34.570 -16.622 -19.628  0.00  0.00    +0.211 HD
ENDBRANCH  28  29
ENDBRANCH  25  28
ENDBRANCH  22  25
ENDBRANCH   6  23
TORSDOF 5
ENDMDL
MODEL 8
REMARK VINA RESULT:      -8.7      2.708      6.645
REMARK  Name = 9968957
REMARK  5 active torsions:
REMARK  status: ('A' for Active; 'I' for Inactive)
REMARK    1  A    between atoms: C_3  and  C_13
REMARK    2  A    between atoms: C_6  and  C_23
REMARK    3  A    between atoms: N_22  and  C_25
REMARK    4  A    between atoms: C_25  and  C_28
REMARK    5  A    between atoms: C_28  and  O_29
REMARK                            x       y       z     vdW  Elec       q    Type
REMARK                         _______ _______ _______ _____ _____    ______ ____
ROOT
ATOM      1  N   UNL     1      32.127 -24.226 -14.081  0.00  0.00    -0.284 N 
ATOM      2  C   UNL     1      33.630 -23.671 -15.634  0.00  0.00    +0.016 C 
ATOM      3  C   UNL     1      34.298 -24.293 -14.542  0.00  0.00    +0.029 C 
ATOM      4  C   UNL     1      32.270 -23.641 -15.320  0.00  0.00    +0.052 C 
ATOM      5  C   UNL     1      33.347 -24.623 -13.604  0.00  0.00    +0.067 C 
ATOM      6  C   UNL     1      33.094 -22.590 -17.705  0.00  0.00    +0.053 C 
ATOM      7  C   UNL     1      34.054 -23.128 -16.863  0.00  0.00    +0.006 C 
ATOM      8  C   UNL     1      31.309 -23.095 -16.178  0.00  0.00    +0.015 C 
ATOM      9  C   UNL     1      31.752 -22.563 -17.391  0.00  0.00    +0.006 C 
ATOM     10  C   UNL     1      30.877 -24.404 -13.375  0.00  0.00    +0.117 C 
ENDROOT
BRANCH   3  13
ATOM     11  N   UNL     1      36.708 -24.167 -15.273  0.00  0.00    -0.298 N 
ATOM     12  N   UNL     1      39.102 -24.364 -15.455  0.00  0.00    -0.229 NA
ATOM     13  C   UNL     1      35.736 -24.561 -14.391  0.00  0.00    +0.051 C 
ATOM     14  C   UNL     1      36.345 -25.242 -13.359  0.00  0.00    +0.017 C 
ATOM     15  C   UNL     1      37.740 -25.264 -13.625  0.00  0.00    +0.033 C 
ATOM     16  C   UNL     1      37.933 -24.585 -14.825  0.00  0.00    +0.132 C 
ATOM     17  C   UNL     1      38.878 -25.783 -12.986  0.00  0.00    +0.004 C 
ATOM     18  C   UNL     1      40.115 -25.582 -13.596  0.00  0.00    +0.021 C 
ATOM     19  C   UNL     1      40.163 -24.885 -14.796  0.00  0.00    +0.100 C 
ATOM     20  H   UNL     1      36.551 -23.660 -16.103  0.00  0.00    +0.154 HD
ENDBRANCH   3  13
BRANCH   6  23
ATOM     21  O   UNL     1      32.758 -22.024 -19.955  0.00  0.00    -0.270 OA
ATOM     22  N   UNL     1      34.810 -21.488 -19.020  0.00  0.00    -0.302 N 
ATOM     23  C   UNL     1      33.534 -22.016 -19.003  0.00  0.00    +0.246 C 
ATOM     24  H   UNL     1      35.355 -21.533 -18.201  0.00  0.00    +0.150 HD
BRANCH  22  25
ATOM     25  C   UNL     1      35.375 -20.869 -20.207  0.00  0.00    +0.084 C 
ATOM     26  C   UNL     1      34.350 -19.886 -20.788  0.00  0.00    +0.022 C 
ATOM     27  C   UNL     1      35.679 -21.959 -21.245  0.00  0.00    +0.022 C 
BRANCH  25  28
ATOM     28  C   UNL     1      36.652 -20.102 -19.823  0.00  0.00    +0.155 C 
BRANCH  28  29
ATOM     29  O   UNL     1      37.031 -20.360 -18.476  0.00  0.00    -0.380 OA
ATOM     30  H   UNL     1      37.039 -21.319 -18.320  0.00  0.00    +0.211 HD
ENDBRANCH  28  29
ENDBRANCH  25  28
ENDBRANCH  22  25
ENDBRANCH   6  23
TORSDOF 5
ENDMDL
MODEL 9
REMARK VINA RESULT:      -8.6      7.035     11.130
REMARK  Name = 9968957
REMARK  5 active torsions:
REMARK  status: ('A' for Active; 'I' for Inactive)
REMARK    1  A    between atoms: C_3  and  C_13
REMARK    2  A    between atoms: C_6  and  C_23
REMARK    3  A    between atoms: N_22  and  C_25
REMARK    4  A    between atoms: C_25  and  C_28
REMARK    5  A    between atoms: C_28  and  O_29
REMARK                            x       y       z     vdW  Elec       q    Type
REMARK                         _______ _______ _______ _____ _____    ______ ____
ROOT
ATOM      1  N   UNL     1      33.292 -14.626 -25.734  0.00  0.00    -0.284 N 
ATOM      2  C   UNL     1      33.598 -15.079 -23.571  0.00  0.00    +0.016 C 
ATOM      3  C   UNL     1      32.994 -13.796 -23.696  0.00  0.00    +0.029 C 
ATOM      4  C   UNL     1      33.774 -15.578 -24.863  0.00  0.00    +0.052 C 
ATOM      5  C   UNL     1      32.818 -13.546 -25.038  0.00  0.00    +0.067 C 
ATOM      6  C   UNL     1      34.579 -17.102 -22.742  0.00  0.00    +0.053 C 
ATOM      7  C   UNL     1      34.014 -15.866 -22.478  0.00  0.00    +0.006 C 
ATOM      8  C   UNL     1      34.347 -16.829 -25.118  0.00  0.00    +0.015 C 
ATOM      9  C   UNL     1      34.751 -17.591 -24.019  0.00  0.00    +0.006 C 
ATOM     10  C   UNL     1      33.280 -14.736 -27.176  0.00  0.00    +0.117 C 
ENDROOT
BRANCH   3  13
ATOM     11  N   UNL     1      32.562 -11.503 -22.741  0.00  0.00    -0.298 N 
ATOM     12  N   UNL     1      32.013  -9.634 -21.323  0.00  0.00    -0.229 NA
ATOM     13  C   UNL     1      32.606 -12.868 -22.624  0.00  0.00    +0.051 C 
ATOM     14  C   UNL     1      32.227 -13.200 -21.341  0.00  0.00    +0.017 C 
ATOM     15  C   UNL     1      31.942 -11.992 -20.652  0.00  0.00    +0.033 C 
ATOM     16  C   UNL     1      32.161 -10.953 -21.552  0.00  0.00    +0.132 C 
ATOM     17  C   UNL     1      31.521 -11.647 -19.357  0.00  0.00    +0.004 C 
ATOM     18  C   UNL     1      31.352 -10.295 -19.066  0.00  0.00    +0.021 C 
ATOM     19  C   UNL     1      31.606  -9.361 -20.062  0.00  0.00    +0.100 C 
ATOM     20  H   UNL     1      32.784 -10.994 -23.555  0.00  0.00    +0.154 HD
ENDBRANCH   3  13
BRANCH   6  23
ATOM     21  O   UNL     1      35.336 -17.390 -20.542  0.00  0.00    -0.270 OA
ATOM     22  N   UNL     1      35.011 -19.302 -21.812  0.00  0.00    -0.302 N 
ATOM     23  C   UNL     1      35.019 -17.938 -21.595  0.00  0.00    +0.246 C 
ATOM     24  H   UNL     1      34.740 -19.641 -22.696  0.00  0.00    +0.150 HD
BRANCH  22  25
ATOM     25  C   UNL     1      35.390 -20.251 -20.780  0.00  0.00    +0.084 C 
ATOM     26  C   UNL     1      35.827 -21.562 -21.448  0.00  0.00    +0.022 C 
ATOM     27  C   UNL     1      34.178 -20.520 -19.876  0.00  0.00    +0.022 C 
BRANCH  25  28
ATOM     28  C   UNL     1      36.565 -19.679 -19.969  0.00  0.00    +0.155 C 
BRANCH  28  29
ATOM     29  O   UNL     1      36.838 -20.467 -18.816  0.00  0.00    -0.380 OA
ATOM     30  H   UNL     1      37.187 -19.897 -18.110  0.00  0.00    +0.211 HD
ENDBRANCH  28  29
ENDBRANCH  25  28
ENDBRANCH  22  25
ENDBRANCH   6  23
TORSDOF 5
ENDMDL
