MODEL 1
REMARK VINA RESULT:      -6.1      0.000      0.000
REMARK  Name = 44277954
REMARK  6 active torsions:
REMARK  status: ('A' for Active; 'I' for Inactive)
REMARK    1  A    between atoms: C_1  and  N_2
REMARK    2  A    between atoms: C_1  and  C_7
REMARK    3  A    between atoms: C_1  and  C_10
REMARK    4  A    between atoms: C_7  and  O_8
REMARK    5  A    between atoms: C_10  and  O_11
REMARK    6  A    between atoms: O_11  and  S_12
REMARK                            x       y       z     vdW  Elec       q    Type
REMARK                         _______ _______ _______ _____ _____    ______ ____
ROOT
ATOM      1  C   UNK     1      37.075 -25.036 -13.801  0.00  0.00    +0.068 C 
ENDROOT
BRANCH   1   2
ATOM      2  N   UNK     1      37.499 -23.625 -14.036  0.00  0.00    +0.390 N 
ATOM      3  H   UNK     1      37.646 -23.161 -13.139  0.00  0.00    -0.088 HD
ATOM      4  H   UNK     1      36.773 -23.133 -14.558  0.00  0.00    -0.088 HD
ATOM      5  H   UNK     1      38.368 -23.614 -14.569  0.00  0.00    -0.088 HD
ENDBRANCH   1   2
BRANCH   1   7
ATOM      6  O   UNK     1      37.913 -24.692 -11.544  0.00  0.00    -0.253 OA
ATOM      7  C   UNK     1      37.333 -25.403 -12.355  0.00  0.00    +0.295 C 
BRANCH   7   8
ATOM      8  O   UNK     1      36.832 -26.625 -12.040  0.00  0.00    -0.482 OA
ATOM      9  H   UNK     1      37.219 -27.398 -12.403  0.00  0.00    +0.295 HD
ENDBRANCH   7   8
ENDBRANCH   1   7
BRANCH   1  10
ATOM     10  C   UNK     1      37.861 -25.928 -14.752  0.00  0.00    +0.166 C 
BRANCH  10  11
ATOM     11  O   UNK     1      38.977 -26.502 -14.080  0.00  0.00    -0.202 OA
BRANCH  11  12
ATOM     12  S   UNK     1      40.492 -25.989 -14.442  0.00  0.00    +0.239 S 
ATOM     13  O   UNK     1      40.563 -24.636 -13.892  0.00  0.00    -0.116 OA
ATOM     14  O   UNK     1      40.527 -26.042 -15.903  0.00  0.00    -0.022 OA
ATOM     15  O   UNK     1      41.373 -26.957 -13.789  0.00  0.00    -0.116 OA
ENDBRANCH  11  12
ENDBRANCH  10  11
ENDBRANCH   1  10
TORSDOF 6
ENDMDL
MODEL 2
REMARK VINA RESULT:      -6.0      1.957      2.381
REMARK  Name = 44277954
REMARK  6 active torsions:
REMARK  status: ('A' for Active; 'I' for Inactive)
REMARK    1  A    between atoms: C_1  and  N_2
REMARK    2  A    between atoms: C_1  and  C_7
REMARK    3  A    between atoms: C_1  and  C_10
REMARK    4  A    between atoms: C_7  and  O_8
REMARK    5  A    between atoms: C_10  and  O_11
REMARK    6  A    between atoms: O_11  and  S_12
REMARK                            x       y       z     vdW  Elec       q    Type
REMARK                         _______ _______ _______ _____ _____    ______ ____
ROOT
ATOM      1  C   UNK     1      36.793 -25.628 -14.079  0.00  0.00    +0.068 C 
ENDROOT
BRANCH   1   2
ATOM      2  N   UNK     1      36.373 -26.814 -14.881  0.00  0.00    +0.390 N 
ATOM      3  H   UNK     1      35.444 -26.649 -15.270  0.00  0.00    -0.088 HD
ATOM      4  H   UNK     1      36.348 -27.639 -14.282  0.00  0.00    -0.088 HD
ATOM      5  H   UNK     1      37.037 -26.965 -15.640  0.00  0.00    -0.088 HD
ENDBRANCH   1   2
BRANCH   1   7
ATOM      6  O   UNK     1      36.083 -24.148 -15.872  0.00  0.00    -0.253 OA
ATOM      7  C   UNK     1      36.879 -24.416 -14.982  0.00  0.00    +0.295 C 
BRANCH   7   8
ATOM      8  O   UNK     1      37.949 -23.634 -14.689  0.00  0.00    -0.482 OA
ATOM      9  H   UNK     1      38.057 -22.807 -15.115  0.00  0.00    +0.295 HD
ENDBRANCH   7   8
ENDBRANCH   1   7
BRANCH   1  10
ATOM     10  C   UNK     1      38.139 -25.945 -13.441  0.00  0.00    +0.166 C 
BRANCH  10  11
ATOM     11  O   UNK     1      38.989 -26.597 -14.380  0.00  0.00    -0.202 OA
BRANCH  11  12
ATOM     12  S   UNK     1      40.508 -26.031 -14.625  0.00  0.00    +0.239 S 
ATOM     13  O   UNK     1      40.501 -24.693 -14.035  0.00  0.00    -0.116 OA
ATOM     14  O   UNK     1      40.642 -26.041 -16.081  0.00  0.00    -0.022 OA
ATOM     15  O   UNK     1      41.372 -26.991 -13.940  0.00  0.00    -0.116 OA
ENDBRANCH  11  12
ENDBRANCH  10  11
ENDBRANCH   1  10
TORSDOF 6
ENDMDL
MODEL 3
REMARK VINA RESULT:      -6.0      2.100      4.247
REMARK  Name = 44277954
REMARK  6 active torsions:
REMARK  status: ('A' for Active; 'I' for Inactive)
REMARK    1  A    between atoms: C_1  and  N_2
REMARK    2  A    between atoms: C_1  and  C_7
REMARK    3  A    between atoms: C_1  and  C_10
REMARK    4  A    between atoms: C_7  and  O_8
REMARK    5  A    between atoms: C_10  and  O_11
REMARK    6  A    between atoms: O_11  and  S_12
REMARK                            x       y       z     vdW  Elec       q    Type
REMARK                         _______ _______ _______ _____ _____    ______ ____
ROOT
ATOM      1  C   UNK     1      39.213 -25.054 -14.132  0.00  0.00    +0.068 C 
ENDROOT
BRANCH   1   2
ATOM      2  N   UNK     1      38.472 -24.469 -15.289  0.00  0.00    +0.390 N 
ATOM      3  H   UNK     1      37.894 -23.693 -14.965  0.00  0.00    -0.088 HD
ATOM      4  H   UNK     1      37.877 -25.184 -15.708  0.00  0.00    -0.088 HD
ATOM      5  H   UNK     1      39.138 -24.131 -15.983  0.00  0.00    -0.088 HD
ENDBRANCH   1   2
BRANCH   1   7
ATOM      6  O   UNK     1      41.049 -26.636 -13.942  0.00  0.00    -0.253 OA
ATOM      7  C   UNK     1      40.315 -25.955 -14.646  0.00  0.00    +0.295 C 
BRANCH   7   8
ATOM      8  O   UNK     1      40.399 -25.938 -16.001  0.00  0.00    -0.482 OA
ATOM      9  H   UNK     1      41.167 -26.264 -16.428  0.00  0.00    +0.295 HD
ENDBRANCH   7   8
ENDBRANCH   1   7
BRANCH   1  10
ATOM     10  C   UNK     1      38.216 -25.822 -13.276  0.00  0.00    +0.166 C 
BRANCH  10  11
ATOM     11  O   UNK     1      38.146 -25.255 -11.971  0.00  0.00    -0.202 OA
BRANCH  11  12
ATOM     12  S   UNK     1      37.323 -23.856 -11.741  0.00  0.00    +0.239 S 
ATOM     13  O   UNK     1      38.362 -22.831 -11.640  0.00  0.00    -0.116 OA
ATOM     14  O   UNK     1      36.594 -24.093 -10.495  0.00  0.00    -0.022 OA
ATOM     15  O   UNK     1      36.465 -23.736 -12.919  0.00  0.00    -0.116 OA
ENDBRANCH  11  12
ENDBRANCH  10  11
ENDBRANCH   1  10
TORSDOF 6
ENDMDL
MODEL 4
REMARK VINA RESULT:      -6.0      1.957      2.712
REMARK  Name = 44277954
REMARK  6 active torsions:
REMARK  status: ('A' for Active; 'I' for Inactive)
REMARK    1  A    between atoms: C_1  and  N_2
REMARK    2  A    between atoms: C_1  and  C_7
REMARK    3  A    between atoms: C_1  and  C_10
REMARK    4  A    between atoms: C_7  and  O_8
REMARK    5  A    between atoms: C_10  and  O_11
REMARK    6  A    between atoms: O_11  and  S_12
REMARK                            x       y       z     vdW  Elec       q    Type
REMARK                         _______ _______ _______ _____ _____    ______ ____
ROOT
ATOM      1  C   UNK     1      36.788 -25.603 -14.095  0.00  0.00    +0.068 C 
ENDROOT
BRANCH   1   2
ATOM      2  N   UNK     1      36.361 -26.783 -14.903  0.00  0.00    +0.390 N 
ATOM      3  H   UNK     1      35.349 -26.892 -14.836  0.00  0.00    -0.088 HD
ATOM      4  H   UNK     1      36.817 -27.623 -14.547  0.00  0.00    -0.088 HD
ATOM      5  H   UNK     1      36.624 -26.641 -15.878  0.00  0.00    -0.088 HD
ENDBRANCH   1   2
BRANCH   1   7
ATOM      6  O   UNK     1      36.091 -24.104 -15.878  0.00  0.00    -0.253 OA
ATOM      7  C   UNK     1      36.888 -24.390 -14.995  0.00  0.00    +0.295 C 
BRANCH   7   8
ATOM      8  O   UNK     1      37.974 -23.627 -14.705  0.00  0.00    -0.482 OA
ATOM      9  H   UNK     1      38.519 -23.305 -15.396  0.00  0.00    +0.295 HD
ENDBRANCH   7   8
ENDBRANCH   1   7
BRANCH   1  10
ATOM     10  C   UNK     1      38.127 -25.934 -13.451  0.00  0.00    +0.166 C 
BRANCH  10  11
ATOM     11  O   UNK     1      38.972 -26.601 -14.384  0.00  0.00    -0.202 OA
BRANCH  11  12
ATOM     12  S   UNK     1      40.496 -26.049 -14.635  0.00  0.00    +0.239 S 
ATOM     13  O   UNK     1      41.355 -27.027 -13.968  0.00  0.00    -0.116 OA
ATOM     14  O   UNK     1      40.487 -24.731 -14.000  0.00  0.00    -0.022 OA
ATOM     15  O   UNK     1      40.637 -26.009 -16.090  0.00  0.00    -0.116 OA
ENDBRANCH  11  12
ENDBRANCH  10  11
ENDBRANCH   1  10
TORSDOF 6
ENDMDL
MODEL 5
REMARK VINA RESULT:      -6.0      2.368      3.734
REMARK  Name = 44277954
REMARK  6 active torsions:
REMARK  status: ('A' for Active; 'I' for Inactive)
REMARK    1  A    between atoms: C_1  and  N_2
REMARK    2  A    between atoms: C_1  and  C_7
REMARK    3  A    between atoms: C_1  and  C_10
REMARK    4  A    between atoms: C_7  and  O_8
REMARK    5  A    between atoms: C_10  and  O_11
REMARK    6  A    between atoms: O_11  and  S_12
REMARK                            x       y       z     vdW  Elec       q    Type
REMARK                         _______ _______ _______ _____ _____    ______ ____
ROOT
ATOM      1  C   UNK     1      36.729 -25.450 -14.959  0.00  0.00    +0.068 C 
ENDROOT
BRANCH   1   2
ATOM      2  N   UNK     1      35.317 -25.358 -14.485  0.00  0.00    +0.390 N 
ATOM      3  H   UNK     1      35.306 -25.229 -13.473  0.00  0.00    -0.088 HD
ATOM      4  H   UNK     1      34.821 -26.217 -14.723  0.00  0.00    -0.088 HD
ATOM      5  H   UNK     1      34.858 -24.565 -14.933  0.00  0.00    -0.088 HD
ENDBRANCH   1   2
BRANCH   1   7
ATOM      6  O   UNK     1      38.391 -27.200 -14.665  0.00  0.00    -0.253 OA
ATOM      7  C   UNK     1      37.429 -26.579 -14.233  0.00  0.00    +0.295 C 
BRANCH   7   8
ATOM      8  O   UNK     1      36.871 -26.831 -13.021  0.00  0.00    -0.482 OA
ATOM      9  H   UNK     1      36.244 -26.236 -12.660  0.00  0.00    +0.295 HD
ENDBRANCH   7   8
ENDBRANCH   1   7
BRANCH   1  10
ATOM     10  C   UNK     1      37.403 -24.111 -14.691  0.00  0.00    +0.166 C 
BRANCH  10  11
ATOM     11  O   UNK     1      38.144 -24.167 -13.477  0.00  0.00    -0.202 OA
BRANCH  11  12
ATOM     12  S   UNK     1      37.518 -23.500 -12.116  0.00  0.00    +0.239 S 
ATOM     13  O   UNK     1      38.372 -22.344 -11.846  0.00  0.00    -0.116 OA
ATOM     14  O   UNK     1      37.635 -24.573 -11.128  0.00  0.00    -0.022 OA
ATOM     15  O   UNK     1      36.139 -23.166 -12.472  0.00  0.00    -0.116 OA
ENDBRANCH  11  12
ENDBRANCH  10  11
ENDBRANCH   1  10
TORSDOF 6
ENDMDL
MODEL 6
REMARK VINA RESULT:      -5.9      2.638      4.750
REMARK  Name = 44277954
REMARK  6 active torsions:
REMARK  status: ('A' for Active; 'I' for Inactive)
REMARK    1  A    between atoms: C_1  and  N_2
REMARK    2  A    between atoms: C_1  and  C_7
REMARK    3  A    between atoms: C_1  and  C_10
REMARK    4  A    between atoms: C_7  and  O_8
REMARK    5  A    between atoms: C_10  and  O_11
REMARK    6  A    between atoms: O_11  and  S_12
REMARK                            x       y       z     vdW  Elec       q    Type
REMARK                         _______ _______ _______ _____ _____    ______ ____
ROOT
ATOM      1  C   UNK     1      37.167 -25.449 -13.951  0.00  0.00    +0.068 C 
ENDROOT
BRANCH   1   2
ATOM      2  N   UNK     1      35.700 -25.663 -14.125  0.00  0.00    +0.390 N 
ATOM      3  H   UNK     1      35.193 -25.125 -13.421  0.00  0.00    -0.088 HD
ATOM      4  H   UNK     1      35.485 -26.654 -14.013  0.00  0.00    -0.088 HD
ATOM      5  H   UNK     1      35.418 -25.356 -15.055  0.00  0.00    -0.088 HD
ENDBRANCH   1   2
BRANCH   1   7
ATOM      6  O   UNK     1      39.068 -26.797 -14.644  0.00  0.00    -0.253 OA
ATOM      7  C   UNK     1      37.923 -26.413 -14.841  0.00  0.00    +0.295 C 
BRANCH   7   8
ATOM      8  O   UNK     1      37.178 -26.824 -15.899  0.00  0.00    -0.482 OA
ATOM      9  H   UNK     1      37.364 -26.500 -16.758  0.00  0.00    +0.295 HD
ENDBRANCH   7   8
ENDBRANCH   1   7
BRANCH   1  10
ATOM     10  C   UNK     1      37.503 -25.664 -12.482  0.00  0.00    +0.166 C 
BRANCH  10  11
ATOM     11  O   UNK     1      36.317 -25.634 -11.695  0.00  0.00    -0.202 OA
BRANCH  11  12
ATOM     12  S   UNK     1      35.834 -24.224 -11.012  0.00  0.00    +0.239 S 
ATOM     13  O   UNK     1      37.041 -23.399 -10.978  0.00  0.00    -0.116 OA
ATOM     14  O   UNK     1      35.353 -24.633  -9.693  0.00  0.00    -0.022 OA
ATOM     15  O   UNK     1      34.784 -23.726 -11.901  0.00  0.00    -0.116 OA
ENDBRANCH  11  12
ENDBRANCH  10  11
ENDBRANCH   1  10
TORSDOF 6
ENDMDL
MODEL 7
REMARK VINA RESULT:      -5.8      3.298      4.622
REMARK  Name = 44277954
REMARK  6 active torsions:
REMARK  status: ('A' for Active; 'I' for Inactive)
REMARK    1  A    between atoms: C_1  and  N_2
REMARK    2  A    between atoms: C_1  and  C_7
REMARK    3  A    between atoms: C_1  and  C_10
REMARK    4  A    between atoms: C_7  and  O_8
REMARK    5  A    between atoms: C_10  and  O_11
REMARK    6  A    between atoms: O_11  and  S_12
REMARK                            x       y       z     vdW  Elec       q    Type
REMARK                         _______ _______ _______ _____ _____    ______ ____
ROOT
ATOM      1  C   UNK     1      37.436 -26.302 -13.740  0.00  0.00    +0.068 C 
ENDROOT
BRANCH   1   2
ATOM      2  N   UNK     1      38.780 -26.448 -14.373  0.00  0.00    +0.390 N 
ATOM      3  H   UNK     1      39.346 -25.627 -14.160  0.00  0.00    -0.088 HD
ATOM      4  H   UNK     1      38.672 -26.534 -15.384  0.00  0.00    -0.088 HD
ATOM      5  H   UNK     1      39.239 -27.282 -14.008  0.00  0.00    -0.088 HD
ENDBRANCH   1   2
BRANCH   1   7
ATOM      6  O   UNK     1      36.973 -24.651 -15.463  0.00  0.00    -0.253 OA
ATOM      7  C   UNK     1      36.560 -25.432 -14.617  0.00  0.00    +0.295 C 
BRANCH   7   8
ATOM      8  O   UNK     1      35.239 -25.622 -14.369  0.00  0.00    -0.482 OA
ATOM      9  H   UNK     1      34.968 -26.216 -13.697  0.00  0.00    +0.295 HD
ENDBRANCH   7   8
ENDBRANCH   1   7
BRANCH   1  10
ATOM     10  C   UNK     1      37.630 -25.687 -12.361  0.00  0.00    +0.166 C 
BRANCH  10  11
ATOM     11  O   UNK     1      36.395 -25.664 -11.652  0.00  0.00    -0.202 OA
BRANCH  11  12
ATOM     12  S   UNK     1      35.835 -24.247 -11.048  0.00  0.00    +0.239 S 
ATOM     13  O   UNK     1      35.351 -24.583  -9.710  0.00  0.00    -0.116 OA
ATOM     14  O   UNK     1      34.779 -23.872 -11.988  0.00  0.00    -0.022 OA
ATOM     15  O   UNK     1      36.994 -23.355 -11.069  0.00  0.00    -0.116 OA
ENDBRANCH  11  12
ENDBRANCH  10  11
ENDBRANCH   1  10
TORSDOF 6
ENDMDL
MODEL 8
REMARK VINA RESULT:      -5.8      2.740      3.993
REMARK  Name = 44277954
REMARK  6 active torsions:
REMARK  status: ('A' for Active; 'I' for Inactive)
REMARK    1  A    between atoms: C_1  and  N_2
REMARK    2  A    between atoms: C_1  and  C_7
REMARK    3  A    between atoms: C_1  and  C_10
REMARK    4  A    between atoms: C_7  and  O_8
REMARK    5  A    between atoms: C_10  and  O_11
REMARK    6  A    between atoms: O_11  and  S_12
REMARK                            x       y       z     vdW  Elec       q    Type
REMARK                         _______ _______ _______ _____ _____    ______ ____
ROOT
ATOM      1  C   UNK     1      38.350 -26.056 -14.594  0.00  0.00    +0.068 C 
ENDROOT
BRANCH   1   2
ATOM      2  N   UNK     1      38.808 -24.866 -15.369  0.00  0.00    +0.390 N 
ATOM      3  H   UNK     1      38.062 -24.562 -15.996  0.00  0.00    -0.088 HD
ATOM      4  H   UNK     1      39.632 -25.113 -15.917  0.00  0.00    -0.088 HD
ATOM      5  H   UNK     1      39.041 -24.110 -14.726  0.00  0.00    -0.088 HD
ENDBRANCH   1   2
BRANCH   1   7
ATOM      6  O   UNK     1      36.755 -27.203 -16.027  0.00  0.00    -0.253 OA
ATOM      7  C   UNK     1      36.974 -26.468 -15.074  0.00  0.00    +0.295 C 
BRANCH   7   8
ATOM      8  O   UNK     1      35.986 -25.933 -14.312  0.00  0.00    -0.482 OA
ATOM      9  H   UNK     1      36.195 -25.324 -13.631  0.00  0.00    +0.295 HD
ENDBRANCH   7   8
ENDBRANCH   1   7
BRANCH   1  10
ATOM     10  C   UNK     1      38.337 -25.681 -13.119  0.00  0.00    +0.166 C 
BRANCH  10  11
ATOM     11  O   UNK     1      38.473 -24.271 -12.967  0.00  0.00    -0.202 OA
BRANCH  11  12
ATOM     12  S   UNK     1      37.352 -23.438 -12.109  0.00  0.00    +0.239 S 
ATOM     13  O   UNK     1      36.200 -23.343 -13.004  0.00  0.00    -0.116 OA
ATOM     14  O   UNK     1      38.010 -22.159 -11.844  0.00  0.00    -0.022 OA
ATOM     15  O   UNK     1      37.127 -24.251 -10.914  0.00  0.00    -0.116 OA
ENDBRANCH  11  12
ENDBRANCH  10  11
ENDBRANCH   1  10
TORSDOF 6
ENDMDL
MODEL 9
REMARK VINA RESULT:      -5.7      2.152      3.976
REMARK  Name = 44277954
REMARK  6 active torsions:
REMARK  status: ('A' for Active; 'I' for Inactive)
REMARK    1  A    between atoms: C_1  and  N_2
REMARK    2  A    between atoms: C_1  and  C_7
REMARK    3  A    between atoms: C_1  and  C_10
REMARK    4  A    between atoms: C_7  and  O_8
REMARK    5  A    between atoms: C_10  and  O_11
REMARK    6  A    between atoms: O_11  and  S_12
REMARK                            x       y       z     vdW  Elec       q    Type
REMARK                         _______ _______ _______ _____ _____    ______ ____
ROOT
ATOM      1  C   UNK     1      38.155 -25.959 -14.936  0.00  0.00    +0.068 C 
ENDROOT
BRANCH   1   2
ATOM      2  N   UNK     1      37.553 -26.895 -13.943  0.00  0.00    +0.390 N 
ATOM      3  H   UNK     1      38.167 -27.702 -13.822  0.00  0.00    -0.088 HD
ATOM      4  H   UNK     1      36.643 -27.209 -14.279  0.00  0.00    -0.088 HD
ATOM      5  H   UNK     1      37.440 -26.418 -13.049  0.00  0.00    -0.088 HD
ENDBRANCH   1   2
BRANCH   1   7
ATOM      6  O   UNK     1      40.458 -25.857 -15.709  0.00  0.00    -0.253 OA
ATOM      7  C   UNK     1      39.662 -25.969 -14.787  0.00  0.00    +0.295 C 
BRANCH   7   8
ATOM      8  O   UNK     1      40.046 -26.109 -13.492  0.00  0.00    -0.482 OA
ATOM      9  H   UNK     1      39.988 -26.945 -13.073  0.00  0.00    +0.295 HD
ENDBRANCH   7   8
ENDBRANCH   1   7
BRANCH   1  10
ATOM     10  C   UNK     1      37.579 -24.572 -14.685  0.00  0.00    +0.166 C 
BRANCH  10  11
ATOM     11  O   UNK     1      38.313 -23.911 -13.660  0.00  0.00    -0.202 OA
BRANCH  11  12
ATOM     12  S   UNK     1      37.631 -23.695 -12.185  0.00  0.00    +0.239 S 
ATOM     13  O   UNK     1      38.342 -22.551 -11.615  0.00  0.00    -0.116 OA
ATOM     14  O   UNK     1      37.892 -24.962 -11.502  0.00  0.00    -0.022 OA
ATOM     15  O   UNK     1      36.217 -23.451 -12.468  0.00  0.00    -0.116 OA
ENDBRANCH  11  12
ENDBRANCH  10  11
ENDBRANCH   1  10
TORSDOF 6
ENDMDL
