MODEL 1
REMARK VINA RESULT:     -11.7      0.000      0.000
REMARK  Name = 132881
REMARK  11 active torsions:
REMARK  status: ('A' for Active; 'I' for Inactive)
REMARK    1  A    between atoms: C_1  and  O_22
REMARK    2  A    between atoms: C_4  and  C_7
REMARK    3  A    between atoms: C_10  and  C_15
REMARK    4  A    between atoms: N_14  and  C_15
REMARK    5  A    between atoms: N_14  and  C_19
REMARK    6  A    between atoms: C_19  and  O_20
REMARK    7  A    between atoms: O_22  and  C_23
REMARK    8  A    between atoms: C_23  and  C_27
REMARK    9  A    between atoms: C_26  and  C_31
REMARK   10  A    between atoms: C_31  and  C_33
REMARK   11  A    between atoms: C_33  and  O_34
REMARK                            x       y       z     vdW  Elec       q    Type
REMARK                         _______ _______ _______ _____ _____    ______ ____
ROOT
ATOM      1  C   UNL     1      34.490 -22.160 -18.954  0.00  0.00    +0.139 C 
ATOM      2  C   UNL     1      33.276 -21.598 -19.346  0.00  0.00    +0.037 C 
ATOM      3  C   UNL     1      35.690 -21.615 -19.409  0.00  0.00    +0.037 C 
ATOM      4  C   UNL     1      34.462 -19.945 -20.649  0.00  0.00    +0.000 C 
ATOM      5  C   UNL     1      33.261 -20.490 -20.194  0.00  0.00    +0.003 C 
ATOM      6  C   UNL     1      35.677 -20.508 -20.257  0.00  0.00    +0.003 C 
ENDROOT
BRANCH   4   7
ATOM      7  C   UNL     1      34.446 -18.796 -21.527  0.00  0.00    +0.000 C 
ATOM      8  C   UNL     1      34.731 -18.949 -22.885  0.00  0.00    +0.000 C 
ATOM      9  C   UNL     1      34.145 -17.533 -21.017  0.00  0.00    +0.000 C 
ATOM     10  C   UNL     1      34.412 -16.578 -23.220  0.00  0.00    +0.031 C 
ATOM     11  C   UNL     1      34.714 -17.840 -23.731  0.00  0.00    +0.003 C 
ATOM     12  C   UNL     1      34.128 -16.425 -21.863  0.00  0.00    +0.003 C 
BRANCH  10  14
ATOM     13  N   UNL     1      34.428 -14.138 -23.542  0.00  0.00    -0.385 N 
ATOM     14  C   UNL     1      34.394 -15.422 -24.101  0.00  0.00    +0.129 C 
ATOM     15  H   UNL     1      34.417 -13.346 -24.125  0.00  0.00    +0.157 HD
ATOM     16  H   UNL     1      34.465 -14.028 -22.563  0.00  0.00    +0.157 HD
BRANCH  14  17
ATOM     17  N   UNL     1      34.330 -15.639 -25.408  0.00  0.00    -0.126 NA
BRANCH  17  19
ATOM     18  O   UNL     1      32.517 -16.350 -26.674  0.00  0.00    -0.224 OA
ATOM     19  C   UNL     1      33.162 -15.472 -26.111  0.00  0.00    +0.427 C 
BRANCH  19  20
ATOM     20  O   UNL     1      32.792 -14.157 -26.060  0.00  0.00    -0.429 OA
ATOM     21  C   UNL     1      33.352 -13.311 -27.071  0.00  0.00    +0.257 C 
ENDBRANCH  19  20
ENDBRANCH  17  19
ENDBRANCH  14  17
ENDBRANCH  10  14
ENDBRANCH   4   7
BRANCH   1  22
ATOM     22  O   UNL     1      34.503 -23.251 -18.120  0.00  0.00    -0.474 OA
BRANCH  22  23
ATOM     23  C   UNL     1      33.802 -23.132 -16.895  0.00  0.00    +0.225 C 
BRANCH  23  27
ATOM     24  O   UNL     1      34.244 -24.560 -12.768  0.00  0.00    -0.275 OA
ATOM     25  N   UNL     1      34.211 -22.972 -14.487  0.00  0.00    -0.302 N 
ATOM     26  C   UNL     1      35.512 -24.886 -14.832  0.00  0.00    +0.089 C 
ATOM     27  C   UNL     1      34.799 -22.799 -15.793  0.00  0.00    +0.116 C 
ATOM     28  C   UNL     1      35.984 -23.757 -15.755  0.00  0.00    +0.033 C 
ATOM     29  C   UNL     1      34.598 -24.157 -13.865  0.00  0.00    +0.223 C 
ATOM     30  H   UNL     1      33.600 -22.318 -14.076  0.00  0.00    +0.149 HD
BRANCH  26  31
ATOM     31  C   UNL     1      36.651 -25.607 -14.136  0.00  0.00    +0.119 C 
BRANCH  31  33
ATOM     32  O   UNL     1      36.741 -27.230 -15.943  0.00  0.00    -0.250 OA
ATOM     33  C   UNL     1      37.297 -26.644 -15.024  0.00  0.00    +0.318 C 
BRANCH  33  34
ATOM     34  O   UNL     1      38.595 -26.814 -14.635  0.00  0.00    -0.444 OA
ATOM     35  C   UNL     1      39.145 -25.756 -13.842  0.00  0.00    +0.256 C 
ENDBRANCH  33  34
ENDBRANCH  31  33
ENDBRANCH  26  31
ENDBRANCH  23  27
ENDBRANCH  22  23
ENDBRANCH   1  22
TORSDOF 11
ENDMDL
MODEL 2
REMARK VINA RESULT:     -11.6      0.108      1.213
REMARK  Name = 132881
REMARK  11 active torsions:
REMARK  status: ('A' for Active; 'I' for Inactive)
REMARK    1  A    between atoms: C_1  and  O_22
REMARK    2  A    between atoms: C_4  and  C_7
REMARK    3  A    between atoms: C_10  and  C_15
REMARK    4  A    between atoms: N_14  and  C_15
REMARK    5  A    between atoms: N_14  and  C_19
REMARK    6  A    between atoms: C_19  and  O_20
REMARK    7  A    between atoms: O_22  and  C_23
REMARK    8  A    between atoms: C_23  and  C_27
REMARK    9  A    between atoms: C_26  and  C_31
REMARK   10  A    between atoms: C_31  and  C_33
REMARK   11  A    between atoms: C_33  and  O_34
REMARK                            x       y       z     vdW  Elec       q    Type
REMARK                         _______ _______ _______ _____ _____    ______ ____
ROOT
ATOM      1  C   UNL     1      34.451 -22.169 -18.966  0.00  0.00    +0.139 C 
ATOM      2  C   UNL     1      35.653 -21.620 -19.412  0.00  0.00    +0.037 C 
ATOM      3  C   UNL     1      33.238 -21.599 -19.351  0.00  0.00    +0.037 C 
ATOM      4  C   UNL     1      34.428 -19.932 -20.632  0.00  0.00    +0.000 C 
ATOM      5  C   UNL     1      35.642 -20.501 -20.245  0.00  0.00    +0.003 C 
ATOM      6  C   UNL     1      33.226 -20.481 -20.185  0.00  0.00    +0.003 C 
ENDROOT
BRANCH   4   7
ATOM      7  C   UNL     1      34.418 -18.773 -21.497  0.00  0.00    +0.000 C 
ATOM      8  C   UNL     1      34.136 -17.511 -20.972  0.00  0.00    +0.000 C 
ATOM      9  C   UNL     1      34.690 -18.916 -22.857  0.00  0.00    +0.000 C 
ATOM     10  C   UNL     1      34.401 -16.538 -23.167  0.00  0.00    +0.031 C 
ATOM     11  C   UNL     1      34.127 -16.394 -21.807  0.00  0.00    +0.003 C 
ATOM     12  C   UNL     1      34.682 -17.799 -23.692  0.00  0.00    +0.003 C 
BRANCH  10  14
ATOM     13  N   UNL     1      34.397 -14.094 -23.465  0.00  0.00    -0.385 N 
ATOM     14  C   UNL     1      34.392 -15.374 -24.038  0.00  0.00    +0.129 C 
ATOM     15  H   UNL     1      34.392 -13.297 -24.041  0.00  0.00    +0.157 HD
ATOM     16  H   UNL     1      34.407 -13.994 -22.485  0.00  0.00    +0.157 HD
BRANCH  14  17
ATOM     17  N   UNL     1      34.366 -15.578 -25.347  0.00  0.00    -0.126 NA
BRANCH  17  19
ATOM     18  O   UNL     1      32.562 -16.243 -26.652  0.00  0.00    -0.224 OA
ATOM     19  C   UNL     1      33.224 -15.381 -26.085  0.00  0.00    +0.427 C 
BRANCH  19  20
ATOM     20  O   UNL     1      32.902 -14.052 -26.064  0.00  0.00    -0.429 OA
ATOM     21  C   UNL     1      33.362 -13.280 -27.180  0.00  0.00    +0.257 C 
ENDBRANCH  19  20
ENDBRANCH  17  19
ENDBRANCH  14  17
ENDBRANCH  10  14
ENDBRANCH   4   7
BRANCH   1  22
ATOM     22  O   UNL     1      34.463 -23.269 -18.144  0.00  0.00    -0.474 OA
BRANCH  22  23
ATOM     23  C   UNL     1      33.735 -23.175 -16.933  0.00  0.00    +0.225 C 
BRANCH  23  27
ATOM     24  O   UNL     1      34.266 -24.636 -12.828  0.00  0.00    -0.275 OA
ATOM     25  N   UNL     1      34.113 -23.025 -14.519  0.00  0.00    -0.302 N 
ATOM     26  C   UNL     1      35.570 -24.818 -14.887  0.00  0.00    +0.089 C 
ATOM     27  C   UNL     1      34.693 -22.781 -15.817  0.00  0.00    +0.116 C 
ATOM     28  C   UNL     1      35.954 -23.637 -15.786  0.00  0.00    +0.033 C 
ATOM     29  C   UNL     1      34.592 -24.185 -13.915  0.00  0.00    +0.223 C 
ATOM     30  H   UNL     1      33.447 -22.432 -14.102  0.00  0.00    +0.149 HD
BRANCH  26  31
ATOM     31  C   UNL     1      36.761 -25.454 -14.194  0.00  0.00    +0.119 C 
BRANCH  31  33
ATOM     32  O   UNL     1      36.778 -27.169 -15.916  0.00  0.00    -0.250 OA
ATOM     33  C   UNL     1      37.341 -26.598 -14.992  0.00  0.00    +0.318 C 
BRANCH  33  34
ATOM     34  O   UNL     1      38.588 -26.885 -14.514  0.00  0.00    -0.444 OA
ATOM     35  C   UNL     1      39.363 -25.756 -14.098  0.00  0.00    +0.256 C 
ENDBRANCH  33  34
ENDBRANCH  31  33
ENDBRANCH  26  31
ENDBRANCH  23  27
ENDBRANCH  22  23
ENDBRANCH   1  22
TORSDOF 11
ENDMDL
MODEL 3
REMARK VINA RESULT:     -11.4      0.996      1.771
REMARK  Name = 132881
REMARK  11 active torsions:
REMARK  status: ('A' for Active; 'I' for Inactive)
REMARK    1  A    between atoms: C_1  and  O_22
REMARK    2  A    between atoms: C_4  and  C_7
REMARK    3  A    between atoms: C_10  and  C_15
REMARK    4  A    between atoms: N_14  and  C_15
REMARK    5  A    between atoms: N_14  and  C_19
REMARK    6  A    between atoms: C_19  and  O_20
REMARK    7  A    between atoms: O_22  and  C_23
REMARK    8  A    between atoms: C_23  and  C_27
REMARK    9  A    between atoms: C_26  and  C_31
REMARK   10  A    between atoms: C_31  and  C_33
REMARK   11  A    between atoms: C_33  and  O_34
REMARK                            x       y       z     vdW  Elec       q    Type
REMARK                         _______ _______ _______ _____ _____    ______ ____
ROOT
ATOM      1  C   UNL     1      34.574 -22.132 -18.920  0.00  0.00    +0.139 C 
ATOM      2  C   UNL     1      35.756 -21.552 -19.379  0.00  0.00    +0.037 C 
ATOM      3  C   UNL     1      33.342 -21.630 -19.338  0.00  0.00    +0.037 C 
ATOM      4  C   UNL     1      34.474 -19.968 -20.677  0.00  0.00    +0.000 C 
ATOM      5  C   UNL     1      35.707 -20.470 -20.257  0.00  0.00    +0.003 C 
ATOM      6  C   UNL     1      33.292 -20.548 -20.216  0.00  0.00    +0.003 C 
ENDROOT
BRANCH   4   7
ATOM      7  C   UNL     1      34.424 -18.847 -21.588  0.00  0.00    +0.000 C 
ATOM      8  C   UNL     1      34.132 -17.568 -21.110  0.00  0.00    +0.000 C 
ATOM      9  C   UNL     1      34.668 -19.042 -22.947  0.00  0.00    +0.000 C 
ATOM     10  C   UNL     1      34.331 -16.684 -23.349  0.00  0.00    +0.031 C 
ATOM     11  C   UNL     1      34.086 -16.487 -21.990  0.00  0.00    +0.003 C 
ATOM     12  C   UNL     1      34.622 -17.961 -23.827  0.00  0.00    +0.003 C 
BRANCH  10  14
ATOM     13  N   UNL     1      34.221 -15.804 -25.645  0.00  0.00    -0.385 N 
ATOM     14  C   UNL     1      34.283 -15.558 -24.267  0.00  0.00    +0.129 C 
ATOM     15  H   UNL     1      34.187 -15.052 -26.279  0.00  0.00    +0.157 HD
ATOM     16  H   UNL     1      34.210 -16.730 -25.979  0.00  0.00    +0.157 HD
BRANCH  14  17
ATOM     17  N   UNL     1      34.314 -14.336 -23.752  0.00  0.00    -0.126 NA
BRANCH  17  19
ATOM     18  O   UNL     1      32.371 -13.186 -23.204  0.00  0.00    -0.224 OA
ATOM     19  C   UNL     1      33.299 -13.437 -23.967  0.00  0.00    +0.427 C 
BRANCH  19  20
ATOM     20  O   UNL     1      33.495 -12.818 -25.170  0.00  0.00    -0.429 OA
ATOM     21  C   UNL     1      34.092 -11.517 -25.113  0.00  0.00    +0.257 C 
ENDBRANCH  19  20
ENDBRANCH  17  19
ENDBRANCH  14  17
ENDBRANCH  10  14
ENDBRANCH   4   7
BRANCH   1  22
ATOM     22  O   UNL     1      34.623 -23.197 -18.054  0.00  0.00    -0.474 OA
BRANCH  22  23
ATOM     23  C   UNL     1      33.908 -23.069 -16.837  0.00  0.00    +0.225 C 
BRANCH  23  27
ATOM     24  O   UNL     1      34.272 -24.587 -12.734  0.00  0.00    -0.275 OA
ATOM     25  N   UNL     1      34.293 -22.965 -14.422  0.00  0.00    -0.302 N 
ATOM     26  C   UNL     1      35.557 -24.899 -14.790  0.00  0.00    +0.089 C 
ATOM     27  C   UNL     1      34.899 -22.779 -15.718  0.00  0.00    +0.116 C 
ATOM     28  C   UNL     1      36.064 -23.763 -15.685  0.00  0.00    +0.033 C 
ATOM     29  C   UNL     1      34.647 -24.170 -13.819  0.00  0.00    +0.223 C 
ATOM     30  H   UNL     1      33.690 -22.307 -14.005  0.00  0.00    +0.149 HD
BRANCH  26  31
ATOM     31  C   UNL     1      36.673 -25.657 -14.095  0.00  0.00    +0.119 C 
BRANCH  31  33
ATOM     32  O   UNL     1      36.759 -27.224 -15.952  0.00  0.00    -0.250 OA
ATOM     33  C   UNL     1      37.308 -26.690 -14.997  0.00  0.00    +0.318 C 
BRANCH  33  34
ATOM     34  O   UNL     1      38.584 -26.925 -14.572  0.00  0.00    -0.444 OA
ATOM     35  C   UNL     1      39.344 -25.760 -14.232  0.00  0.00    +0.256 C 
ENDBRANCH  33  34
ENDBRANCH  31  33
ENDBRANCH  26  31
ENDBRANCH  23  27
ENDBRANCH  22  23
ENDBRANCH   1  22
TORSDOF 11
ENDMDL
MODEL 4
REMARK VINA RESULT:     -11.0      2.332      4.088
REMARK  Name = 132881
REMARK  11 active torsions:
REMARK  status: ('A' for Active; 'I' for Inactive)
REMARK    1  A    between atoms: C_1  and  O_22
REMARK    2  A    between atoms: C_4  and  C_7
REMARK    3  A    between atoms: C_10  and  C_15
REMARK    4  A    between atoms: N_14  and  C_15
REMARK    5  A    between atoms: N_14  and  C_19
REMARK    6  A    between atoms: C_19  and  O_20
REMARK    7  A    between atoms: O_22  and  C_23
REMARK    8  A    between atoms: C_23  and  C_27
REMARK    9  A    between atoms: C_26  and  C_31
REMARK   10  A    between atoms: C_31  and  C_33
REMARK   11  A    between atoms: C_33  and  O_34
REMARK                            x       y       z     vdW  Elec       q    Type
REMARK                         _______ _______ _______ _____ _____    ______ ____
ROOT
ATOM      1  C   UNL     1      34.555 -22.183 -18.814  0.00  0.00    +0.139 C 
ATOM      2  C   UNL     1      35.751 -21.624 -19.262  0.00  0.00    +0.037 C 
ATOM      3  C   UNL     1      33.335 -21.650 -19.231  0.00  0.00    +0.037 C 
ATOM      4  C   UNL     1      34.508 -19.999 -20.548  0.00  0.00    +0.000 C 
ATOM      5  C   UNL     1      35.728 -20.532 -20.129  0.00  0.00    +0.003 C 
ATOM      6  C   UNL     1      33.312 -20.559 -20.099  0.00  0.00    +0.003 C 
ENDROOT
BRANCH   4   7
ATOM      7  C   UNL     1      34.485 -18.867 -21.448  0.00  0.00    +0.000 C 
ATOM      8  C   UNL     1      34.311 -17.577 -20.945  0.00  0.00    +0.000 C 
ATOM      9  C   UNL     1      34.639 -19.065 -22.820  0.00  0.00    +0.000 C 
ATOM     10  C   UNL     1      34.445 -16.685 -23.187  0.00  0.00    +0.031 C 
ATOM     11  C   UNL     1      34.290 -16.486 -21.814  0.00  0.00    +0.003 C 
ATOM     12  C   UNL     1      34.619 -17.975 -23.689  0.00  0.00    +0.003 C 
BRANCH  10  14
ATOM     13  N   UNL     1      34.484 -14.253 -23.562  0.00  0.00    -0.385 N 
ATOM     14  C   UNL     1      34.424 -15.549 -24.093  0.00  0.00    +0.129 C 
ATOM     15  H   UNL     1      34.471 -13.474 -24.163  0.00  0.00    +0.157 HD
ATOM     16  H   UNL     1      34.540 -14.123 -22.587  0.00  0.00    +0.157 HD
BRANCH  14  17
ATOM     17  N   UNL     1      34.335 -15.793 -25.393  0.00  0.00    -0.126 NA
BRANCH  17  19
ATOM     18  O   UNL     1      32.473 -15.957 -26.773  0.00  0.00    -0.224 OA
ATOM     19  C   UNL     1      33.300 -15.300 -26.149  0.00  0.00    +0.427 C 
BRANCH  19  20
ATOM     20  O   UNL     1      33.303 -13.934 -26.077  0.00  0.00    -0.429 OA
ATOM     21  C   UNL     1      33.212 -13.242 -27.327  0.00  0.00    +0.257 C 
ENDBRANCH  19  20
ENDBRANCH  17  19
ENDBRANCH  14  17
ENDBRANCH  10  14
ENDBRANCH   4   7
BRANCH   1  22
ATOM     22  O   UNL     1      34.578 -23.258 -17.959  0.00  0.00    -0.474 OA
BRANCH  22  23
ATOM     23  C   UNL     1      34.344 -22.992 -16.587  0.00  0.00    +0.225 C 
BRANCH  23  27
ATOM     24  O   UNL     1      32.097 -23.260 -12.825  0.00  0.00    -0.275 OA
ATOM     25  N   UNL     1      33.369 -24.069 -14.617  0.00  0.00    -0.302 N 
ATOM     26  C   UNL     1      31.494 -22.772 -15.143  0.00  0.00    +0.089 C 
ATOM     27  C   UNL     1      33.343 -24.010 -16.057  0.00  0.00    +0.116 C 
ATOM     28  C   UNL     1      31.896 -23.628 -16.350  0.00  0.00    +0.033 C 
ATOM     29  C   UNL     1      32.312 -23.384 -14.021  0.00  0.00    +0.223 C 
ATOM     30  H   UNL     1      34.063 -24.545 -14.105  0.00  0.00    +0.149 HD
BRANCH  26  31
ATOM     31  C   UNL     1      30.003 -22.794 -14.864  0.00  0.00    +0.119 C 
BRANCH  31  33
ATOM     32  O   UNL     1      29.034 -22.252 -17.027  0.00  0.00    -0.250 OA
ATOM     33  C   UNL     1      29.192 -23.050 -16.113  0.00  0.00    +0.318 C 
BRANCH  33  34
ATOM     34  O   UNL     1      28.672 -24.312 -16.053  0.00  0.00    -0.444 OA
ATOM     35  C   UNL     1      28.879 -25.005 -14.817  0.00  0.00    +0.256 C 
ENDBRANCH  33  34
ENDBRANCH  31  33
ENDBRANCH  26  31
ENDBRANCH  23  27
ENDBRANCH  22  23
ENDBRANCH   1  22
TORSDOF 11
ENDMDL
MODEL 5
REMARK VINA RESULT:     -10.8      2.181     12.301
REMARK  Name = 132881
REMARK  11 active torsions:
REMARK  status: ('A' for Active; 'I' for Inactive)
REMARK    1  A    between atoms: C_1  and  O_22
REMARK    2  A    between atoms: C_4  and  C_7
REMARK    3  A    between atoms: C_10  and  C_15
REMARK    4  A    between atoms: N_14  and  C_15
REMARK    5  A    between atoms: N_14  and  C_19
REMARK    6  A    between atoms: C_19  and  O_20
REMARK    7  A    between atoms: O_22  and  C_23
REMARK    8  A    between atoms: C_23  and  C_27
REMARK    9  A    between atoms: C_26  and  C_31
REMARK   10  A    between atoms: C_31  and  C_33
REMARK   11  A    between atoms: C_33  and  O_34
REMARK                            x       y       z     vdW  Elec       q    Type
REMARK                         _______ _______ _______ _____ _____    ______ ____
ROOT
ATOM      1  C   UNL     1      35.016 -20.376 -20.835  0.00  0.00    +0.139 C 
ATOM      2  C   UNL     1      33.905 -20.949 -20.218  0.00  0.00    +0.037 C 
ATOM      3  C   UNL     1      36.279 -20.506 -20.258  0.00  0.00    +0.037 C 
ATOM      4  C   UNL     1      35.320 -21.784 -18.446  0.00  0.00    +0.000 C 
ATOM      5  C   UNL     1      34.056 -21.653 -19.023  0.00  0.00    +0.003 C 
ATOM      6  C   UNL     1      36.431 -21.210 -19.064  0.00  0.00    +0.003 C 
ENDROOT
BRANCH   4   7
ATOM      7  C   UNL     1      35.476 -22.516 -17.209  0.00  0.00    +0.000 C 
ATOM      8  C   UNL     1      34.402 -23.234 -16.681  0.00  0.00    +0.000 C 
ATOM      9  C   UNL     1      36.701 -22.504 -16.542  0.00  0.00    +0.000 C 
ATOM     10  C   UNL     1      35.780 -23.929 -14.822  0.00  0.00    +0.031 C 
ATOM     11  C   UNL     1      34.554 -23.941 -15.488  0.00  0.00    +0.003 C 
ATOM     12  C   UNL     1      36.853 -23.210 -15.349  0.00  0.00    +0.003 C 
BRANCH  10  14
ATOM     13  N   UNL     1      34.867 -24.720 -12.677  0.00  0.00    -0.385 N 
ATOM     14  C   UNL     1      35.939 -24.665 -13.578  0.00  0.00    +0.129 C 
ATOM     15  H   UNL     1      34.959 -25.214 -11.832  0.00  0.00    +0.157 HD
ATOM     16  H   UNL     1      34.021 -24.263 -12.891  0.00  0.00    +0.157 HD
BRANCH  14  17
ATOM     17  N   UNL     1      37.108 -25.245 -13.346  0.00  0.00    -0.126 NA
BRANCH  17  19
ATOM     18  O   UNL     1      37.702 -24.653 -11.179  0.00  0.00    -0.224 OA
ATOM     19  C   UNL     1      37.960 -24.786 -12.371  0.00  0.00    +0.427 C 
BRANCH  19  20
ATOM     20  O   UNL     1      39.181 -24.527 -12.929  0.00  0.00    -0.429 OA
ATOM     21  C   UNL     1      39.641 -25.479 -13.895  0.00  0.00    +0.257 C 
ENDBRANCH  19  20
ENDBRANCH  17  19
ENDBRANCH  14  17
ENDBRANCH  10  14
ENDBRANCH   4   7
BRANCH   1  22
ATOM     22  O   UNL     1      34.866 -19.681 -22.010  0.00  0.00    -0.474 OA
BRANCH  22  23
ATOM     23  C   UNL     1      34.335 -18.371 -21.918  0.00  0.00    +0.225 C 
BRANCH  23  27
ATOM     24  O   UNL     1      34.420 -16.424 -25.852  0.00  0.00    -0.275 OA
ATOM     25  N   UNL     1      35.318 -17.540 -24.000  0.00  0.00    -0.302 N 
ATOM     26  C   UNL     1      34.012 -15.647 -23.571  0.00  0.00    +0.089 C 
ATOM     27  C   UNL     1      35.314 -17.401 -22.565  0.00  0.00    +0.116 C 
ATOM     28  C   UNL     1      34.920 -15.941 -22.372  0.00  0.00    +0.033 C 
ATOM     29  C   UNL     1      34.593 -16.543 -24.649  0.00  0.00    +0.223 C 
ATOM     30  H   UNL     1      35.785 -18.265 -24.475  0.00  0.00    +0.149 HD
BRANCH  26  31
ATOM     31  C   UNL     1      33.998 -14.182 -23.967  0.00  0.00    +0.119 C 
BRANCH  31  33
ATOM     32  O   UNL     1      32.191 -13.860 -22.373  0.00  0.00    -0.250 OA
ATOM     33  C   UNL     1      32.974 -13.390 -23.187  0.00  0.00    +0.318 C 
BRANCH  33  34
ATOM     34  O   UNL     1      33.069 -12.074 -23.539  0.00  0.00    -0.444 OA
ATOM     35  C   UNL     1      33.932 -11.794 -24.647  0.00  0.00    +0.256 C 
ENDBRANCH  33  34
ENDBRANCH  31  33
ENDBRANCH  26  31
ENDBRANCH  23  27
ENDBRANCH  22  23
ENDBRANCH   1  22
TORSDOF 11
ENDMDL
MODEL 6
REMARK VINA RESULT:     -10.8      2.532      4.125
REMARK  Name = 132881
REMARK  11 active torsions:
REMARK  status: ('A' for Active; 'I' for Inactive)
REMARK    1  A    between atoms: C_1  and  O_22
REMARK    2  A    between atoms: C_4  and  C_7
REMARK    3  A    between atoms: C_10  and  C_15
REMARK    4  A    between atoms: N_14  and  C_15
REMARK    5  A    between atoms: N_14  and  C_19
REMARK    6  A    between atoms: C_19  and  O_20
REMARK    7  A    between atoms: O_22  and  C_23
REMARK    8  A    between atoms: C_23  and  C_27
REMARK    9  A    between atoms: C_26  and  C_31
REMARK   10  A    between atoms: C_31  and  C_33
REMARK   11  A    between atoms: C_33  and  O_34
REMARK                            x       y       z     vdW  Elec       q    Type
REMARK                         _______ _______ _______ _____ _____    ______ ____
ROOT
ATOM      1  C   UNL     1      34.784 -21.983 -18.953  0.00  0.00    +0.139 C 
ATOM      2  C   UNL     1      35.938 -21.356 -19.422  0.00  0.00    +0.037 C 
ATOM      3  C   UNL     1      33.530 -21.527 -19.358  0.00  0.00    +0.037 C 
ATOM      4  C   UNL     1      34.583 -19.817 -20.701  0.00  0.00    +0.000 C 
ATOM      5  C   UNL     1      35.838 -20.273 -20.295  0.00  0.00    +0.003 C 
ATOM      6  C   UNL     1      33.429 -20.445 -20.232  0.00  0.00    +0.003 C 
ENDROOT
BRANCH   4   7
ATOM      7  C   UNL     1      34.481 -18.696 -21.607  0.00  0.00    +0.000 C 
ATOM      8  C   UNL     1      34.684 -18.881 -22.975  0.00  0.00    +0.000 C 
ATOM      9  C   UNL     1      34.178 -17.427 -21.114  0.00  0.00    +0.000 C 
ATOM     10  C   UNL     1      34.280 -16.530 -23.355  0.00  0.00    +0.031 C 
ATOM     11  C   UNL     1      34.584 -17.799 -23.849  0.00  0.00    +0.003 C 
ATOM     12  C   UNL     1      34.078 -16.344 -21.988  0.00  0.00    +0.003 C 
BRANCH  10  14
ATOM     13  N   UNL     1      33.874 -15.638 -25.613  0.00  0.00    -0.385 N 
ATOM     14  C   UNL     1      34.175 -15.401 -24.265  0.00  0.00    +0.129 C 
ATOM     15  H   UNL     1      33.799 -14.885 -26.241  0.00  0.00    +0.157 HD
ATOM     16  H   UNL     1      33.736 -16.560 -25.931  0.00  0.00    +0.157 HD
BRANCH  14  17
ATOM     17  N   UNL     1      34.386 -14.188 -23.775  0.00  0.00    -0.126 NA
BRANCH  17  19
ATOM     18  O   UNL     1      32.242 -13.409 -23.329  0.00  0.00    -0.224 OA
ATOM     19  C   UNL     1      33.389 -13.244 -23.733  0.00  0.00    +0.427 C 
BRANCH  19  20
ATOM     20  O   UNL     1      33.882 -12.050 -24.184  0.00  0.00    -0.429 OA
ATOM     21  C   UNL     1      33.844 -11.854 -25.601  0.00  0.00    +0.257 C 
ENDBRANCH  19  20
ENDBRANCH  17  19
ENDBRANCH  14  17
ENDBRANCH  10  14
ENDBRANCH   4   7
BRANCH   1  22
ATOM     22  O   UNL     1      34.883 -23.048 -18.092  0.00  0.00    -0.474 OA
BRANCH  22  23
ATOM     23  C   UNL     1      34.549 -22.811 -16.736  0.00  0.00    +0.225 C 
BRANCH  23  27
ATOM     24  O   UNL     1      32.386 -23.449 -12.970  0.00  0.00    -0.275 OA
ATOM     25  N   UNL     1      33.643 -24.072 -14.844  0.00  0.00    -0.302 N 
ATOM     26  C   UNL     1      31.723 -22.790 -15.229  0.00  0.00    +0.089 C 
ATOM     27  C   UNL     1      33.586 -23.896 -16.274  0.00  0.00    +0.116 C 
ATOM     28  C   UNL     1      32.124 -23.532 -16.509  0.00  0.00    +0.033 C 
ATOM     29  C   UNL     1      32.580 -23.468 -14.176  0.00  0.00    +0.223 C 
ATOM     30  H   UNL     1      34.359 -24.568 -14.386  0.00  0.00    +0.149 HD
BRANCH  26  31
ATOM     31  C   UNL     1      30.239 -22.877 -14.926  0.00  0.00    +0.119 C 
BRANCH  31  33
ATOM     32  O   UNL     1      29.270 -22.269 -17.071  0.00  0.00    -0.250 OA
ATOM     33  C   UNL     1      29.414 -23.089 -16.174  0.00  0.00    +0.318 C 
BRANCH  33  34
ATOM     34  O   UNL     1      28.862 -24.337 -16.134  0.00  0.00    -0.444 OA
ATOM     35  C   UNL     1      28.955 -25.012 -14.874  0.00  0.00    +0.256 C 
ENDBRANCH  33  34
ENDBRANCH  31  33
ENDBRANCH  26  31
ENDBRANCH  23  27
ENDBRANCH  22  23
ENDBRANCH   1  22
TORSDOF 11
ENDMDL
MODEL 7
REMARK VINA RESULT:     -10.7      2.404     12.347
REMARK  Name = 132881
REMARK  11 active torsions:
REMARK  status: ('A' for Active; 'I' for Inactive)
REMARK    1  A    between atoms: C_1  and  O_22
REMARK    2  A    between atoms: C_4  and  C_7
REMARK    3  A    between atoms: C_10  and  C_15
REMARK    4  A    between atoms: N_14  and  C_15
REMARK    5  A    between atoms: N_14  and  C_19
REMARK    6  A    between atoms: C_19  and  O_20
REMARK    7  A    between atoms: O_22  and  C_23
REMARK    8  A    between atoms: C_23  and  C_27
REMARK    9  A    between atoms: C_26  and  C_31
REMARK   10  A    between atoms: C_31  and  C_33
REMARK   11  A    between atoms: C_33  and  O_34
REMARK                            x       y       z     vdW  Elec       q    Type
REMARK                         _______ _______ _______ _____ _____    ______ ____
ROOT
ATOM      1  C   UNL     1      35.155 -20.339 -20.804  0.00  0.00    +0.139 C 
ATOM      2  C   UNL     1      34.015 -20.891 -20.220  0.00  0.00    +0.037 C 
ATOM      3  C   UNL     1      36.403 -20.525 -20.210  0.00  0.00    +0.037 C 
ATOM      4  C   UNL     1      35.372 -21.817 -18.448  0.00  0.00    +0.000 C 
ATOM      5  C   UNL     1      34.123 -21.630 -19.042  0.00  0.00    +0.003 C 
ATOM      6  C   UNL     1      36.512 -21.264 -19.032  0.00  0.00    +0.003 C 
ENDROOT
BRANCH   4   7
ATOM      7  C   UNL     1      35.483 -22.584 -17.227  0.00  0.00    +0.000 C 
ATOM      8  C   UNL     1      36.689 -22.614 -16.527  0.00  0.00    +0.000 C 
ATOM      9  C   UNL     1      34.382 -23.294 -16.749  0.00  0.00    +0.000 C 
ATOM     10  C   UNL     1      35.693 -24.063 -14.870  0.00  0.00    +0.031 C 
ATOM     11  C   UNL     1      36.795 -23.353 -15.349  0.00  0.00    +0.003 C 
ATOM     12  C   UNL     1      34.487 -24.034 -15.571  0.00  0.00    +0.003 C 
BRANCH  10  14
ATOM     13  N   UNL     1      36.456 -26.073 -13.672  0.00  0.00    -0.385 N 
ATOM     14  C   UNL     1      35.802 -24.834 -13.643  0.00  0.00    +0.129 C 
ATOM     15  H   UNL     1      36.539 -26.606 -12.849  0.00  0.00    +0.157 HD
ATOM     16  H   UNL     1      36.835 -26.409 -14.517  0.00  0.00    +0.157 HD
BRANCH  14  17
ATOM     17  N   UNL     1      35.260 -24.329 -12.543  0.00  0.00    -0.126 NA
BRANCH  17  19
ATOM     18  O   UNL     1      35.243 -24.899 -10.291  0.00  0.00    -0.224 OA
ATOM     19  C   UNL     1      35.822 -24.526 -11.306  0.00  0.00    +0.427 C 
BRANCH  19  20
ATOM     20  O   UNL     1      37.164 -24.274 -11.379  0.00  0.00    -0.429 OA
ATOM     21  C   UNL     1      37.535 -22.899 -11.521  0.00  0.00    +0.257 C 
ENDBRANCH  19  20
ENDBRANCH  17  19
ENDBRANCH  14  17
ENDBRANCH  10  14
ENDBRANCH   4   7
BRANCH   1  22
ATOM     22  O   UNL     1      35.048 -19.610 -21.963  0.00  0.00    -0.474 OA
BRANCH  22  23
ATOM     23  C   UNL     1      34.450 -18.330 -21.864  0.00  0.00    +0.225 C 
BRANCH  23  27
ATOM     24  O   UNL     1      34.356 -16.299 -25.754  0.00  0.00    -0.275 OA
ATOM     25  N   UNL     1      35.345 -17.417 -23.951  0.00  0.00    -0.302 N 
ATOM     26  C   UNL     1      33.978 -15.586 -23.447  0.00  0.00    +0.089 C 
ATOM     27  C   UNL     1      35.374 -17.309 -22.513  0.00  0.00    +0.116 C 
ATOM     28  C   UNL     1      34.928 -15.870 -22.278  0.00  0.00    +0.033 C 
ATOM     29  C   UNL     1      34.565 -16.435 -24.559  0.00  0.00    +0.223 C 
ATOM     30  H   UNL     1      35.827 -18.113 -24.453  0.00  0.00    +0.149 HD
BRANCH  26  31
ATOM     31  C   UNL     1      33.897 -14.115 -23.809  0.00  0.00    +0.119 C 
BRANCH  31  33
ATOM     32  O   UNL     1      32.155 -13.889 -22.129  0.00  0.00    -0.250 OA
ATOM     33  C   UNL     1      32.870 -13.379 -22.981  0.00  0.00    +0.318 C 
BRANCH  33  34
ATOM     34  O   UNL     1      32.873 -12.061 -23.339  0.00  0.00    -0.444 OA
ATOM     35  C   UNL     1      32.037 -11.206 -22.552  0.00  0.00    +0.256 C 
ENDBRANCH  33  34
ENDBRANCH  31  33
ENDBRANCH  26  31
ENDBRANCH  23  27
ENDBRANCH  22  23
ENDBRANCH   1  22
TORSDOF 11
ENDMDL
MODEL 8
REMARK VINA RESULT:     -10.6      1.549      2.545
REMARK  Name = 132881
REMARK  11 active torsions:
REMARK  status: ('A' for Active; 'I' for Inactive)
REMARK    1  A    between atoms: C_1  and  O_22
REMARK    2  A    between atoms: C_4  and  C_7
REMARK    3  A    between atoms: C_10  and  C_15
REMARK    4  A    between atoms: N_14  and  C_15
REMARK    5  A    between atoms: N_14  and  C_19
REMARK    6  A    between atoms: C_19  and  O_20
REMARK    7  A    between atoms: O_22  and  C_23
REMARK    8  A    between atoms: C_23  and  C_27
REMARK    9  A    between atoms: C_26  and  C_31
REMARK   10  A    between atoms: C_31  and  C_33
REMARK   11  A    between atoms: C_33  and  O_34
REMARK                            x       y       z     vdW  Elec       q    Type
REMARK                         _______ _______ _______ _____ _____    ______ ____
ROOT
ATOM      1  C   UNL     1      34.769 -22.109 -18.673  0.00  0.00    +0.139 C 
ATOM      2  C   UNL     1      35.940 -21.499 -19.122  0.00  0.00    +0.037 C 
ATOM      3  C   UNL     1      33.531 -21.680 -19.151  0.00  0.00    +0.037 C 
ATOM      4  C   UNL     1      34.635 -20.031 -20.529  0.00  0.00    +0.000 C 
ATOM      5  C   UNL     1      35.873 -20.460 -20.050  0.00  0.00    +0.003 C 
ATOM      6  C   UNL     1      33.464 -20.642 -20.080  0.00  0.00    +0.003 C 
ENDROOT
BRANCH   4   7
ATOM      7  C   UNL     1      34.568 -18.955 -21.493  0.00  0.00    +0.000 C 
ATOM      8  C   UNL     1      34.311 -17.651 -21.067  0.00  0.00    +0.000 C 
ATOM      9  C   UNL     1      34.760 -19.220 -22.848  0.00  0.00    +0.000 C 
ATOM     10  C   UNL     1      34.441 -16.879 -23.353  0.00  0.00    +0.031 C 
ATOM     11  C   UNL     1      34.247 -16.613 -21.997  0.00  0.00    +0.003 C 
ATOM     12  C   UNL     1      34.696 -18.183 -23.778  0.00  0.00    +0.003 C 
BRANCH  10  14
ATOM     13  N   UNL     1      34.496 -14.475 -23.877  0.00  0.00    -0.385 N 
ATOM     14  C   UNL     1      34.374 -15.798 -24.323  0.00  0.00    +0.129 C 
ATOM     15  H   UNL     1      34.454 -13.733 -24.522  0.00  0.00    +0.157 HD
ATOM     16  H   UNL     1      34.624 -14.289 -22.919  0.00  0.00    +0.157 HD
BRANCH  14  17
ATOM     17  N   UNL     1      34.186 -16.117 -25.595  0.00  0.00    -0.126 NA
BRANCH  17  19
ATOM     18  O   UNL     1      32.273 -16.578 -26.830  0.00  0.00    -0.224 OA
ATOM     19  C   UNL     1      33.025 -15.798 -26.255  0.00  0.00    +0.427 C 
BRANCH  19  20
ATOM     20  O   UNL     1      32.801 -14.453 -26.144  0.00  0.00    -0.429 OA
ATOM     21  C   UNL     1      33.439 -13.631 -27.127  0.00  0.00    +0.257 C 
ENDBRANCH  19  20
ENDBRANCH  17  19
ENDBRANCH  14  17
ENDBRANCH  10  14
ENDBRANCH   4   7
BRANCH   1  22
ATOM     22  O   UNL     1      34.835 -23.131 -17.758  0.00  0.00    -0.474 OA
BRANCH  22  23
ATOM     23  C   UNL     1      35.607 -22.900 -16.592  0.00  0.00    +0.225 C 
BRANCH  23  27
ATOM     24  O   UNL     1      37.096 -26.660 -14.885  0.00  0.00    -0.275 OA
ATOM     25  N   UNL     1      35.478 -25.173 -15.691  0.00  0.00    -0.302 N 
ATOM     26  C   UNL     1      36.970 -24.354 -14.085  0.00  0.00    +0.089 C 
ATOM     27  C   UNL     1      35.089 -23.801 -15.479  0.00  0.00    +0.116 C 
ATOM     28  C   UNL     1      35.708 -23.484 -14.122  0.00  0.00    +0.033 C 
ATOM     29  C   UNL     1      36.556 -25.565 -14.900  0.00  0.00    +0.223 C 
ATOM     30  H   UNL     1      35.029 -25.772 -16.330  0.00  0.00    +0.149 HD
BRANCH  26  31
ATOM     31  C   UNL     1      37.409 -24.713 -12.678  0.00  0.00    +0.119 C 
BRANCH  31  33
ATOM     32  O   UNL     1      38.159 -22.467 -12.128  0.00  0.00    -0.250 OA
ATOM     33  C   UNL     1      37.575 -23.492 -11.803  0.00  0.00    +0.318 C 
BRANCH  33  34
ATOM     34  O   UNL     1      36.969 -23.721 -10.601  0.00  0.00    -0.444 OA
ATOM     35  C   UNL     1      35.654 -24.283 -10.671  0.00  0.00    +0.256 C 
ENDBRANCH  33  34
ENDBRANCH  31  33
ENDBRANCH  26  31
ENDBRANCH  23  27
ENDBRANCH  22  23
ENDBRANCH   1  22
TORSDOF 11
ENDMDL
MODEL 9
REMARK VINA RESULT:     -10.5      1.818      3.049
REMARK  Name = 132881
REMARK  11 active torsions:
REMARK  status: ('A' for Active; 'I' for Inactive)
REMARK    1  A    between atoms: C_1  and  O_22
REMARK    2  A    between atoms: C_4  and  C_7
REMARK    3  A    between atoms: C_10  and  C_15
REMARK    4  A    between atoms: N_14  and  C_15
REMARK    5  A    between atoms: N_14  and  C_19
REMARK    6  A    between atoms: C_19  and  O_20
REMARK    7  A    between atoms: O_22  and  C_23
REMARK    8  A    between atoms: C_23  and  C_27
REMARK    9  A    between atoms: C_26  and  C_31
REMARK   10  A    between atoms: C_31  and  C_33
REMARK   11  A    between atoms: C_33  and  O_34
REMARK                            x       y       z     vdW  Elec       q    Type
REMARK                         _______ _______ _______ _____ _____    ______ ____
ROOT
ATOM      1  C   UNL     1      34.979 -22.858 -17.484  0.00  0.00    +0.139 C 
ATOM      2  C   UNL     1      36.146 -22.149 -17.766  0.00  0.00    +0.037 C 
ATOM      3  C   UNL     1      33.828 -22.637 -18.240  0.00  0.00    +0.037 C 
ATOM      4  C   UNL     1      35.012 -20.997 -19.562  0.00  0.00    +0.000 C 
ATOM      5  C   UNL     1      36.163 -21.219 -18.804  0.00  0.00    +0.003 C 
ATOM      6  C   UNL     1      33.845 -21.707 -19.279  0.00  0.00    +0.003 C 
ENDROOT
BRANCH   4   7
ATOM      7  C   UNL     1      35.031 -20.033 -20.639  0.00  0.00    +0.000 C 
ATOM      8  C   UNL     1      33.880 -19.806 -21.395  0.00  0.00    +0.000 C 
ATOM      9  C   UNL     1      36.201 -19.329 -20.923  0.00  0.00    +0.000 C 
ATOM     10  C   UNL     1      35.070 -18.170 -22.716  0.00  0.00    +0.031 C 
ATOM     11  C   UNL     1      33.900 -18.874 -22.433  0.00  0.00    +0.003 C 
ATOM     12  C   UNL     1      36.221 -18.398 -21.961  0.00  0.00    +0.003 C 
BRANCH  10  14
ATOM     13  N   UNL     1      34.844 -17.632 -25.107  0.00  0.00    -0.385 N 
ATOM     14  C   UNL     1      35.091 -17.199 -23.797  0.00  0.00    +0.129 C 
ATOM     15  H   UNL     1      34.854 -16.987 -25.850  0.00  0.00    +0.157 HD
ATOM     16  H   UNL     1      34.660 -18.584 -25.284  0.00  0.00    +0.157 HD
BRANCH  14  17
ATOM     17  N   UNL     1      35.359 -15.937 -23.493  0.00  0.00    -0.126 NA
BRANCH  17  19
ATOM     18  O   UNL     1      33.402 -14.800 -24.016  0.00  0.00    -0.224 OA
ATOM     19  C   UNL     1      34.360 -15.018 -23.282  0.00  0.00    +0.427 C 
BRANCH  19  20
ATOM     20  O   UNL     1      34.574 -14.390 -22.086  0.00  0.00    -0.429 OA
ATOM     21  C   UNL     1      33.976 -15.007 -20.941  0.00  0.00    +0.257 C 
ENDBRANCH  19  20
ENDBRANCH  17  19
ENDBRANCH  14  17
ENDBRANCH  10  14
ENDBRANCH   4   7
BRANCH   1  22
ATOM     22  O   UNL     1      34.963 -23.774 -16.460  0.00  0.00    -0.474 OA
BRANCH  22  23
ATOM     23  C   UNL     1      35.275 -23.294 -15.164  0.00  0.00    +0.225 C 
BRANCH  23  27
ATOM     24  O   UNL     1      37.386 -27.117 -15.603  0.00  0.00    -0.275 OA
ATOM     25  N   UNL     1      35.625 -25.709 -14.974  0.00  0.00    -0.302 N 
ATOM     26  C   UNL     1      37.777 -25.092 -14.291  0.00  0.00    +0.089 C 
ATOM     27  C   UNL     1      35.450 -24.485 -14.232  0.00  0.00    +0.116 C 
ATOM     28  C   UNL     1      36.728 -24.409 -13.405  0.00  0.00    +0.033 C 
ATOM     29  C   UNL     1      36.953 -26.128 -15.033  0.00  0.00    +0.223 C 
ATOM     30  H   UNL     1      34.883 -26.199 -15.396  0.00  0.00    +0.149 HD
BRANCH  26  31
ATOM     31  C   UNL     1      38.920 -25.704 -13.503  0.00  0.00    +0.119 C 
BRANCH  31  33
ATOM     32  O   UNL     1      40.829 -24.526 -14.439  0.00  0.00    -0.250 OA
ATOM     33  C   UNL     1      40.241 -25.578 -14.225  0.00  0.00    +0.318 C 
BRANCH  33  34
ATOM     34  O   UNL     1      40.666 -26.822 -14.592  0.00  0.00    -0.444 OA
ATOM     35  C   UNL     1      41.633 -27.425 -13.724  0.00  0.00    +0.256 C 
ENDBRANCH  33  34
ENDBRANCH  31  33
ENDBRANCH  26  31
ENDBRANCH  23  27
ENDBRANCH  22  23
ENDBRANCH   1  22
TORSDOF 11
ENDMDL
