MODEL 1
REMARK VINA RESULT:     -10.9      0.000      0.000
REMARK  Name = 5287720
REMARK  4 active torsions:
REMARK  status: ('A' for Active; 'I' for Inactive)
REMARK    1  A    between atoms: N_2  and  C_16
REMARK    2  A    between atoms: C_4  and  C_5
REMARK    3  A    between atoms: C_6  and  C_9
REMARK    4  A    between atoms: C_16  and  C_18
REMARK                            x       y       z     vdW  Elec       q    Type
REMARK                         _______ _______ _______ _____ _____    ______ ____
ROOT
ATOM      1  O   UNL     1      33.785 -16.503 -25.782  0.00  0.00    -0.270 OA
ATOM      2  N   UNL     1      34.739 -17.396 -23.859  0.00  0.00    -0.269 N 
ATOM      3  C   UNL     1      34.903 -18.717 -24.451  0.00  0.00    +0.116 C 
ATOM      4  C   UNL     1      34.169 -16.370 -24.619  0.00  0.00    +0.249 C 
ENDROOT
BRANCH   4   5
ATOM      5  C   UNL     1      34.066 -15.039 -23.952  0.00  0.00    +0.058 C 
ATOM      6  C   UNL     1      33.326 -14.073 -24.517  0.00  0.00    +0.006 C 
BRANCH   6   9
ATOM      7  N   UNL     1      32.142 -11.261 -22.363  0.00  0.00    -0.230 NA
ATOM      8  N   UNL     1      32.672  -8.938 -22.388  0.00  0.00    -0.343 N 
ATOM      9  C   UNL     1      33.170 -12.713 -23.973  0.00  0.00    +0.019 C 
ATOM     10  C   UNL     1      33.866 -11.658 -24.527  0.00  0.00    +0.004 C 
ATOM     11  C   UNL     1      32.330 -12.483 -22.909  0.00  0.00    +0.100 C 
ATOM     12  C   UNL     1      33.699 -10.386 -23.993  0.00  0.00    +0.034 C 
ATOM     13  C   UNL     1      32.833 -10.242 -22.920  0.00  0.00    +0.125 C 
ATOM     14  H   UNL     1      32.067  -8.790 -21.625  0.00  0.00    +0.144 HD
ATOM     15  H   UNL     1      33.166  -8.182 -22.779  0.00  0.00    +0.144 HD
ENDBRANCH   6   9
ENDBRANCH   4   5
BRANCH   2  16
ATOM     16  C   UNL     1      35.233 -17.253 -22.490  0.00  0.00    +0.135 C 
BRANCH  16  18
ATOM     17  N   UNL     1      35.822 -19.251 -21.120  0.00  0.00    -0.287 N 
ATOM     18  C   UNL     1      34.871 -18.433 -21.637  0.00  0.00    +0.049 C 
ATOM     19  C   UNL     1      35.219 -20.246 -20.385  0.00  0.00    +0.051 C 
ATOM     20  C   UNL     1      33.840 -20.028 -20.452  0.00  0.00    +0.015 C 
ATOM     21  C   UNL     1      33.640 -18.870 -21.254  0.00  0.00    +0.013 C 
ATOM     22  C   UNL     1      37.252 -19.109 -21.303  0.00  0.00    +0.117 C 
ATOM     23  C   UNL     1      35.781 -21.310 -19.671  0.00  0.00    +0.015 C 
ATOM     24  C   UNL     1      32.979 -20.915 -19.777  0.00  0.00    +0.001 C 
ATOM     25  C   UNL     1      34.907 -22.177 -19.009  0.00  0.00    +0.001 C 
ATOM     26  C   UNL     1      33.528 -21.985 -19.059  0.00  0.00    +0.000 C 
ENDBRANCH  16  18
ENDBRANCH   2  16
TORSDOF 4
ENDMDL
MODEL 2
REMARK VINA RESULT:     -10.7      1.290      1.720
REMARK  Name = 5287720
REMARK  4 active torsions:
REMARK  status: ('A' for Active; 'I' for Inactive)
REMARK    1  A    between atoms: N_2  and  C_16
REMARK    2  A    between atoms: C_4  and  C_5
REMARK    3  A    between atoms: C_6  and  C_9
REMARK    4  A    between atoms: C_16  and  C_18
REMARK                            x       y       z     vdW  Elec       q    Type
REMARK                         _______ _______ _______ _____ _____    ______ ____
ROOT
ATOM      1  O   UNL     1      33.450 -15.656 -25.471  0.00  0.00    -0.270 OA
ATOM      2  N   UNL     1      34.645 -16.745 -23.801  0.00  0.00    -0.269 N 
ATOM      3  C   UNL     1      34.863 -17.934 -24.614  0.00  0.00    +0.116 C 
ATOM      4  C   UNL     1      33.926 -15.671 -24.334  0.00  0.00    +0.249 C 
ENDROOT
BRANCH   4   5
ATOM      5  C   UNL     1      33.774 -14.479 -23.450  0.00  0.00    +0.058 C 
ATOM      6  C   UNL     1      32.562 -14.162 -22.972  0.00  0.00    +0.006 C 
BRANCH   6   9
ATOM      7  N   UNL     1      31.902 -10.633 -21.944  0.00  0.00    -0.230 NA
ATOM      8  N   UNL     1      31.492  -9.676 -19.800  0.00  0.00    -0.343 N 
ATOM      9  C   UNL     1      32.279 -12.996 -22.117  0.00  0.00    +0.019 C 
ATOM     10  C   UNL     1      32.132 -13.152 -20.754  0.00  0.00    +0.004 C 
ATOM     11  C   UNL     1      32.160 -11.743 -22.670  0.00  0.00    +0.100 C 
ATOM     12  C   UNL     1      31.866 -12.033 -19.972  0.00  0.00    +0.034 C 
ATOM     13  C   UNL     1      31.761 -10.808 -20.610  0.00  0.00    +0.125 C 
ATOM     14  H   UNL     1      31.409  -8.785 -20.211  0.00  0.00    +0.144 HD
ATOM     15  H   UNL     1      31.386  -9.782 -18.826  0.00  0.00    +0.144 HD
ENDBRANCH   6   9
ENDBRANCH   4   5
BRANCH   2  16
ATOM     16  C   UNL     1      35.248 -16.773 -22.469  0.00  0.00    +0.135 C 
BRANCH  16  18
ATOM     17  N   UNL     1      35.822 -18.923 -21.344  0.00  0.00    -0.287 N 
ATOM     18  C   UNL     1      34.882 -18.017 -21.713  0.00  0.00    +0.049 C 
ATOM     19  C   UNL     1      35.217 -19.960 -20.671  0.00  0.00    +0.051 C 
ATOM     20  C   UNL     1      33.850 -19.677 -20.624  0.00  0.00    +0.015 C 
ATOM     21  C   UNL     1      33.657 -18.436 -21.293  0.00  0.00    +0.013 C 
ATOM     22  C   UNL     1      37.243 -18.826 -21.609  0.00  0.00    +0.117 C 
ATOM     23  C   UNL     1      35.769 -21.115 -20.105  0.00  0.00    +0.015 C 
ATOM     24  C   UNL     1      32.989 -20.590 -19.982  0.00  0.00    +0.001 C 
ATOM     25  C   UNL     1      34.896 -22.006 -19.474  0.00  0.00    +0.001 C 
ATOM     26  C   UNL     1      33.528 -21.749 -19.412  0.00  0.00    +0.000 C 
ENDBRANCH  16  18
ENDBRANCH   2  16
TORSDOF 4
ENDMDL
MODEL 3
REMARK VINA RESULT:     -10.5      1.593      9.002
REMARK  Name = 5287720
REMARK  4 active torsions:
REMARK  status: ('A' for Active; 'I' for Inactive)
REMARK    1  A    between atoms: N_2  and  C_16
REMARK    2  A    between atoms: C_4  and  C_5
REMARK    3  A    between atoms: C_6  and  C_9
REMARK    4  A    between atoms: C_16  and  C_18
REMARK                            x       y       z     vdW  Elec       q    Type
REMARK                         _______ _______ _______ _____ _____    ______ ____
ROOT
ATOM      1  O   UNL     1      34.073 -16.254 -26.179  0.00  0.00    -0.270 OA
ATOM      2  N   UNL     1      33.204 -14.482 -24.952  0.00  0.00    -0.269 N 
ATOM      3  C   UNL     1      32.726 -13.783 -26.139  0.00  0.00    +0.116 C 
ATOM      4  C   UNL     1      33.861 -15.707 -25.096  0.00  0.00    +0.249 C 
ENDROOT
BRANCH   4   5
ATOM      5  C   UNL     1      34.290 -16.374 -23.831  0.00  0.00    +0.058 C 
ATOM      6  C   UNL     1      34.702 -17.650 -23.865  0.00  0.00    +0.006 C 
BRANCH   6   9
ATOM      7  N   UNL     1      36.845 -18.982 -21.112  0.00  0.00    -0.230 NA
ATOM      8  N   UNL     1      36.378 -20.556 -19.384  0.00  0.00    -0.343 N 
ATOM      9  C   UNL     1      35.121 -18.425 -22.684  0.00  0.00    +0.019 C 
ATOM     10  C   UNL     1      34.234 -19.281 -22.064  0.00  0.00    +0.004 C 
ATOM     11  C   UNL     1      36.398 -18.302 -22.190  0.00  0.00    +0.100 C 
ATOM     12  C   UNL     1      34.657 -19.999 -20.951  0.00  0.00    +0.034 C 
ATOM     13  C   UNL     1      35.961 -19.816 -20.519  0.00  0.00    +0.125 C 
ATOM     14  H   UNL     1      37.296 -20.457 -19.043  0.00  0.00    +0.144 HD
ATOM     15  H   UNL     1      35.750 -21.168 -18.937  0.00  0.00    +0.144 HD
ENDBRANCH   6   9
ENDBRANCH   4   5
BRANCH   2  16
ATOM     16  C   UNL     1      32.911 -13.830 -23.677  0.00  0.00    +0.135 C 
BRANCH  16  18
ATOM     17  N   UNL     1      32.614 -11.468 -22.933  0.00  0.00    -0.287 N 
ATOM     18  C   UNL     1      33.279 -12.374 -23.692  0.00  0.00    +0.049 C 
ATOM     19  C   UNL     1      33.151 -10.218 -23.139  0.00  0.00    +0.051 C 
ATOM     20  C   UNL     1      34.190 -10.364 -24.062  0.00  0.00    +0.015 C 
ATOM     21  C   UNL     1      34.255 -11.745 -24.402  0.00  0.00    +0.013 C 
ATOM     22  C   UNL     1      31.511 -11.757 -22.040  0.00  0.00    +0.117 C 
ATOM     23  C   UNL     1      32.803  -8.981 -22.585  0.00  0.00    +0.015 C 
ATOM     24  C   UNL     1      34.917  -9.222 -24.453  0.00  0.00    +0.001 C 
ATOM     25  C   UNL     1      33.537  -7.862 -22.988  0.00  0.00    +0.001 C 
ATOM     26  C   UNL     1      34.578  -7.978 -23.907  0.00  0.00    +0.000 C 
ENDBRANCH  16  18
ENDBRANCH   2  16
TORSDOF 4
ENDMDL
MODEL 4
REMARK VINA RESULT:     -10.1      6.050     11.646
REMARK  Name = 5287720
REMARK  4 active torsions:
REMARK  status: ('A' for Active; 'I' for Inactive)
REMARK    1  A    between atoms: N_2  and  C_16
REMARK    2  A    between atoms: C_4  and  C_5
REMARK    3  A    between atoms: C_6  and  C_9
REMARK    4  A    between atoms: C_16  and  C_18
REMARK                            x       y       z     vdW  Elec       q    Type
REMARK                         _______ _______ _______ _____ _____    ______ ____
ROOT
ATOM      1  O   UNL     1      33.010 -22.870 -14.636  0.00  0.00    -0.270 OA
ATOM      2  N   UNL     1      33.157 -23.131 -16.941  0.00  0.00    -0.269 N 
ATOM      3  C   UNL     1      31.764 -22.761 -17.158  0.00  0.00    +0.116 C 
ATOM      4  C   UNL     1      33.668 -23.150 -15.640  0.00  0.00    +0.249 C 
ENDROOT
BRANCH   4   5
ATOM      5  C   UNL     1      35.111 -23.507 -15.506  0.00  0.00    +0.058 C 
ATOM      6  C   UNL     1      35.450 -24.740 -15.099  0.00  0.00    +0.006 C 
BRANCH   6   9
ATOM      7  N   UNL     1      38.352 -27.034 -14.588  0.00  0.00    -0.230 NA
ATOM      8  N   UNL     1      40.679 -26.585 -14.337  0.00  0.00    -0.343 N 
ATOM      9  C   UNL     1      36.834 -25.203 -14.900  0.00  0.00    +0.019 C 
ATOM     10  C   UNL     1      37.870 -24.292 -14.839  0.00  0.00    +0.004 C 
ATOM     11  C   UNL     1      37.106 -26.544 -14.773  0.00  0.00    +0.100 C 
ATOM     12  C   UNL     1      39.166 -24.758 -14.649  0.00  0.00    +0.034 C 
ATOM     13  C   UNL     1      39.352 -26.126 -14.531  0.00  0.00    +0.125 C 
ATOM     14  H   UNL     1      40.857 -27.550 -14.248  0.00  0.00    +0.144 HD
ATOM     15  H   UNL     1      41.422 -25.941 -14.293  0.00  0.00    +0.144 HD
ENDBRANCH   6   9
ENDBRANCH   4   5
BRANCH   2  16
ATOM     16  C   UNL     1      33.926 -23.426 -18.150  0.00  0.00    +0.135 C 
BRANCH  16  18
ATOM     17  N   UNL     1      35.318 -21.591 -19.104  0.00  0.00    -0.287 N 
ATOM     18  C   UNL     1      34.114 -22.208 -19.007  0.00  0.00    +0.049 C 
ATOM     19  C   UNL     1      35.210 -20.508 -19.947  0.00  0.00    +0.051 C 
ATOM     20  C   UNL     1      33.884 -20.461 -20.385  0.00  0.00    +0.015 C 
ATOM     21  C   UNL     1      33.203 -21.551 -19.775  0.00  0.00    +0.013 C 
ATOM     22  C   UNL     1      36.536 -21.998 -18.434  0.00  0.00    +0.117 C 
ATOM     23  C   UNL     1      36.173 -19.577 -20.352  0.00  0.00    +0.015 C 
ATOM     24  C   UNL     1      33.498 -19.434 -21.270  0.00  0.00    +0.001 C 
ATOM     25  C   UNL     1      35.767 -18.568 -21.229  0.00  0.00    +0.001 C 
ATOM     26  C   UNL     1      34.452 -18.496 -21.683  0.00  0.00    +0.000 C 
ENDBRANCH  16  18
ENDBRANCH   2  16
TORSDOF 4
ENDMDL
MODEL 5
REMARK VINA RESULT:     -10.1      1.869      8.055
REMARK  Name = 5287720
REMARK  4 active torsions:
REMARK  status: ('A' for Active; 'I' for Inactive)
REMARK    1  A    between atoms: N_2  and  C_16
REMARK    2  A    between atoms: C_4  and  C_5
REMARK    3  A    between atoms: C_6  and  C_9
REMARK    4  A    between atoms: C_16  and  C_18
REMARK                            x       y       z     vdW  Elec       q    Type
REMARK                         _______ _______ _______ _____ _____    ______ ____
ROOT
ATOM      1  O   UNL     1      33.776 -18.529 -25.497  0.00  0.00    -0.270 OA
ATOM      2  N   UNL     1      34.358 -16.452 -24.632  0.00  0.00    -0.269 N 
ATOM      3  C   UNL     1      33.641 -15.723 -25.671  0.00  0.00    +0.116 C 
ATOM      4  C   UNL     1      34.355 -17.849 -24.647  0.00  0.00    +0.249 C 
ENDROOT
BRANCH   4   5
ATOM      5  C   UNL     1      35.084 -18.520 -23.531  0.00  0.00    +0.058 C 
ATOM      6  C   UNL     1      34.388 -19.089 -22.535  0.00  0.00    +0.006 C 
BRANCH   6   9
ATOM      7  N   UNL     1      36.883 -20.010 -19.914  0.00  0.00    -0.230 NA
ATOM      8  N   UNL     1      36.760 -21.564 -18.111  0.00  0.00    -0.343 N 
ATOM      9  C   UNL     1      34.992 -19.753 -21.367  0.00  0.00    +0.019 C 
ATOM     10  C   UNL     1      34.277 -20.697 -20.657  0.00  0.00    +0.004 C 
ATOM     11  C   UNL     1      36.271 -19.439 -20.974  0.00  0.00    +0.100 C 
ATOM     12  C   UNL     1      34.873 -21.307 -19.559  0.00  0.00    +0.034 C 
ATOM     13  C   UNL     1      36.166 -20.932 -19.232  0.00  0.00    +0.125 C 
ATOM     14  H   UNL     1      37.677 -21.328 -17.842  0.00  0.00    +0.144 HD
ATOM     15  H   UNL     1      36.255 -22.238 -17.600  0.00  0.00    +0.144 HD
ENDBRANCH   6   9
ENDBRANCH   4   5
BRANCH   2  16
ATOM     16  C   UNL     1      35.008 -15.624 -23.616  0.00  0.00    +0.135 C 
BRANCH  16  18
ATOM     17  N   UNL     1      33.377 -14.554 -22.063  0.00  0.00    -0.287 N 
ATOM     18  C   UNL     1      34.139 -14.479 -23.183  0.00  0.00    +0.049 C 
ATOM     19  C   UNL     1      32.683 -13.376 -21.904  0.00  0.00    +0.051 C 
ATOM     20  C   UNL     1      33.036 -12.544 -22.970  0.00  0.00    +0.015 C 
ATOM     21  C   UNL     1      33.963 -13.266 -23.773  0.00  0.00    +0.013 C 
ATOM     22  C   UNL     1      33.298 -15.688 -21.165  0.00  0.00    +0.117 C 
ATOM     23  C   UNL     1      31.781 -12.985 -20.908  0.00  0.00    +0.015 C 
ATOM     24  C   UNL     1      32.460 -11.261 -23.049  0.00  0.00    +0.001 C 
ATOM     25  C   UNL     1      31.222 -11.708 -21.008  0.00  0.00    +0.001 C 
ATOM     26  C   UNL     1      31.556 -10.857 -22.060  0.00  0.00    +0.000 C 
ENDBRANCH  16  18
ENDBRANCH   2  16
TORSDOF 4
ENDMDL
MODEL 6
REMARK VINA RESULT:     -10.1      1.918      9.287
REMARK  Name = 5287720
REMARK  4 active torsions:
REMARK  status: ('A' for Active; 'I' for Inactive)
REMARK    1  A    between atoms: N_2  and  C_16
REMARK    2  A    between atoms: C_4  and  C_5
REMARK    3  A    between atoms: C_6  and  C_9
REMARK    4  A    between atoms: C_16  and  C_18
REMARK                            x       y       z     vdW  Elec       q    Type
REMARK                         _______ _______ _______ _____ _____    ______ ____
ROOT
ATOM      1  O   UNL     1      33.445 -15.065 -26.680  0.00  0.00    -0.270 OA
ATOM      2  N   UNL     1      33.579 -13.308 -25.164  0.00  0.00    -0.269 N 
ATOM      3  C   UNL     1      33.484 -12.291 -26.204  0.00  0.00    +0.116 C 
ATOM      4  C   UNL     1      33.549 -14.659 -25.521  0.00  0.00    +0.249 C 
ENDROOT
BRANCH   4   5
ATOM      5  C   UNL     1      33.619 -15.637 -24.396  0.00  0.00    +0.058 C 
ATOM      6  C   UNL     1      34.746 -16.338 -24.200  0.00  0.00    +0.006 C 
BRANCH   6   9
ATOM      7  N   UNL     1      35.392 -17.845 -20.845  0.00  0.00    -0.230 NA
ATOM      8  N   UNL     1      35.454 -20.119 -20.134  0.00  0.00    -0.343 N 
ATOM      9  C   UNL     1      34.928 -17.351 -23.146  0.00  0.00    +0.019 C 
ATOM     10  C   UNL     1      34.812 -18.694 -23.444  0.00  0.00    +0.004 C 
ATOM     11  C   UNL     1      35.214 -16.968 -21.857  0.00  0.00    +0.100 C 
ATOM     12  C   UNL     1      34.989 -19.627 -22.429  0.00  0.00    +0.034 C 
ATOM     13  C   UNL     1      35.275 -19.155 -21.158  0.00  0.00    +0.125 C 
ATOM     14  H   UNL     1      35.659 -19.829 -19.216  0.00  0.00    +0.144 HD
ATOM     15  H   UNL     1      35.373 -21.078 -20.341  0.00  0.00    +0.144 HD
ENDBRANCH   6   9
ENDBRANCH   4   5
BRANCH   2  16
ATOM     16  C   UNL     1      33.668 -12.803 -23.795  0.00  0.00    +0.135 C 
BRANCH  16  18
ATOM     17  N   UNL     1      32.699 -10.610 -23.107  0.00  0.00    -0.287 N 
ATOM     18  C   UNL     1      33.673 -11.302 -23.749  0.00  0.00    +0.049 C 
ATOM     19  C   UNL     1      32.945  -9.261 -23.223  0.00  0.00    +0.051 C 
ATOM     20  C   UNL     1      34.120  -9.120 -23.965  0.00  0.00    +0.015 C 
ATOM     21  C   UNL     1      34.567 -10.431 -24.291  0.00  0.00    +0.013 C 
ATOM     22  C   UNL     1      31.571 -11.188 -22.405  0.00  0.00    +0.117 C 
ATOM     23  C   UNL     1      32.226  -8.166 -22.731  0.00  0.00    +0.015 C 
ATOM     24  C   UNL     1      34.603  -7.824 -24.233  0.00  0.00    +0.001 C 
ATOM     25  C   UNL     1      32.724  -6.889 -23.009  0.00  0.00    +0.001 C 
ATOM     26  C   UNL     1      33.893  -6.718 -23.747  0.00  0.00    +0.000 C 
ENDBRANCH  16  18
ENDBRANCH   2  16
TORSDOF 4
ENDMDL
MODEL 7
REMARK VINA RESULT:      -9.9      0.565      1.536
REMARK  Name = 5287720
REMARK  4 active torsions:
REMARK  status: ('A' for Active; 'I' for Inactive)
REMARK    1  A    between atoms: N_2  and  C_16
REMARK    2  A    between atoms: C_4  and  C_5
REMARK    3  A    between atoms: C_6  and  C_9
REMARK    4  A    between atoms: C_16  and  C_18
REMARK                            x       y       z     vdW  Elec       q    Type
REMARK                         _______ _______ _______ _____ _____    ______ ____
ROOT
ATOM      1  O   UNL     1      33.965 -16.600 -25.666  0.00  0.00    -0.270 OA
ATOM      2  N   UNL     1      34.825 -17.439 -23.677  0.00  0.00    -0.269 N 
ATOM      3  C   UNL     1      35.003 -18.780 -24.219  0.00  0.00    +0.116 C 
ATOM      4  C   UNL     1      34.299 -16.433 -24.492  0.00  0.00    +0.249 C 
ENDROOT
BRANCH   4   5
ATOM      5  C   UNL     1      34.179 -15.081 -23.872  0.00  0.00    +0.058 C 
ATOM      6  C   UNL     1      33.283 -14.208 -24.359  0.00  0.00    +0.006 C 
BRANCH   6   9
ATOM      7  N   UNL     1      32.043 -11.372 -22.270  0.00  0.00    -0.230 NA
ATOM      8  N   UNL     1      32.495  -9.034 -22.375  0.00  0.00    -0.343 N 
ATOM      9  C   UNL     1      33.092 -12.838 -23.853  0.00  0.00    +0.019 C 
ATOM     10  C   UNL     1      33.742 -11.779 -24.452  0.00  0.00    +0.004 C 
ATOM     11  C   UNL     1      32.263 -12.603 -22.782  0.00  0.00    +0.100 C 
ATOM     12  C   UNL     1      33.541 -10.496 -23.954  0.00  0.00    +0.034 C 
ATOM     13  C   UNL     1      32.690 -10.348 -22.871  0.00  0.00    +0.125 C 
ATOM     14  H   UNL     1      31.898  -8.883 -21.607  0.00  0.00    +0.144 HD
ATOM     15  H   UNL     1      32.956  -8.275 -22.798  0.00  0.00    +0.144 HD
ENDBRANCH   6   9
ENDBRANCH   4   5
BRANCH   2  16
ATOM     16  C   UNL     1      35.260 -17.257 -22.292  0.00  0.00    +0.135 C 
BRANCH  16  18
ATOM     17  N   UNL     1      33.905 -18.923 -21.025  0.00  0.00    -0.287 N 
ATOM     18  C   UNL     1      35.113 -18.516 -21.487  0.00  0.00    +0.049 C 
ATOM     19  C   UNL     1      34.057 -20.096 -20.321  0.00  0.00    +0.051 C 
ATOM     20  C   UNL     1      35.415 -20.422 -20.356  0.00  0.00    +0.015 C 
ATOM     21  C   UNL     1      36.070 -19.404 -21.103  0.00  0.00    +0.013 C 
ATOM     22  C   UNL     1      32.644 -18.240 -21.232  0.00  0.00    +0.117 C 
ATOM     23  C   UNL     1      33.107 -20.886 -19.665  0.00  0.00    +0.015 C 
ATOM     24  C   UNL     1      35.848 -21.594 -19.704  0.00  0.00    +0.001 C 
ATOM     25  C   UNL     1      33.560 -22.043 -19.024  0.00  0.00    +0.001 C 
ATOM     26  C   UNL     1      34.908 -22.394 -19.043  0.00  0.00    +0.000 C 
ENDBRANCH  16  18
ENDBRANCH   2  16
TORSDOF 4
ENDMDL
MODEL 8
REMARK VINA RESULT:      -9.9      2.934      4.732
REMARK  Name = 5287720
REMARK  4 active torsions:
REMARK  status: ('A' for Active; 'I' for Inactive)
REMARK    1  A    between atoms: N_2  and  C_16
REMARK    2  A    between atoms: C_4  and  C_5
REMARK    3  A    between atoms: C_6  and  C_9
REMARK    4  A    between atoms: C_16  and  C_18
REMARK                            x       y       z     vdW  Elec       q    Type
REMARK                         _______ _______ _______ _____ _____    ______ ____
ROOT
ATOM      1  O   UNL     1      34.896 -11.146 -26.466  0.00  0.00    -0.270 OA
ATOM      2  N   UNL     1      33.492 -12.950 -26.047  0.00  0.00    -0.269 N 
ATOM      3  C   UNL     1      33.725 -13.546 -27.356  0.00  0.00    +0.116 C 
ATOM      4  C   UNL     1      34.131 -11.752 -25.714  0.00  0.00    +0.249 C 
ENDROOT
BRANCH   4   5
ATOM      5  C   UNL     1      33.865 -11.225 -24.344  0.00  0.00    +0.058 C 
ATOM      6  C   UNL     1      33.166 -10.089 -24.197  0.00  0.00    +0.006 C 
BRANCH   6   9
ATOM      7  N   UNL     1      31.784  -9.584 -20.765  0.00  0.00    -0.230 NA
ATOM      8  N   UNL     1      31.972  -7.750 -19.255  0.00  0.00    -0.343 N 
ATOM      9  C   UNL     1      32.865  -9.454 -22.903  0.00  0.00    +0.019 C 
ATOM     10  C   UNL     1      33.352  -8.195 -22.616  0.00  0.00    +0.004 C 
ATOM     11  C   UNL     1      32.097 -10.109 -21.970  0.00  0.00    +0.100 C 
ATOM     12  C   UNL     1      33.051  -7.620 -21.386  0.00  0.00    +0.034 C 
ATOM     13  C   UNL     1      32.271  -8.350 -20.504  0.00  0.00    +0.125 C 
ATOM     14  H   UNL     1      31.420  -8.233 -18.597  0.00  0.00    +0.144 HD
ATOM     15  H   UNL     1      32.316  -6.852 -19.044  0.00  0.00    +0.144 HD
ENDBRANCH   6   9
ENDBRANCH   4   5
BRANCH   2  16
ATOM     16  C   UNL     1      32.608 -13.705 -25.160  0.00  0.00    +0.135 C 
BRANCH  16  18
ATOM     17  N   UNL     1      33.424 -14.824 -23.087  0.00  0.00    -0.287 N 
ATOM     18  C   UNL     1      33.337 -14.802 -24.440  0.00  0.00    +0.049 C 
ATOM     19  C   UNL     1      34.144 -15.929 -22.693  0.00  0.00    +0.051 C 
ATOM     20  C   UNL     1      34.511 -16.614 -23.854  0.00  0.00    +0.015 C 
ATOM     21  C   UNL     1      33.988 -15.880 -24.955  0.00  0.00    +0.013 C 
ATOM     22  C   UNL     1      32.853 -13.844 -22.185  0.00  0.00    +0.117 C 
ATOM     23  C   UNL     1      34.493 -16.371 -21.412  0.00  0.00    +0.015 C 
ATOM     24  C   UNL     1      35.266 -17.798 -23.733  0.00  0.00    +0.001 C 
ATOM     25  C   UNL     1      35.242 -17.548 -21.317  0.00  0.00    +0.001 C 
ATOM     26  C   UNL     1      35.622 -18.252 -22.458  0.00  0.00    +0.000 C 
ENDBRANCH  16  18
ENDBRANCH   2  16
TORSDOF 4
ENDMDL
MODEL 9
REMARK VINA RESULT:      -9.7      4.225      7.178
REMARK  Name = 5287720
REMARK  4 active torsions:
REMARK  status: ('A' for Active; 'I' for Inactive)
REMARK    1  A    between atoms: N_2  and  C_16
REMARK    2  A    between atoms: C_4  and  C_5
REMARK    3  A    between atoms: C_6  and  C_9
REMARK    4  A    between atoms: C_16  and  C_18
REMARK                            x       y       z     vdW  Elec       q    Type
REMARK                         _______ _______ _______ _____ _____    ______ ____
ROOT
ATOM      1  O   UNL     1      32.537  -8.334 -19.579  0.00  0.00    -0.270 OA
ATOM      2  N   UNL     1      31.588 -10.252 -20.485  0.00  0.00    -0.269 N 
ATOM      3  C   UNL     1      31.209 -10.783 -19.182  0.00  0.00    +0.116 C 
ATOM      4  C   UNL     1      32.245  -9.021 -20.560  0.00  0.00    +0.249 C 
ENDROOT
BRANCH   4   5
ATOM      5  C   UNL     1      32.570  -8.532 -21.932  0.00  0.00    +0.058 C 
ATOM      6  C   UNL     1      32.673  -7.213 -22.155  0.00  0.00    +0.006 C 
BRANCH   6   9
ATOM      7  N   UNL     1      32.261  -5.150 -25.240  0.00  0.00    -0.230 NA
ATOM      8  N   UNL     1      33.674  -4.870 -27.139  0.00  0.00    -0.343 N 
ATOM      9  C   UNL     1      32.958  -6.608 -23.468  0.00  0.00    +0.019 C 
ATOM     10  C   UNL     1      34.129  -6.909 -24.133  0.00  0.00    +0.004 C 
ATOM     11  C   UNL     1      32.061  -5.739 -24.041  0.00  0.00    +0.100 C 
ATOM     12  C   UNL     1      34.371  -6.323 -25.370  0.00  0.00    +0.034 C 
ATOM     13  C   UNL     1      33.414  -5.458 -25.875  0.00  0.00    +0.125 C 
ATOM     14  H   UNL     1      33.021  -4.249 -27.536  0.00  0.00    +0.144 HD
ATOM     15  H   UNL     1      34.508  -5.080 -27.618  0.00  0.00    +0.144 HD
ENDBRANCH   6   9
ENDBRANCH   4   5
BRANCH   2  16
ATOM     16  C   UNL     1      31.201 -11.069 -21.634  0.00  0.00    +0.135 C 
BRANCH  16  18
ATOM     17  N   UNL     1      32.868 -12.593 -22.690  0.00  0.00    -0.287 N 
ATOM     18  C   UNL     1      31.975 -12.354 -21.697  0.00  0.00    +0.049 C 
ATOM     19  C   UNL     1      33.430 -13.837 -22.508  0.00  0.00    +0.051 C 
ATOM     20  C   UNL     1      32.858 -14.381 -21.355  0.00  0.00    +0.015 C 
ATOM     21  C   UNL     1      31.935 -13.421 -20.854  0.00  0.00    +0.013 C 
ATOM     22  C   UNL     1      33.191 -11.691 -23.776  0.00  0.00    +0.117 C 
ATOM     23  C   UNL     1      34.390 -14.515 -23.266  0.00  0.00    +0.015 C 
ATOM     24  C   UNL     1      33.263 -15.664 -20.937  0.00  0.00    +0.001 C 
ATOM     25  C   UNL     1      34.776 -15.787 -22.834  0.00  0.00    +0.001 C 
ATOM     26  C   UNL     1      34.223 -16.354 -21.687  0.00  0.00    +0.000 C 
ENDBRANCH  16  18
ENDBRANCH   2  16
TORSDOF 4
ENDMDL
