MODEL 1
REMARK VINA RESULT:      -8.8      0.000      0.000
REMARK  Name = 3696
REMARK  4 active torsions:
REMARK  status: ('A' for Active; 'I' for Inactive)
REMARK    1  A    between atoms: N_1  and  C_16
REMARK    2  A    between atoms: C_16  and  C_17
REMARK    3  A    between atoms: C_17  and  C_18
REMARK    4  A    between atoms: C_18  and  N_19
REMARK                            x       y       z     vdW  Elec       q    Type
REMARK                         _______ _______ _______ _____ _____    ______ ____
ROOT
ATOM      1  N   UNL     1      32.915 -13.136 -23.133  0.00  0.00    -0.287 N 
ATOM      2  C   UNL     1      32.416 -12.066 -22.340  0.00  0.00    +0.048 C 
ATOM      3  C   UNL     1      33.098 -13.174 -24.539  0.00  0.00    +0.048 C 
ATOM      4  C   UNL     1      33.243 -10.144 -23.901  0.00  0.00    +0.032 C 
ATOM      5  C   UNL     1      34.368 -10.998 -24.464  0.00  0.00    +0.032 C 
ATOM      6  C   UNL     1      32.524 -10.698 -22.690  0.00  0.00    -0.008 C 
ATOM      7  C   UNL     1      33.795 -12.161 -25.220  0.00  0.00    -0.008 C 
ATOM      8  C   UNL     1      31.717 -12.358 -21.138  0.00  0.00    +0.015 C 
ATOM      9  C   UNL     1      32.590 -14.248 -25.302  0.00  0.00    +0.015 C 
ATOM     10  C   UNL     1      31.921  -9.714 -21.868  0.00  0.00    -0.003 C 
ATOM     11  C   UNL     1      33.971 -12.234 -26.613  0.00  0.00    -0.003 C 
ATOM     12  C   UNL     1      31.147 -11.371 -20.331  0.00  0.00    +0.001 C 
ATOM     13  C   UNL     1      32.767 -14.313 -26.685  0.00  0.00    +0.001 C 
ATOM     14  C   UNL     1      31.244 -10.043 -20.699  0.00  0.00    -0.000 C 
ATOM     15  C   UNL     1      33.460 -13.304 -27.342  0.00  0.00    -0.000 C 
ENDROOT
BRANCH   1  16
ATOM     16  C   UNL     1      33.137 -14.432 -22.469  0.00  0.00    +0.093 C 
BRANCH  16  17
ATOM     17  C   UNL     1      34.605 -14.846 -22.570  0.00  0.00    -0.001 C 
BRANCH  17  18
ATOM     18  C   UNL     1      34.881 -16.308 -22.204  0.00  0.00    -0.076 C 
BRANCH  18  19
ATOM     19  N   UNL     1      35.609 -17.005 -23.257  0.00  0.00    +0.384 N 
ATOM     20  C   UNL     1      34.794 -17.104 -24.469  0.00  0.00    -0.101 C 
ATOM     21  C   UNL     1      36.015 -18.338 -22.809  0.00  0.00    -0.101 C 
ATOM     22  H   UNL     1      36.447 -16.466 -23.474  0.00  0.00    -0.080 HD
ENDBRANCH  18  19
ENDBRANCH  17  18
ENDBRANCH  16  17
ENDBRANCH   1  16
TORSDOF 4
ENDMDL
MODEL 2
REMARK VINA RESULT:      -8.7      2.639      5.616
REMARK  Name = 3696
REMARK  4 active torsions:
REMARK  status: ('A' for Active; 'I' for Inactive)
REMARK    1  A    between atoms: N_1  and  C_16
REMARK    2  A    between atoms: C_16  and  C_17
REMARK    3  A    between atoms: C_17  and  C_18
REMARK    4  A    between atoms: C_18  and  N_19
REMARK                            x       y       z     vdW  Elec       q    Type
REMARK                         _______ _______ _______ _____ _____    ______ ____
ROOT
ATOM      1  N   UNL     1      32.150  -8.963 -22.796  0.00  0.00    -0.287 N 
ATOM      2  C   UNL     1      31.968  -9.744 -21.621  0.00  0.00    +0.048 C 
ATOM      3  C   UNL     1      31.812  -7.601 -23.005  0.00  0.00    +0.048 C 
ATOM      4  C   UNL     1      32.166  -7.765 -19.930  0.00  0.00    +0.032 C 
ATOM      5  C   UNL     1      33.014  -6.945 -20.889  0.00  0.00    +0.032 C 
ATOM      6  C   UNL     1      31.937  -9.212 -20.309  0.00  0.00    -0.008 C 
ATOM      7  C   UNL     1      32.211  -6.596 -22.108  0.00  0.00    -0.008 C 
ATOM      8  C   UNL     1      31.752 -11.142 -21.743  0.00  0.00    +0.015 C 
ATOM      9  C   UNL     1      31.066  -7.210 -24.139  0.00  0.00    +0.015 C 
ATOM     10  C   UNL     1      31.667 -10.068 -19.212  0.00  0.00    -0.003 C 
ATOM     11  C   UNL     1      31.871  -5.253 -22.350  0.00  0.00    -0.003 C 
ATOM     12  C   UNL     1      31.508 -11.973 -20.646  0.00  0.00    +0.001 C 
ATOM     13  C   UNL     1      30.731  -5.875 -24.371  0.00  0.00    +0.001 C 
ATOM     14  C   UNL     1      31.461 -11.433 -19.375  0.00  0.00    -0.000 C 
ATOM     15  C   UNL     1      31.136  -4.894 -23.476  0.00  0.00    -0.000 C 
ENDROOT
BRANCH   1  16
ATOM     16  C   UNL     1      32.602  -9.657 -24.014  0.00  0.00    +0.093 C 
BRANCH  16  17
ATOM     17  C   UNL     1      34.122  -9.823 -24.008  0.00  0.00    -0.001 C 
BRANCH  17  18
ATOM     18  C   UNL     1      34.636 -11.006 -24.835  0.00  0.00    -0.076 C 
BRANCH  18  19
ATOM     19  N   UNL     1      33.626 -12.048 -24.982  0.00  0.00    +0.384 N 
ATOM     20  C   UNL     1      33.886 -13.151 -24.055  0.00  0.00    -0.101 C 
ATOM     21  C   UNL     1      33.590 -12.541 -26.360  0.00  0.00    -0.101 C 
ATOM     22  H   UNL     1      32.717 -11.643 -24.757  0.00  0.00    -0.080 HD
ENDBRANCH  18  19
ENDBRANCH  17  18
ENDBRANCH  16  17
ENDBRANCH   1  16
TORSDOF 4
ENDMDL
MODEL 3
REMARK VINA RESULT:      -8.4      9.873     13.587
REMARK  Name = 3696
REMARK  4 active torsions:
REMARK  status: ('A' for Active; 'I' for Inactive)
REMARK    1  A    between atoms: N_1  and  C_16
REMARK    2  A    between atoms: C_16  and  C_17
REMARK    3  A    between atoms: C_17  and  C_18
REMARK    4  A    between atoms: C_18  and  N_19
REMARK                            x       y       z     vdW  Elec       q    Type
REMARK                         _______ _______ _______ _____ _____    ______ ____
ROOT
ATOM      1  N   UNL     1      34.734 -23.552 -16.248  0.00  0.00    -0.287 N 
ATOM      2  C   UNL     1      34.764 -22.737 -17.413  0.00  0.00    +0.048 C 
ATOM      3  C   UNL     1      35.811 -24.237 -15.629  0.00  0.00    +0.048 C 
ATOM      4  C   UNL     1      37.228 -21.926 -17.132  0.00  0.00    +0.032 C 
ATOM      5  C   UNL     1      37.192 -22.127 -15.626  0.00  0.00    +0.032 C 
ATOM      6  C   UNL     1      35.900 -22.016 -17.852  0.00  0.00    -0.008 C 
ATOM      7  C   UNL     1      37.015 -23.585 -15.311  0.00  0.00    -0.008 C 
ATOM      8  C   UNL     1      33.608 -22.659 -18.236  0.00  0.00    +0.015 C 
ATOM      9  C   UNL     1      35.700 -25.606 -15.301  0.00  0.00    +0.015 C 
ATOM     10  C   UNL     1      35.847 -21.298 -19.073  0.00  0.00    -0.003 C 
ATOM     11  C   UNL     1      38.060 -24.288 -14.687  0.00  0.00    -0.003 C 
ATOM     12  C   UNL     1      33.571 -21.929 -19.427  0.00  0.00    +0.001 C 
ATOM     13  C   UNL     1      36.743 -26.298 -14.682  0.00  0.00    +0.001 C 
ATOM     14  C   UNL     1      34.696 -21.249 -19.850  0.00  0.00    -0.000 C 
ATOM     15  C   UNL     1      37.924 -25.638 -14.373  0.00  0.00    -0.000 C 
ENDROOT
BRANCH   1  16
ATOM     16  C   UNL     1      33.417 -23.871 -15.671  0.00  0.00    +0.093 C 
BRANCH  16  17
ATOM     17  C   UNL     1      33.183 -23.075 -14.386  0.00  0.00    -0.001 C 
BRANCH  17  18
ATOM     18  C   UNL     1      31.747 -23.130 -13.856  0.00  0.00    -0.076 C 
BRANCH  18  19
ATOM     19  N   UNL     1      30.842 -23.775 -14.800  0.00  0.00    +0.384 N 
ATOM     20  C   UNL     1      29.765 -22.862 -15.186  0.00  0.00    -0.101 C 
ATOM     21  C   UNL     1      30.286 -25.001 -14.226  0.00  0.00    -0.101 C 
ATOM     22  H   UNL     1      31.375 -24.019 -15.634  0.00  0.00    -0.080 HD
ENDBRANCH  18  19
ENDBRANCH  17  18
ENDBRANCH  16  17
ENDBRANCH   1  16
TORSDOF 4
ENDMDL
MODEL 4
REMARK VINA RESULT:      -8.2      1.216      5.686
REMARK  Name = 3696
REMARK  4 active torsions:
REMARK  status: ('A' for Active; 'I' for Inactive)
REMARK    1  A    between atoms: N_1  and  C_16
REMARK    2  A    between atoms: C_16  and  C_17
REMARK    3  A    between atoms: C_17  and  C_18
REMARK    4  A    between atoms: C_18  and  N_19
REMARK                            x       y       z     vdW  Elec       q    Type
REMARK                         _______ _______ _______ _____ _____    ______ ____
ROOT
ATOM      1  N   UNL     1      33.598 -14.518 -22.973  0.00  0.00    -0.287 N 
ATOM      2  C   UNL     1      34.214 -15.790 -22.815  0.00  0.00    +0.048 C 
ATOM      3  C   UNL     1      33.667 -13.643 -24.088  0.00  0.00    +0.048 C 
ATOM      4  C   UNL     1      34.226 -16.419 -25.348  0.00  0.00    +0.032 C 
ATOM      5  C   UNL     1      33.034 -15.524 -25.643  0.00  0.00    +0.032 C 
ATOM      6  C   UNL     1      34.540 -16.656 -23.886  0.00  0.00    -0.008 C 
ATOM      7  C   UNL     1      33.401 -14.089 -25.394  0.00  0.00    -0.008 C 
ATOM      8  C   UNL     1      34.581 -16.227 -21.514  0.00  0.00    +0.015 C 
ATOM      9  C   UNL     1      33.999 -12.281 -23.915  0.00  0.00    +0.015 C 
ATOM     10  C   UNL     1      35.227 -17.868 -23.624  0.00  0.00    -0.003 C 
ATOM     11  C   UNL     1      33.466 -13.195 -26.477  0.00  0.00    -0.003 C 
ATOM     12  C   UNL     1      35.240 -17.436 -21.275  0.00  0.00    +0.001 C 
ATOM     13  C   UNL     1      34.062 -11.399 -24.995  0.00  0.00    +0.001 C 
ATOM     14  C   UNL     1      35.569 -18.258 -22.334  0.00  0.00    -0.000 C 
ATOM     15  C   UNL     1      33.794 -11.856 -26.278  0.00  0.00    -0.000 C 
ENDROOT
BRANCH   1  16
ATOM     16  C   UNL     1      32.922 -13.935 -21.802  0.00  0.00    +0.093 C 
BRANCH  16  17
ATOM     17  C   UNL     1      31.879 -12.905 -22.237  0.00  0.00    -0.001 C 
BRANCH  17  18
ATOM     18  C   UNL     1      31.451 -11.929 -21.138  0.00  0.00    -0.076 C 
BRANCH  18  19
ATOM     19  N   UNL     1      31.984 -10.590 -21.360  0.00  0.00    +0.384 N 
ATOM     20  C   UNL     1      31.755  -9.743 -20.189  0.00  0.00    -0.101 C 
ATOM     21  C   UNL     1      31.381  -9.985 -22.549  0.00  0.00    -0.101 C 
ATOM     22  H   UNL     1      32.990 -10.670 -21.511  0.00  0.00    -0.080 HD
ENDBRANCH  18  19
ENDBRANCH  17  18
ENDBRANCH  16  17
ENDBRANCH   1  16
TORSDOF 4
ENDMDL
MODEL 5
REMARK VINA RESULT:      -8.0      8.439     12.646
REMARK  Name = 3696
REMARK  4 active torsions:
REMARK  status: ('A' for Active; 'I' for Inactive)
REMARK    1  A    between atoms: N_1  and  C_16
REMARK    2  A    between atoms: C_16  and  C_17
REMARK    3  A    between atoms: C_17  and  C_18
REMARK    4  A    between atoms: C_18  and  N_19
REMARK                            x       y       z     vdW  Elec       q    Type
REMARK                         _______ _______ _______ _____ _____    ______ ____
ROOT
ATOM      1  N   UNL     1      33.784 -23.289 -16.858  0.00  0.00    -0.287 N 
ATOM      2  C   UNL     1      32.600 -23.291 -16.070  0.00  0.00    +0.048 C 
ATOM      3  C   UNL     1      35.123 -23.092 -16.429  0.00  0.00    +0.048 C 
ATOM      4  C   UNL     1      33.721 -24.145 -13.873  0.00  0.00    +0.032 C 
ATOM      5  C   UNL     1      34.837 -24.840 -14.635  0.00  0.00    +0.032 C 
ATOM      6  C   UNL     1      32.556 -23.644 -14.700  0.00  0.00    -0.008 C 
ATOM      7  C   UNL     1      35.669 -23.822 -15.360  0.00  0.00    -0.008 C 
ATOM      8  C   UNL     1      31.376 -22.871 -16.655  0.00  0.00    +0.015 C 
ATOM      9  C   UNL     1      35.956 -22.155 -17.078  0.00  0.00    +0.015 C 
ATOM     10  C   UNL     1      31.337 -23.534 -13.986  0.00  0.00    -0.003 C 
ATOM     11  C   UNL     1      37.003 -23.614 -14.966  0.00  0.00    -0.003 C 
ATOM     12  C   UNL     1      30.179 -22.789 -15.938  0.00  0.00    +0.001 C 
ATOM     13  C   UNL     1      37.279 -21.953 -16.681  0.00  0.00    +0.001 C 
ATOM     14  C   UNL     1      30.159 -23.118 -14.597  0.00  0.00    -0.000 C 
ATOM     15  C   UNL     1      37.804 -22.684 -15.624  0.00  0.00    -0.000 C 
ENDROOT
BRANCH   1  16
ATOM     16  C   UNL     1      33.632 -23.342 -18.321  0.00  0.00    +0.093 C 
BRANCH  16  17
ATOM     17  C   UNL     1      33.365 -21.947 -18.888  0.00  0.00    -0.001 C 
BRANCH  17  18
ATOM     18  C   UNL     1      34.396 -21.469 -19.915  0.00  0.00    -0.076 C 
BRANCH  18  19
ATOM     19  N   UNL     1      34.151 -20.094 -20.334  0.00  0.00    +0.384 N 
ATOM     20  C   UNL     1      32.758 -19.922 -20.748  0.00  0.00    -0.101 C 
ATOM     21  C   UNL     1      35.055 -19.718 -21.422  0.00  0.00    -0.101 C 
ATOM     22  H   UNL     1      34.330 -19.483 -19.537  0.00  0.00    -0.080 HD
ENDBRANCH  18  19
ENDBRANCH  17  18
ENDBRANCH  16  17
ENDBRANCH   1  16
TORSDOF 4
ENDMDL
MODEL 6
REMARK VINA RESULT:      -7.9      7.838     11.433
REMARK  Name = 3696
REMARK  4 active torsions:
REMARK  status: ('A' for Active; 'I' for Inactive)
REMARK    1  A    between atoms: N_1  and  C_16
REMARK    2  A    between atoms: C_16  and  C_17
REMARK    3  A    between atoms: C_17  and  C_18
REMARK    4  A    between atoms: C_18  and  N_19
REMARK                            x       y       z     vdW  Elec       q    Type
REMARK                         _______ _______ _______ _____ _____    ______ ____
ROOT
ATOM      1  N   UNL     1      34.267 -22.429 -18.213  0.00  0.00    -0.287 N 
ATOM      2  C   UNL     1      35.273 -22.475 -17.208  0.00  0.00    +0.048 C 
ATOM      3  C   UNL     1      34.098 -21.467 -19.242  0.00  0.00    +0.048 C 
ATOM      4  C   UNL     1      37.126 -21.279 -18.605  0.00  0.00    +0.032 C 
ATOM      5  C   UNL     1      36.512 -21.725 -19.922  0.00  0.00    +0.032 C 
ATOM      6  C   UNL     1      36.570 -21.925 -17.354  0.00  0.00    -0.008 C 
ATOM      7  C   UNL     1      35.157 -21.100 -20.089  0.00  0.00    -0.008 C 
ATOM      8  C   UNL     1      34.972 -23.059 -15.949  0.00  0.00    +0.015 C 
ATOM      9  C   UNL     1      32.845 -20.852 -19.453  0.00  0.00    +0.015 C 
ATOM     10  C   UNL     1      37.471 -21.953 -16.260  0.00  0.00    -0.003 C 
ATOM     11  C   UNL     1      34.954 -20.152 -21.108  0.00  0.00    -0.003 C 
ATOM     12  C   UNL     1      35.882 -23.094 -14.889  0.00  0.00    +0.001 C 
ATOM     13  C   UNL     1      32.652 -19.911 -20.466  0.00  0.00    +0.001 C 
ATOM     14  C   UNL     1      37.135 -22.535 -15.043  0.00  0.00    -0.000 C 
ATOM     15  C   UNL     1      33.708 -19.561 -21.296  0.00  0.00    -0.000 C 
ENDROOT
BRANCH   1  16
ATOM     16  C   UNL     1      33.161 -23.395 -18.115  0.00  0.00    +0.093 C 
BRANCH  16  17
ATOM     17  C   UNL     1      32.055 -22.861 -17.204  0.00  0.00    -0.001 C 
BRANCH  17  18
ATOM     18  C   UNL     1      31.554 -23.860 -16.157  0.00  0.00    -0.076 C 
BRANCH  18  19
ATOM     19  N   UNL     1      30.334 -23.400 -15.505  0.00  0.00    +0.384 N 
ATOM     20  C   UNL     1      29.711 -24.489 -14.751  0.00  0.00    -0.101 C 
ATOM     21  C   UNL     1      29.393 -22.862 -16.489  0.00  0.00    -0.101 C 
ATOM     22  H   UNL     1      30.584 -22.657 -14.853  0.00  0.00    -0.080 HD
ENDBRANCH  18  19
ENDBRANCH  17  18
ENDBRANCH  16  17
ENDBRANCH   1  16
TORSDOF 4
ENDMDL
MODEL 7
REMARK VINA RESULT:      -7.7     11.056     13.783
REMARK  Name = 3696
REMARK  4 active torsions:
REMARK  status: ('A' for Active; 'I' for Inactive)
REMARK    1  A    between atoms: N_1  and  C_16
REMARK    2  A    between atoms: C_16  and  C_17
REMARK    3  A    between atoms: C_17  and  C_18
REMARK    4  A    between atoms: C_18  and  N_19
REMARK                            x       y       z     vdW  Elec       q    Type
REMARK                         _______ _______ _______ _____ _____    ______ ____
ROOT
ATOM      1  N   UNL     1      34.512 -23.627 -15.342  0.00  0.00    -0.287 N 
ATOM      2  C   UNL     1      35.367 -22.938 -16.245  0.00  0.00    +0.048 C 
ATOM      3  C   UNL     1      33.110 -23.482 -15.176  0.00  0.00    +0.048 C 
ATOM      4  C   UNL     1      33.567 -22.540 -18.094  0.00  0.00    +0.032 C 
ATOM      5  C   UNL     1      32.758 -23.751 -17.658  0.00  0.00    +0.032 C 
ATOM      6  C   UNL     1      34.947 -22.404 -17.488  0.00  0.00    -0.008 C 
ATOM      7  C   UNL     1      32.229 -23.536 -16.269  0.00  0.00    -0.008 C 
ATOM      8  C   UNL     1      36.722 -22.712 -15.885  0.00  0.00    +0.015 C 
ATOM      9  C   UNL     1      32.553 -23.287 -13.893  0.00  0.00    +0.015 C 
ATOM     10  C   UNL     1      35.862 -21.663 -18.277  0.00  0.00    -0.003 C 
ATOM     11  C   UNL     1      30.843 -23.401 -16.071  0.00  0.00    -0.003 C 
ATOM     12  C   UNL     1      37.613 -21.995 -16.687  0.00  0.00    +0.001 C 
ATOM     13  C   UNL     1      31.177 -23.152 -13.705  0.00  0.00    +0.001 C 
ATOM     14  C   UNL     1      37.181 -21.464 -17.886  0.00  0.00    -0.000 C 
ATOM     15  C   UNL     1      30.320 -23.210 -14.795  0.00  0.00    -0.000 C 
ENDROOT
BRANCH   1  16
ATOM     16  C   UNL     1      35.142 -24.497 -14.334  0.00  0.00    +0.093 C 
BRANCH  16  17
ATOM     17  C   UNL     1      35.731 -25.746 -14.990  0.00  0.00    -0.001 C 
BRANCH  17  18
ATOM     18  C   UNL     1      36.920 -26.357 -14.243  0.00  0.00    -0.076 C 
BRANCH  18  19
ATOM     19  N   UNL     1      37.884 -25.344 -13.831  0.00  0.00    +0.384 N 
ATOM     20  C   UNL     1      39.151 -25.519 -14.542  0.00  0.00    -0.101 C 
ATOM     21  C   UNL     1      38.102 -25.398 -12.384  0.00  0.00    -0.101 C 
ATOM     22  H   UNL     1      37.503 -24.428 -14.068  0.00  0.00    -0.080 HD
ENDBRANCH  18  19
ENDBRANCH  17  18
ENDBRANCH  16  17
ENDBRANCH   1  16
TORSDOF 4
ENDMDL
MODEL 8
REMARK VINA RESULT:      -7.6     10.435     14.224
REMARK  Name = 3696
REMARK  4 active torsions:
REMARK  status: ('A' for Active; 'I' for Inactive)
REMARK    1  A    between atoms: N_1  and  C_16
REMARK    2  A    between atoms: C_16  and  C_17
REMARK    3  A    between atoms: C_17  and  C_18
REMARK    4  A    between atoms: C_18  and  N_19
REMARK                            x       y       z     vdW  Elec       q    Type
REMARK                         _______ _______ _______ _____ _____    ______ ____
ROOT
ATOM      1  N   UNL     1      35.103 -23.937 -15.726  0.00  0.00    -0.287 N 
ATOM      2  C   UNL     1      34.796 -23.135 -16.860  0.00  0.00    +0.048 C 
ATOM      3  C   UNL     1      36.344 -24.534 -15.384  0.00  0.00    +0.048 C 
ATOM      4  C   UNL     1      37.191 -22.142 -17.164  0.00  0.00    +0.032 C 
ATOM      5  C   UNL     1      37.526 -22.328 -15.694  0.00  0.00    +0.032 C 
ATOM      6  C   UNL     1      35.741 -22.338 -17.551  0.00  0.00    -0.008 C 
ATOM      7  C   UNL     1      37.537 -23.791 -15.356  0.00  0.00    -0.008 C 
ATOM      8  C   UNL     1      33.477 -23.152 -17.387  0.00  0.00    +0.015 C 
ATOM      9  C   UNL     1      36.415 -25.903 -15.048  0.00  0.00    +0.015 C 
ATOM     10  C   UNL     1      35.348 -21.640 -18.720  0.00  0.00    -0.003 C 
ATOM     11  C   UNL     1      38.749 -24.409 -15.000  0.00  0.00    -0.003 C 
ATOM     12  C   UNL     1      33.105 -22.440 -18.530  0.00  0.00    +0.001 C 
ATOM     13  C   UNL     1      37.623 -26.510 -14.697  0.00  0.00    +0.001 C 
ATOM     14  C   UNL     1      34.045 -21.684 -19.203  0.00  0.00    -0.000 C 
ATOM     15  C   UNL     1      38.792 -25.761 -14.672  0.00  0.00    -0.000 C 
ENDROOT
BRANCH   1  16
ATOM     16  C   UNL     1      33.987 -24.345 -14.857  0.00  0.00    +0.093 C 
BRANCH  16  17
ATOM     17  C   UNL     1      34.102 -23.683 -13.483  0.00  0.00    -0.001 C 
BRANCH  17  18
ATOM     18  C   UNL     1      34.873 -24.502 -12.444  0.00  0.00    -0.076 C 
BRANCH  18  19
ATOM     19  N   UNL     1      35.513 -23.653 -11.446  0.00  0.00    +0.384 N 
ATOM     20  C   UNL     1      36.797 -23.154 -11.940  0.00  0.00    -0.101 C 
ATOM     21  C   UNL     1      35.702 -24.384 -10.191  0.00  0.00    -0.101 C 
ATOM     22  H   UNL     1      34.902 -22.856 -11.269  0.00  0.00    -0.080 HD
ENDBRANCH  18  19
ENDBRANCH  17  18
ENDBRANCH  16  17
ENDBRANCH   1  16
TORSDOF 4
ENDMDL
MODEL 9
REMARK VINA RESULT:      -7.6      4.003      6.496
REMARK  Name = 3696
REMARK  4 active torsions:
REMARK  status: ('A' for Active; 'I' for Inactive)
REMARK    1  A    between atoms: N_1  and  C_16
REMARK    2  A    between atoms: C_16  and  C_17
REMARK    3  A    between atoms: C_17  and  C_18
REMARK    4  A    between atoms: C_18  and  N_19
REMARK                            x       y       z     vdW  Elec       q    Type
REMARK                         _______ _______ _______ _____ _____    ______ ____
ROOT
ATOM      1  N   UNL     1      32.385  -7.354 -23.319  0.00  0.00    -0.287 N 
ATOM      2  C   UNL     1      32.192  -6.170 -24.083  0.00  0.00    +0.048 C 
ATOM      3  C   UNL     1      33.112  -8.520 -23.676  0.00  0.00    +0.048 C 
ATOM      4  C   UNL     1      34.435  -6.316 -25.409  0.00  0.00    +0.032 C 
ATOM      5  C   UNL     1      35.110  -7.117 -24.307  0.00  0.00    +0.032 C 
ATOM      6  C   UNL     1      33.097  -5.700 -25.065  0.00  0.00    -0.008 C 
ATOM      7  C   UNL     1      34.431  -8.448 -24.156  0.00  0.00    -0.008 C 
ATOM      8  C   UNL     1      31.001  -5.417 -23.907  0.00  0.00    +0.015 C 
ATOM      9  C   UNL     1      32.529  -9.799 -23.547  0.00  0.00    +0.015 C 
ATOM     10  C   UNL     1      32.769  -4.551 -25.827  0.00  0.00    -0.003 C 
ATOM     11  C   UNL     1      35.130  -9.622 -24.490  0.00  0.00    -0.003 C 
ATOM     12  C   UNL     1      30.706  -4.274 -24.656  0.00  0.00    +0.001 C 
ATOM     13  C   UNL     1      33.229 -10.960 -23.882  0.00  0.00    +0.001 C 
ATOM     14  C   UNL     1      31.591  -3.842 -25.623  0.00  0.00    -0.000 C 
ATOM     15  C   UNL     1      34.532 -10.871 -24.353  0.00  0.00    -0.000 C 
ENDROOT
BRANCH   1  16
ATOM     16  C   UNL     1      31.630  -7.487 -22.062  0.00  0.00    +0.093 C 
BRANCH  16  17
ATOM     17  C   UNL     1      32.493  -8.132 -20.978  0.00  0.00    -0.001 C 
BRANCH  17  18
ATOM     18  C   UNL     1      31.704  -8.788 -19.841  0.00  0.00    -0.076 C 
BRANCH  18  19
ATOM     19  N   UNL     1      31.818 -10.241 -19.866  0.00  0.00    +0.384 N 
ATOM     20  C   UNL     1      30.850 -10.818 -20.801  0.00  0.00    -0.101 C 
ATOM     21  C   UNL     1      31.623 -10.798 -18.526  0.00  0.00    -0.101 C 
ATOM     22  H   UNL     1      32.757 -10.481 -20.184  0.00  0.00    -0.080 HD
ENDBRANCH  18  19
ENDBRANCH  17  18
ENDBRANCH  16  17
ENDBRANCH   1  16
TORSDOF 4
ENDMDL
