MODEL 1
REMARK VINA RESULT:      -9.2      0.000      0.000
REMARK  Name = 461279
REMARK  9 active torsions:
REMARK  status: ('A' for Active; 'I' for Inactive)
REMARK    1  A    between atoms: C_2  and  N_8
REMARK    2  A    between atoms: C_3  and  C_16
REMARK    3  A    between atoms: C_16  and  O_17
REMARK    4  A    between atoms: O_17  and  P_18
REMARK    5  A    between atoms: P_18  and  O_20
REMARK    6  A    between atoms: P_18  and  O_22
REMARK    7  A    between atoms: O_22  and  P_23
REMARK    8  A    between atoms: P_23  and  O_25
REMARK    9  A    between atoms: P_23  and  O_27
REMARK                            x       y       z     vdW  Elec       q    Type
REMARK                         _______ _______ _______ _____ _____    ______ ____
ROOT
ATOM      1  O   UNL     1      35.435 -24.225 -16.043  0.00  0.00    -0.329 OA
ATOM      2  C   UNL     1      34.755 -23.495 -17.078  0.00  0.00    +0.223 C 
ATOM      3  C   UNL     1      36.544 -23.427 -15.573  0.00  0.00    +0.169 C 
ATOM      4  C   UNL     1      35.483 -22.213 -17.226  0.00  0.00    +0.022 C 
ATOM      5  C   UNL     1      36.502 -22.173 -16.372  0.00  0.00    +0.005 C 
ENDROOT
BRANCH   2   8
ATOM      6  O   UNL     1      32.700 -22.440 -18.749  0.00  0.00    -0.252 OA
ATOM      7  O   UNL     1      29.598 -22.645 -15.361  0.00  0.00    -0.270 OA
ATOM      8  N   UNL     1      33.377 -23.252 -16.670  0.00  0.00    -0.215 N 
ATOM      9  N   UNL     1      31.164 -22.547 -17.051  0.00  0.00    -0.236 N 
ATOM     10  C   UNL     1      33.030 -23.554 -15.368  0.00  0.00    +0.072 C 
ATOM     11  C   UNL     1      32.447 -22.729 -17.578  0.00  0.00    +0.316 C 
ATOM     12  C   UNL     1      31.800 -23.380 -14.867  0.00  0.00    +0.047 C 
ATOM     13  C   UNL     1      30.746 -22.828 -15.759  0.00  0.00    +0.250 C 
ATOM     14  C   UNL     1      31.428 -23.708 -13.458  0.00  0.00    +0.037 C 
ATOM     15  H   UNL     1      30.485 -22.180 -17.662  0.00  0.00    +0.159 HD
ENDBRANCH   2   8
BRANCH   3  16
ATOM     16  C   UNL     1      36.379 -23.187 -14.082  0.00  0.00    +0.188 C 
BRANCH  16  17
ATOM     17  O   UNL     1      37.611 -23.461 -13.435  0.00  0.00    -0.270 OA
BRANCH  17  18
ATOM     18  P   UNL     1      37.777 -24.802 -12.548  0.00  0.00    +0.484 P 
ATOM     19  O   UNL     1      37.776 -24.578 -11.063  0.00  0.00    -0.227 OA
BRANCH  18  20
ATOM     20  O   UNL     1      36.603 -25.783 -13.075  0.00  0.00    -0.302 OA
ATOM     21  H   UNL     1      35.939 -25.896 -12.378  0.00  0.00    +0.222 HD
ENDBRANCH  18  20
BRANCH  18  22
ATOM     22  O   UNL     1      39.122 -25.499 -13.112  0.00  0.00    -0.186 OA
BRANCH  22  23
ATOM     23  P   UNL     1      39.622 -25.771 -14.625  0.00  0.00    +0.481 P 
ATOM     24  O   UNL     1      40.890 -26.567 -14.731  0.00  0.00    -0.227 OA
BRANCH  23  25
ATOM     25  O   UNL     1      39.684 -24.287 -15.263  0.00  0.00    -0.302 OA
ATOM     26  H   UNL     1      39.485 -23.632 -14.576  0.00  0.00    +0.222 HD
ENDBRANCH  23  25
BRANCH  23  27
ATOM     27  O   UNL     1      38.329 -26.434 -15.332  0.00  0.00    -0.302 OA
ATOM     28  H   UNL     1      37.706 -26.734 -14.651  0.00  0.00    +0.222 HD
ENDBRANCH  23  27
ENDBRANCH  22  23
ENDBRANCH  18  22
ENDBRANCH  17  18
ENDBRANCH  16  17
ENDBRANCH   3  16
TORSDOF 9
ENDMDL
MODEL 2
REMARK VINA RESULT:      -8.5      3.542      7.158
REMARK  Name = 461279
REMARK  9 active torsions:
REMARK  status: ('A' for Active; 'I' for Inactive)
REMARK    1  A    between atoms: C_2  and  N_8
REMARK    2  A    between atoms: C_3  and  C_16
REMARK    3  A    between atoms: C_16  and  O_17
REMARK    4  A    between atoms: O_17  and  P_18
REMARK    5  A    between atoms: P_18  and  O_20
REMARK    6  A    between atoms: P_18  and  O_22
REMARK    7  A    between atoms: O_22  and  P_23
REMARK    8  A    between atoms: P_23  and  O_25
REMARK    9  A    between atoms: P_23  and  O_27
REMARK                            x       y       z     vdW  Elec       q    Type
REMARK                         _______ _______ _______ _____ _____    ______ ____
ROOT
ATOM      1  O   UNL     1      34.099 -24.726 -14.937  0.00  0.00    -0.329 OA
ATOM      2  C   UNL     1      35.486 -24.348 -14.900  0.00  0.00    +0.223 C 
ATOM      3  C   UNL     1      33.481 -24.319 -13.696  0.00  0.00    +0.169 C 
ATOM      4  C   UNL     1      35.699 -23.688 -13.591  0.00  0.00    +0.022 C 
ATOM      5  C   UNL     1      34.560 -23.672 -12.904  0.00  0.00    +0.005 C 
ENDROOT
BRANCH   2   8
ATOM      6  O   UNL     1      37.959 -22.997 -15.333  0.00  0.00    -0.252 OA
ATOM      7  O   UNL     1      36.341 -20.866 -19.073  0.00  0.00    -0.270 OA
ATOM      8  N   UNL     1      35.760 -23.418 -15.989  0.00  0.00    -0.215 N 
ATOM      9  N   UNL     1      37.139 -21.940 -17.195  0.00  0.00    -0.236 N 
ATOM     10  C   UNL     1      34.744 -23.164 -16.888  0.00  0.00    +0.072 C 
ATOM     11  C   UNL     1      37.017 -22.809 -16.105  0.00  0.00    +0.316 C 
ATOM     12  C   UNL     1      34.865 -22.333 -17.931  0.00  0.00    +0.047 C 
ATOM     13  C   UNL     1      36.165 -21.640 -18.136  0.00  0.00    +0.250 C 
ATOM     14  C   UNL     1      33.763 -22.060 -18.903  0.00  0.00    +0.037 C 
ATOM     15  H   UNL     1      38.010 -21.495 -17.307  0.00  0.00    +0.159 HD
ENDBRANCH   2   8
BRANCH   3  16
ATOM     16  C   UNL     1      32.327 -23.380 -14.007  0.00  0.00    +0.188 C 
BRANCH  16  17
ATOM     17  O   UNL     1      31.554 -23.937 -15.058  0.00  0.00    -0.270 OA
BRANCH  17  18
ATOM     18  P   UNL     1      30.200 -24.755 -14.720  0.00  0.00    +0.484 P 
ATOM     19  O   UNL     1      30.090 -26.093 -15.392  0.00  0.00    -0.227 OA
BRANCH  18  20
ATOM     20  O   UNL     1      30.159 -24.815 -13.104  0.00  0.00    -0.302 OA
ATOM     21  H   UNL     1      29.943 -23.936 -12.753  0.00  0.00    +0.222 HD
ENDBRANCH  18  20
BRANCH  18  22
ATOM     22  O   UNL     1      29.005 -23.729 -15.083  0.00  0.00    -0.186 OA
BRANCH  22  23
ATOM     23  P   UNL     1      28.523 -23.119 -16.500  0.00  0.00    +0.481 P 
ATOM     24  O   UNL     1      27.834 -24.101 -17.402  0.00  0.00    -0.227 OA
BRANCH  23  25
ATOM     25  O   UNL     1      29.876 -22.467 -17.098  0.00  0.00    -0.302 OA
ATOM     26  H   UNL     1      29.929 -21.535 -16.833  0.00  0.00    +0.222 HD
ENDBRANCH  23  25
BRANCH  23  27
ATOM     27  O   UNL     1      27.640 -21.836 -16.073  0.00  0.00    -0.302 OA
ATOM     28  H   UNL     1      28.123 -21.316 -15.412  0.00  0.00    +0.222 HD
ENDBRANCH  23  27
ENDBRANCH  22  23
ENDBRANCH  18  22
ENDBRANCH  17  18
ENDBRANCH  16  17
ENDBRANCH   3  16
TORSDOF 9
ENDMDL
MODEL 3
REMARK VINA RESULT:      -8.3      4.558      7.446
REMARK  Name = 461279
REMARK  9 active torsions:
REMARK  status: ('A' for Active; 'I' for Inactive)
REMARK    1  A    between atoms: C_2  and  N_8
REMARK    2  A    between atoms: C_3  and  C_16
REMARK    3  A    between atoms: C_16  and  O_17
REMARK    4  A    between atoms: O_17  and  P_18
REMARK    5  A    between atoms: P_18  and  O_20
REMARK    6  A    between atoms: P_18  and  O_22
REMARK    7  A    between atoms: O_22  and  P_23
REMARK    8  A    between atoms: P_23  and  O_25
REMARK    9  A    between atoms: P_23  and  O_27
REMARK                            x       y       z     vdW  Elec       q    Type
REMARK                         _______ _______ _______ _____ _____    ______ ____
ROOT
ATOM      1  O   UNL     1      32.966 -23.618 -17.893  0.00  0.00    -0.329 OA
ATOM      2  C   UNL     1      34.372 -23.330 -17.804  0.00  0.00    +0.223 C 
ATOM      3  C   UNL     1      32.386 -23.474 -16.577  0.00  0.00    +0.169 C 
ATOM      4  C   UNL     1      34.636 -22.997 -16.385  0.00  0.00    +0.022 C 
ATOM      5  C   UNL     1      33.509 -23.080 -15.685  0.00  0.00    +0.005 C 
ENDROOT
BRANCH   2   8
ATOM      6  O   UNL     1      36.961 -22.189 -18.155  0.00  0.00    -0.252 OA
ATOM      7  O   UNL     1      35.362 -19.025 -21.084  0.00  0.00    -0.270 OA
ATOM      8  N   UNL     1      34.683 -22.191 -18.660  0.00  0.00    -0.215 N 
ATOM      9  N   UNL     1      36.150 -20.616 -19.613  0.00  0.00    -0.236 N 
ATOM     10  C   UNL     1      33.645 -21.611 -19.362  0.00  0.00    +0.072 C 
ATOM     11  C   UNL     1      35.997 -21.713 -18.757  0.00  0.00    +0.316 C 
ATOM     12  C   UNL     1      33.796 -20.563 -20.181  0.00  0.00    +0.047 C 
ATOM     13  C   UNL     1      35.156 -19.986 -20.347  0.00  0.00    +0.250 C 
ATOM     14  C   UNL     1      32.670 -19.938 -20.939  0.00  0.00    +0.037 C 
ATOM     15  H   UNL     1      37.061 -20.254 -19.704  0.00  0.00    +0.159 HD
ENDBRANCH   2   8
BRANCH   3  16
ATOM     16  C   UNL     1      31.282 -22.432 -16.639  0.00  0.00    +0.188 C 
BRANCH  16  17
ATOM     17  O   UNL     1      30.161 -22.992 -17.303  0.00  0.00    -0.270 OA
BRANCH  17  18
ATOM     18  P   UNL     1      28.726 -23.047 -16.559  0.00  0.00    +0.484 P 
ATOM     19  O   UNL     1      27.948 -21.763 -16.597  0.00  0.00    -0.227 OA
BRANCH  18  20
ATOM     20  O   UNL     1      27.968 -24.306 -17.239  0.00  0.00    -0.302 OA
ATOM     21  H   UNL     1      27.723 -24.945 -16.551  0.00  0.00    +0.222 HD
ENDBRANCH  18  20
BRANCH  18  22
ATOM     22  O   UNL     1      29.059 -23.577 -15.069  0.00  0.00    -0.186 OA
BRANCH  22  23
ATOM     23  P   UNL     1      29.564 -25.019 -14.544  0.00  0.00    +0.481 P 
ATOM     24  O   UNL     1      30.530 -24.964 -13.397  0.00  0.00    -0.227 OA
BRANCH  23  25
ATOM     25  O   UNL     1      30.128 -25.722 -15.887  0.00  0.00    -0.302 OA
ATOM     26  H   UNL     1      31.089 -25.829 -15.816  0.00  0.00    +0.222 HD
ENDBRANCH  23  25
BRANCH  23  27
ATOM     27  O   UNL     1      28.188 -25.813 -14.251  0.00  0.00    -0.302 OA
ATOM     28  H   UNL     1      28.390 -26.724 -13.984  0.00  0.00    +0.222 HD
ENDBRANCH  23  27
ENDBRANCH  22  23
ENDBRANCH  18  22
ENDBRANCH  17  18
ENDBRANCH  16  17
ENDBRANCH   3  16
TORSDOF 9
ENDMDL
MODEL 4
REMARK VINA RESULT:      -8.3      6.375      8.289
REMARK  Name = 461279
REMARK  9 active torsions:
REMARK  status: ('A' for Active; 'I' for Inactive)
REMARK    1  A    between atoms: C_2  and  N_8
REMARK    2  A    between atoms: C_3  and  C_16
REMARK    3  A    between atoms: C_16  and  O_17
REMARK    4  A    between atoms: O_17  and  P_18
REMARK    5  A    between atoms: P_18  and  O_20
REMARK    6  A    between atoms: P_18  and  O_22
REMARK    7  A    between atoms: O_22  and  P_23
REMARK    8  A    between atoms: P_23  and  O_25
REMARK    9  A    between atoms: P_23  and  O_27
REMARK                            x       y       z     vdW  Elec       q    Type
REMARK                         _______ _______ _______ _____ _____    ______ ____
ROOT
ATOM      1  O   UNL     1      34.787 -19.547 -22.652  0.00  0.00    -0.329 OA
ATOM      2  C   UNL     1      35.592 -18.379 -22.888  0.00  0.00    +0.223 C 
ATOM      3  C   UNL     1      35.264 -20.196 -21.452  0.00  0.00    +0.169 C 
ATOM      4  C   UNL     1      36.580 -18.329 -21.787  0.00  0.00    +0.022 C 
ATOM      5  C   UNL     1      36.397 -19.362 -20.969  0.00  0.00    +0.005 C 
ENDROOT
BRANCH   2   8
ATOM      6  O   UNL     1      34.898 -16.797 -25.156  0.00  0.00    -0.252 OA
ATOM      7  O   UNL     1      32.360 -13.936 -22.601  0.00  0.00    -0.270 OA
ATOM      8  N   UNL     1      34.741 -17.196 -22.863  0.00  0.00    -0.215 N 
ATOM      9  N   UNL     1      33.637 -15.378 -23.870  0.00  0.00    -0.236 N 
ATOM     10  C   UNL     1      34.225 -16.801 -21.644  0.00  0.00    +0.072 C 
ATOM     11  C   UNL     1      34.465 -16.492 -24.043  0.00  0.00    +0.316 C 
ATOM     12  C   UNL     1      33.432 -15.735 -21.483  0.00  0.00    +0.047 C 
ATOM     13  C   UNL     1      33.084 -14.925 -22.681  0.00  0.00    +0.250 C 
ATOM     14  C   UNL     1      32.875 -15.311 -20.163  0.00  0.00    +0.037 C 
ATOM     15  H   UNL     1      33.423 -14.859 -24.679  0.00  0.00    +0.159 HD
ENDBRANCH   2   8
BRANCH   3  16
ATOM     16  C   UNL     1      34.122 -20.283 -20.454  0.00  0.00    +0.188 C 
BRANCH  16  17
ATOM     17  O   UNL     1      34.598 -20.892 -19.266  0.00  0.00    -0.270 OA
BRANCH  17  18
ATOM     18  P   UNL     1      33.921 -22.260 -18.731  0.00  0.00    +0.484 P 
ATOM     19  O   UNL     1      32.445 -22.170 -18.468  0.00  0.00    -0.227 OA
BRANCH  18  20
ATOM     20  O   UNL     1      34.336 -23.372 -19.830  0.00  0.00    -0.302 OA
ATOM     21  H   UNL     1      34.871 -24.061 -19.407  0.00  0.00    +0.222 HD
ENDBRANCH  18  20
BRANCH  18  22
ATOM     22  O   UNL     1      34.801 -22.671 -17.439  0.00  0.00    -0.186 OA
BRANCH  22  23
ATOM     23  P   UNL     1      34.404 -23.487 -16.101  0.00  0.00    +0.481 P 
ATOM     24  O   UNL     1      35.079 -24.819 -15.957  0.00  0.00    -0.227 OA
BRANCH  23  25
ATOM     25  O   UNL     1      32.790 -23.535 -16.166  0.00  0.00    -0.302 OA
ATOM     26  H   UNL     1      32.512 -23.922 -17.011  0.00  0.00    +0.222 HD
ENDBRANCH  23  25
BRANCH  23  27
ATOM     27  O   UNL     1      34.704 -22.429 -14.916  0.00  0.00    -0.302 OA
ATOM     28  H   UNL     1      34.403 -22.797 -14.071  0.00  0.00    +0.222 HD
ENDBRANCH  23  27
ENDBRANCH  22  23
ENDBRANCH  18  22
ENDBRANCH  17  18
ENDBRANCH  16  17
ENDBRANCH   3  16
TORSDOF 9
ENDMDL
MODEL 5
REMARK VINA RESULT:      -8.2      4.912      7.658
REMARK  Name = 461279
REMARK  9 active torsions:
REMARK  status: ('A' for Active; 'I' for Inactive)
REMARK    1  A    between atoms: C_2  and  N_8
REMARK    2  A    between atoms: C_3  and  C_16
REMARK    3  A    between atoms: C_16  and  O_17
REMARK    4  A    between atoms: O_17  and  P_18
REMARK    5  A    between atoms: P_18  and  O_20
REMARK    6  A    between atoms: P_18  and  O_22
REMARK    7  A    between atoms: O_22  and  P_23
REMARK    8  A    between atoms: P_23  and  O_25
REMARK    9  A    between atoms: P_23  and  O_27
REMARK                            x       y       z     vdW  Elec       q    Type
REMARK                         _______ _______ _______ _____ _____    ______ ____
ROOT
ATOM      1  O   UNL     1      33.782 -23.430 -18.612  0.00  0.00    -0.329 OA
ATOM      2  C   UNL     1      35.072 -22.802 -18.708  0.00  0.00    +0.223 C 
ATOM      3  C   UNL     1      33.423 -23.527 -17.215  0.00  0.00    +0.169 C 
ATOM      4  C   UNL     1      35.493 -22.509 -17.318  0.00  0.00    +0.022 C 
ATOM      5  C   UNL     1      34.558 -22.922 -16.467  0.00  0.00    +0.005 C 
ENDROOT
BRANCH   2   8
ATOM      6  O   UNL     1      37.249 -21.254 -19.703  0.00  0.00    -0.252 OA
ATOM      7  O   UNL     1      34.416 -18.157 -21.581  0.00  0.00    -0.270 OA
ATOM      8  N   UNL     1      34.949 -21.566 -19.472  0.00  0.00    -0.215 N 
ATOM      9  N   UNL     1      35.825 -19.717 -20.634  0.00  0.00    -0.236 N 
ATOM     10  C   UNL     1      33.677 -21.100 -19.740  0.00  0.00    +0.072 C 
ATOM     11  C   UNL     1      36.092 -20.886 -19.913  0.00  0.00    +0.316 C 
ATOM     12  C   UNL     1      33.426 -19.981 -20.431  0.00  0.00    +0.047 C 
ATOM     13  C   UNL     1      34.579 -19.191 -20.940  0.00  0.00    +0.250 C 
ATOM     14  C   UNL     1      32.048 -19.480 -20.719  0.00  0.00    +0.037 C 
ATOM     15  H   UNL     1      36.606 -19.213 -20.958  0.00  0.00    +0.159 HD
ENDBRANCH   2   8
BRANCH   3  16
ATOM     16  C   UNL     1      32.110 -22.796 -16.995  0.00  0.00    +0.188 C 
BRANCH  16  17
ATOM     17  O   UNL     1      31.089 -23.752 -16.760  0.00  0.00    -0.270 OA
BRANCH  17  18
ATOM     18  P   UNL     1      30.448 -23.905 -15.283  0.00  0.00    +0.484 P 
ATOM     19  O   UNL     1      31.000 -25.042 -14.473  0.00  0.00    -0.227 OA
BRANCH  18  20
ATOM     20  O   UNL     1      30.643 -22.448 -14.607  0.00  0.00    -0.302 OA
ATOM     21  H   UNL     1      30.448 -22.503 -13.658  0.00  0.00    +0.222 HD
ENDBRANCH  18  20
BRANCH  18  22
ATOM     22  O   UNL     1      28.854 -23.984 -15.537  0.00  0.00    -0.186 OA
BRANCH  22  23
ATOM     23  P   UNL     1      27.866 -23.025 -16.384  0.00  0.00    +0.481 P 
ATOM     24  O   UNL     1      26.689 -22.503 -15.614  0.00  0.00    -0.227 OA
BRANCH  23  25
ATOM     25  O   UNL     1      27.500 -23.926 -17.675  0.00  0.00    -0.302 OA
ATOM     26  H   UNL     1      26.686 -23.589 -18.084  0.00  0.00    +0.222 HD
ENDBRANCH  23  25
BRANCH  23  27
ATOM     27  O   UNL     1      28.858 -21.897 -16.978  0.00  0.00    -0.302 OA
ATOM     28  H   UNL     1      28.414 -21.423 -17.698  0.00  0.00    +0.222 HD
ENDBRANCH  23  27
ENDBRANCH  22  23
ENDBRANCH  18  22
ENDBRANCH  17  18
ENDBRANCH  16  17
ENDBRANCH   3  16
TORSDOF 9
ENDMDL
MODEL 6
REMARK VINA RESULT:      -8.1      9.639     12.643
REMARK  Name = 461279
REMARK  9 active torsions:
REMARK  status: ('A' for Active; 'I' for Inactive)
REMARK    1  A    between atoms: C_2  and  N_8
REMARK    2  A    between atoms: C_3  and  C_16
REMARK    3  A    between atoms: C_16  and  O_17
REMARK    4  A    between atoms: O_17  and  P_18
REMARK    5  A    between atoms: P_18  and  O_20
REMARK    6  A    between atoms: P_18  and  O_22
REMARK    7  A    between atoms: O_22  and  P_23
REMARK    8  A    between atoms: P_23  and  O_25
REMARK    9  A    between atoms: P_23  and  O_27
REMARK                            x       y       z     vdW  Elec       q    Type
REMARK                         _______ _______ _______ _____ _____    ______ ____
ROOT
ATOM      1  O   UNL     1      35.746 -16.590 -22.489  0.00  0.00    -0.329 OA
ATOM      2  C   UNL     1      36.004 -17.918 -22.975  0.00  0.00    +0.223 C 
ATOM      3  C   UNL     1      34.665 -16.023 -23.262  0.00  0.00    +0.169 C 
ATOM      4  C   UNL     1      35.039 -18.152 -24.073  0.00  0.00    +0.022 C 
ATOM      5  C   UNL     1      34.277 -17.074 -24.240  0.00  0.00    +0.005 C 
ENDROOT
BRANCH   2   8
ATOM      6  O   UNL     1      38.042 -19.021 -21.314  0.00  0.00    -0.252 OA
ATOM      7  O   UNL     1      34.999 -21.524 -18.942  0.00  0.00    -0.270 OA
ATOM      8  N   UNL     1      35.788 -18.875 -21.896  0.00  0.00    -0.215 N 
ATOM      9  N   UNL     1      36.514 -20.264 -20.140  0.00  0.00    -0.236 N 
ATOM     10  C   UNL     1      34.493 -19.287 -21.652  0.00  0.00    +0.072 C 
ATOM     11  C   UNL     1      36.868 -19.352 -21.141  0.00  0.00    +0.316 C 
ATOM     12  C   UNL     1      34.158 -20.159 -20.693  0.00  0.00    +0.047 C 
ATOM     13  C   UNL     1      35.239 -20.720 -19.840  0.00  0.00    +0.250 C 
ATOM     14  C   UNL     1      32.756 -20.603 -20.432  0.00  0.00    +0.037 C 
ATOM     15  H   UNL     1      37.249 -20.620 -19.590  0.00  0.00    +0.159 HD
ENDBRANCH   2   8
BRANCH   3  16
ATOM     16  C   UNL     1      33.535 -15.641 -22.321  0.00  0.00    +0.188 C 
BRANCH  16  17
ATOM     17  O   UNL     1      33.559 -14.237 -22.124  0.00  0.00    -0.270 OA
BRANCH  17  18
ATOM     18  P   UNL     1      32.881 -13.256 -23.217  0.00  0.00    +0.484 P 
ATOM     19  O   UNL     1      32.581 -13.900 -24.539  0.00  0.00    -0.227 OA
BRANCH  18  20
ATOM     20  O   UNL     1      31.585 -12.646 -22.462  0.00  0.00    -0.302 OA
ATOM     21  H   UNL     1      30.823 -12.669 -23.060  0.00  0.00    +0.222 HD
ENDBRANCH  18  20
BRANCH  18  22
ATOM     22  O   UNL     1      33.884 -11.992 -23.307  0.00  0.00    -0.186 OA
BRANCH  22  23
ATOM     23  P   UNL     1      33.897 -10.715 -24.298  0.00  0.00    +0.481 P 
ATOM     24  O   UNL     1      32.801  -9.721 -24.050  0.00  0.00    -0.227 OA
BRANCH  23  25
ATOM     25  O   UNL     1      33.896 -11.391 -25.766  0.00  0.00    -0.302 OA
ATOM     26  H   UNL     1      33.236 -12.101 -25.794  0.00  0.00    +0.222 HD
ENDBRANCH  23  25
BRANCH  23  27
ATOM     27  O   UNL     1      35.399 -10.140 -24.146  0.00  0.00    -0.302 OA
ATOM     28  H   UNL     1      35.363  -9.193 -23.938  0.00  0.00    +0.222 HD
ENDBRANCH  23  27
ENDBRANCH  22  23
ENDBRANCH  18  22
ENDBRANCH  17  18
ENDBRANCH  16  17
ENDBRANCH   3  16
TORSDOF 9
ENDMDL
MODEL 7
REMARK VINA RESULT:      -8.0      4.462      7.021
REMARK  Name = 461279
REMARK  9 active torsions:
REMARK  status: ('A' for Active; 'I' for Inactive)
REMARK    1  A    between atoms: C_2  and  N_8
REMARK    2  A    between atoms: C_3  and  C_16
REMARK    3  A    between atoms: C_16  and  O_17
REMARK    4  A    between atoms: O_17  and  P_18
REMARK    5  A    between atoms: P_18  and  O_20
REMARK    6  A    between atoms: P_18  and  O_22
REMARK    7  A    between atoms: O_22  and  P_23
REMARK    8  A    between atoms: P_23  and  O_25
REMARK    9  A    between atoms: P_23  and  O_27
REMARK                            x       y       z     vdW  Elec       q    Type
REMARK                         _______ _______ _______ _____ _____    ______ ____
ROOT
ATOM      1  O   UNL     1      34.176 -23.676 -17.497  0.00  0.00    -0.329 OA
ATOM      2  C   UNL     1      35.254 -22.935 -18.094  0.00  0.00    +0.223 C 
ATOM      3  C   UNL     1      34.268 -23.540 -16.062  0.00  0.00    +0.169 C 
ATOM      4  C   UNL     1      36.012 -22.332 -16.973  0.00  0.00    +0.022 C 
ATOM      5  C   UNL     1      35.454 -22.676 -15.816  0.00  0.00    +0.005 C 
ENDROOT
BRANCH   2   8
ATOM      6  O   UNL     1      32.481 -22.500 -18.589  0.00  0.00    -0.252 OA
ATOM      7  O   UNL     1      33.356 -18.948 -21.376  0.00  0.00    -0.270 OA
ATOM      8  N   UNL     1      34.704 -21.894 -18.954  0.00  0.00    -0.215 N 
ATOM      9  N   UNL     1      32.931 -20.731 -19.977  0.00  0.00    -0.236 N 
ATOM     10  C   UNL     1      35.591 -21.046 -19.586  0.00  0.00    +0.072 C 
ATOM     11  C   UNL     1      33.318 -21.772 -19.125  0.00  0.00    +0.316 C 
ATOM     12  C   UNL     1      35.217 -20.050 -20.400  0.00  0.00    +0.047 C 
ATOM     13  C   UNL     1      33.765 -19.844 -20.641  0.00  0.00    +0.250 C 
ATOM     14  C   UNL     1      36.181 -19.134 -21.081  0.00  0.00    +0.037 C 
ATOM     15  H   UNL     1      31.964 -20.617 -20.120  0.00  0.00    +0.159 HD
ENDBRANCH   2   8
BRANCH   3  16
ATOM     16  C   UNL     1      32.974 -22.935 -15.543  0.00  0.00    +0.188 C 
BRANCH  16  17
ATOM     17  O   UNL     1      31.976 -23.942 -15.518  0.00  0.00    -0.270 OA
BRANCH  17  18
ATOM     18  P   UNL     1      30.747 -23.838 -14.472  0.00  0.00    +0.484 P 
ATOM     19  O   UNL     1      30.873 -24.721 -13.264  0.00  0.00    -0.227 OA
BRANCH  18  20
ATOM     20  O   UNL     1      30.638 -22.258 -14.135  0.00  0.00    -0.302 OA
ATOM     21  H   UNL     1      30.304 -22.143 -13.233  0.00  0.00    +0.222 HD
ENDBRANCH  18  20
BRANCH  18  22
ATOM     22  O   UNL     1      29.429 -24.117 -15.364  0.00  0.00    -0.186 OA
BRANCH  22  23
ATOM     23  P   UNL     1      28.692 -23.211 -16.481  0.00  0.00    +0.481 P 
ATOM     24  O   UNL     1      27.833 -23.979 -17.443  0.00  0.00    -0.227 OA
BRANCH  23  25
ATOM     25  O   UNL     1      29.913 -22.391 -17.152  0.00  0.00    -0.302 OA
ATOM     26  H   UNL     1      29.740 -21.438 -17.080  0.00  0.00    +0.222 HD
ENDBRANCH  23  25
BRANCH  23  27
ATOM     27  O   UNL     1      27.920 -22.094 -15.606  0.00  0.00    -0.302 OA
ATOM     28  H   UNL     1      27.412 -21.515 -16.196  0.00  0.00    +0.222 HD
ENDBRANCH  23  27
ENDBRANCH  22  23
ENDBRANCH  18  22
ENDBRANCH  17  18
ENDBRANCH  16  17
ENDBRANCH   3  16
TORSDOF 9
ENDMDL
MODEL 8
REMARK VINA RESULT:      -8.0      9.390     11.470
REMARK  Name = 461279
REMARK  9 active torsions:
REMARK  status: ('A' for Active; 'I' for Inactive)
REMARK    1  A    between atoms: C_2  and  N_8
REMARK    2  A    between atoms: C_3  and  C_16
REMARK    3  A    between atoms: C_16  and  O_17
REMARK    4  A    between atoms: O_17  and  P_18
REMARK    5  A    between atoms: P_18  and  O_20
REMARK    6  A    between atoms: P_18  and  O_22
REMARK    7  A    between atoms: O_22  and  P_23
REMARK    8  A    between atoms: P_23  and  O_25
REMARK    9  A    between atoms: P_23  and  O_27
REMARK                            x       y       z     vdW  Elec       q    Type
REMARK                         _______ _______ _______ _____ _____    ______ ____
ROOT
ATOM      1  O   UNL     1      34.668 -14.225 -21.814  0.00  0.00    -0.329 OA
ATOM      2  C   UNL     1      33.528 -13.444 -22.211  0.00  0.00    +0.223 C 
ATOM      3  C   UNL     1      34.198 -15.383 -21.089  0.00  0.00    +0.169 C 
ATOM      4  C   UNL     1      32.337 -14.166 -21.708  0.00  0.00    +0.022 C 
ATOM      5  C   UNL     1      32.715 -15.269 -21.068  0.00  0.00    +0.005 C 
ENDROOT
BRANCH   2   8
ATOM      6  O   UNL     1      34.004 -11.078 -23.728  0.00  0.00    -0.252 OA
ATOM      7  O   UNL     1      33.347 -13.287 -27.707  0.00  0.00    -0.270 OA
ATOM      8  N   UNL     1      33.491 -13.352 -23.665  0.00  0.00    -0.215 N 
ATOM      9  N   UNL     1      33.673 -12.191 -25.705  0.00  0.00    -0.236 N 
ATOM     10  C   UNL     1      33.202 -14.501 -24.374  0.00  0.00    +0.072 C 
ATOM     11  C   UNL     1      33.742 -12.133 -24.308  0.00  0.00    +0.316 C 
ATOM     12  C   UNL     1      33.138 -14.553 -25.711  0.00  0.00    +0.047 C 
ATOM     13  C   UNL     1      33.390 -13.306 -26.480  0.00  0.00    +0.250 C 
ATOM     14  C   UNL     1      32.825 -15.799 -26.475  0.00  0.00    +0.037 C 
ATOM     15  H   UNL     1      33.843 -11.351 -26.189  0.00  0.00    +0.159 HD
ENDBRANCH   2   8
BRANCH   3  16
ATOM     16  C   UNL     1      34.687 -16.636 -21.795  0.00  0.00    +0.188 C 
BRANCH  16  17
ATOM     17  O   UNL     1      35.071 -17.591 -20.819  0.00  0.00    -0.270 OA
BRANCH  17  18
ATOM     18  P   UNL     1      35.483 -19.088 -21.271  0.00  0.00    +0.484 P 
ATOM     19  O   UNL     1      35.048 -19.469 -22.656  0.00  0.00    -0.227 OA
BRANCH  18  20
ATOM     20  O   UNL     1      37.083 -19.155 -21.032  0.00  0.00    -0.302 OA
ATOM     21  H   UNL     1      37.511 -19.529 -21.818  0.00  0.00    +0.222 HD
ENDBRANCH  18  20
BRANCH  18  22
ATOM     22  O   UNL     1      34.896 -20.041 -20.105  0.00  0.00    -0.186 OA
BRANCH  22  23
ATOM     23  P   UNL     1      35.507 -21.365 -19.408  0.00  0.00    +0.481 P 
ATOM     24  O   UNL     1      34.501 -22.216 -18.692  0.00  0.00    -0.227 OA
BRANCH  23  25
ATOM     25  O   UNL     1      36.695 -20.776 -18.482  0.00  0.00    -0.302 OA
ATOM     26  H   UNL     1      36.709 -21.250 -17.636  0.00  0.00    +0.222 HD
ENDBRANCH  23  25
BRANCH  23  27
ATOM     27  O   UNL     1      36.295 -22.093 -20.616  0.00  0.00    -0.302 OA
ATOM     28  H   UNL     1      36.587 -22.972 -20.328  0.00  0.00    +0.222 HD
ENDBRANCH  23  27
ENDBRANCH  22  23
ENDBRANCH  18  22
ENDBRANCH  17  18
ENDBRANCH  16  17
ENDBRANCH   3  16
TORSDOF 9
ENDMDL
MODEL 9
REMARK VINA RESULT:      -8.0      3.666      7.514
REMARK  Name = 461279
REMARK  9 active torsions:
REMARK  status: ('A' for Active; 'I' for Inactive)
REMARK    1  A    between atoms: C_2  and  N_8
REMARK    2  A    between atoms: C_3  and  C_16
REMARK    3  A    between atoms: C_16  and  O_17
REMARK    4  A    between atoms: O_17  and  P_18
REMARK    5  A    between atoms: P_18  and  O_20
REMARK    6  A    between atoms: P_18  and  O_22
REMARK    7  A    between atoms: O_22  and  P_23
REMARK    8  A    between atoms: P_23  and  O_25
REMARK    9  A    between atoms: P_23  and  O_27
REMARK                            x       y       z     vdW  Elec       q    Type
REMARK                         _______ _______ _______ _____ _____    ______ ____
ROOT
ATOM      1  O   UNL     1      33.790 -22.688 -15.003  0.00  0.00    -0.329 OA
ATOM      2  C   UNL     1      35.225 -22.600 -14.966  0.00  0.00    +0.223 C 
ATOM      3  C   UNL     1      33.383 -22.950 -16.364  0.00  0.00    +0.169 C 
ATOM      4  C   UNL     1      35.688 -22.823 -16.355  0.00  0.00    +0.022 C 
ATOM      5  C   UNL     1      34.642 -23.020 -17.153  0.00  0.00    +0.005 C 
ENDROOT
BRANCH   2   8
ATOM      6  O   UNL     1      33.800 -23.802 -12.809  0.00  0.00    -0.252 OA
ATOM      7  O   UNL     1      37.361 -26.506 -11.733  0.00  0.00    -0.270 OA
ATOM      8  N   UNL     1      35.747 -23.636 -14.083  0.00  0.00    -0.215 N 
ATOM      9  N   UNL     1      35.584 -25.144 -12.283  0.00  0.00    -0.236 N 
ATOM     10  C   UNL     1      37.037 -24.077 -14.302  0.00  0.00    +0.072 C 
ATOM     11  C   UNL     1      34.955 -24.157 -13.051  0.00  0.00    +0.316 C 
ATOM     12  C   UNL     1      37.635 -25.022 -13.565  0.00  0.00    +0.047 C 
ATOM     13  C   UNL     1      36.871 -25.634 -12.446  0.00  0.00    +0.250 C 
ATOM     14  C   UNL     1      39.032 -25.496 -13.805  0.00  0.00    +0.037 C 
ATOM     15  H   UNL     1      35.056 -25.531 -11.548  0.00  0.00    +0.159 HD
ENDBRANCH   2   8
BRANCH   3  16
ATOM     16  C   UNL     1      32.588 -24.244 -16.398  0.00  0.00    +0.188 C 
BRANCH  16  17
ATOM     17  O   UNL     1      31.207 -23.935 -16.294  0.00  0.00    -0.270 OA
BRANCH  17  18
ATOM     18  P   UNL     1      30.392 -24.318 -14.951  0.00  0.00    +0.484 P 
ATOM     19  O   UNL     1      30.426 -25.775 -14.589  0.00  0.00    -0.227 OA
BRANCH  18  20
ATOM     20  O   UNL     1      30.999 -23.335 -13.817  0.00  0.00    -0.302 OA
ATOM     21  H   UNL     1      30.370 -22.619 -13.641  0.00  0.00    +0.222 HD
ENDBRANCH  18  20
BRANCH  18  22
ATOM     22  O   UNL     1      28.907 -23.729 -15.194  0.00  0.00    -0.186 OA
BRANCH  22  23
ATOM     23  P   UNL     1      28.224 -23.083 -16.509  0.00  0.00    +0.481 P 
ATOM     24  O   UNL     1      27.688 -24.083 -17.491  0.00  0.00    -0.227 OA
BRANCH  23  25
ATOM     25  O   UNL     1      29.378 -22.107 -17.080  0.00  0.00    -0.302 OA
ATOM     26  H   UNL     1      29.781 -21.619 -16.345  0.00  0.00    +0.222 HD
ENDBRANCH  23  25
BRANCH  23  27
ATOM     27  O   UNL     1      27.131 -22.062 -15.898  0.00  0.00    -0.302 OA
ATOM     28  H   UNL     1      26.753 -22.439 -15.088  0.00  0.00    +0.222 HD
ENDBRANCH  23  27
ENDBRANCH  22  23
ENDBRANCH  18  22
ENDBRANCH  17  18
ENDBRANCH  16  17
ENDBRANCH   3  16
TORSDOF 9
ENDMDL
