MODEL 1
REMARK VINA RESULT:      -6.3      0.000      0.000
REMARK  Name = 5288154
REMARK  11 active torsions:
REMARK  status: ('A' for Active; 'I' for Inactive)
REMARK    1  A    between atoms: P_1  and  O_3
REMARK    2  A    between atoms: P_1  and  O_5
REMARK    3  A    between atoms: P_1  and  O_13
REMARK    4  A    between atoms: O_5  and  C_6
REMARK    5  A    between atoms: C_6  and  C_7
REMARK    6  A    between atoms: C_7  and  C_8
REMARK    7  A    between atoms: C_8  and  C_10
REMARK    8  A    between atoms: C_10  and  O_11
REMARK    9  A    between atoms: O_13  and  P_14
REMARK   10  A    between atoms: P_14  and  O_16
REMARK   11  A    between atoms: P_14  and  O_18
REMARK                            x       y       z     vdW  Elec       q    Type
REMARK                         _______ _______ _______ _____ _____    ______ ____
ROOT
ATOM      1  P   UNL     1      37.676 -25.150 -12.504  0.00  0.00    +0.484 P 
ATOM      2  O   UNL     1      37.769 -24.606 -11.107  0.00  0.00    -0.227 OA
ENDROOT
BRANCH   1   3
ATOM      3  O   UNL     1      36.918 -26.575 -12.615  0.00  0.00    -0.302 OA
ATOM      4  H   UNL     1      36.612 -26.708 -13.525  0.00  0.00    +0.222 HD
ENDBRANCH   1   3
BRANCH   1   5
ATOM      5  O   UNL     1      36.897 -24.194 -13.547  0.00  0.00    -0.273 OA
BRANCH   5   6
ATOM      6  C   UNL     1      35.475 -24.181 -13.568  0.00  0.00    +0.154 C 
BRANCH   6   7
ATOM      7  C   UNL     1      35.006 -24.393 -15.002  0.00  0.00    +0.035 C 
BRANCH   7   8
ATOM      8  C   UNL     1      34.731 -23.084 -15.765  0.00  0.00    +0.032 C 
ATOM      9  C   UNL     1      33.675 -23.341 -16.846  0.00  0.00    +0.003 C 
BRANCH   8  10
ATOM     10  C   UNL     1      35.992 -22.468 -16.386  0.00  0.00    +0.137 C 
BRANCH  10  11
ATOM     11  O   UNL     1      37.055 -23.410 -16.410  0.00  0.00    -0.382 OA
ATOM     12  H   UNL     1      37.808 -23.035 -16.893  0.00  0.00    +0.210 HD
ENDBRANCH  10  11
ENDBRANCH   8  10
ENDBRANCH   7   8
ENDBRANCH   6   7
ENDBRANCH   5   6
ENDBRANCH   1   5
BRANCH   1  13
ATOM     13  O   UNL     1      39.106 -25.436 -13.201  0.00  0.00    -0.186 OA
BRANCH  13  14
ATOM     14  P   UNL     1      39.518 -25.575 -14.757  0.00  0.00    +0.481 P 
ATOM     15  O   UNL     1      40.827 -26.268 -14.998  0.00  0.00    -0.227 OA
BRANCH  14  16
ATOM     16  O   UNL     1      39.435 -24.054 -15.296  0.00  0.00    -0.302 OA
ATOM     17  H   UNL     1      40.017 -23.490 -14.762  0.00  0.00    +0.222 HD
ENDBRANCH  14  16
BRANCH  14  18
ATOM     18  O   UNL     1      38.229 -26.284 -15.424  0.00  0.00    -0.302 OA
ATOM     19  H   UNL     1      37.850 -26.921 -14.797  0.00  0.00    +0.222 HD
ENDBRANCH  14  18
ENDBRANCH  13  14
ENDBRANCH   1  13
TORSDOF 11
ENDMDL
MODEL 2
REMARK VINA RESULT:      -6.2      1.952      3.315
REMARK  Name = 5288154
REMARK  11 active torsions:
REMARK  status: ('A' for Active; 'I' for Inactive)
REMARK    1  A    between atoms: P_1  and  O_3
REMARK    2  A    between atoms: P_1  and  O_5
REMARK    3  A    between atoms: P_1  and  O_13
REMARK    4  A    between atoms: O_5  and  C_6
REMARK    5  A    between atoms: C_6  and  C_7
REMARK    6  A    between atoms: C_7  and  C_8
REMARK    7  A    between atoms: C_8  and  C_10
REMARK    8  A    between atoms: C_10  and  O_11
REMARK    9  A    between atoms: O_13  and  P_14
REMARK   10  A    between atoms: P_14  and  O_16
REMARK   11  A    between atoms: P_14  and  O_18
REMARK                            x       y       z     vdW  Elec       q    Type
REMARK                         _______ _______ _______ _____ _____    ______ ____
ROOT
ATOM      1  P   UNL     1      37.348 -26.500 -14.778  0.00  0.00    +0.484 P 
ATOM      2  O   UNL     1      36.497 -26.761 -13.569  0.00  0.00    -0.227 OA
ENDROOT
BRANCH   1   3
ATOM      3  O   UNL     1      36.856 -27.262 -16.118  0.00  0.00    -0.302 OA
ATOM      4  H   UNL     1      37.589 -27.307 -16.751  0.00  0.00    +0.222 HD
ENDBRANCH   1   3
BRANCH   1   5
ATOM      5  O   UNL     1      37.444 -24.945 -15.208  0.00  0.00    -0.273 OA
BRANCH   5   6
ATOM      6  C   UNL     1      36.379 -24.057 -14.892  0.00  0.00    +0.154 C 
BRANCH   6   7
ATOM      7  C   UNL     1      36.871 -23.054 -13.856  0.00  0.00    +0.035 C 
BRANCH   7   8
ATOM      8  C   UNL     1      36.261 -23.259 -12.457  0.00  0.00    +0.032 C 
ATOM      9  C   UNL     1      37.272 -23.989 -11.566  0.00  0.00    +0.003 C 
BRANCH   8  10
ATOM     10  C   UNL     1      34.927 -24.016 -12.482  0.00  0.00    +0.137 C 
BRANCH  10  11
ATOM     11  O   UNL     1      34.946 -25.102 -11.567  0.00  0.00    -0.382 OA
ATOM     12  H   UNL     1      34.278 -25.756 -11.827  0.00  0.00    +0.210 HD
ENDBRANCH  10  11
ENDBRANCH   8  10
ENDBRANCH   7   8
ENDBRANCH   6   7
ENDBRANCH   5   6
ENDBRANCH   1   5
BRANCH   1  13
ATOM     13  O   UNL     1      38.885 -26.976 -14.623  0.00  0.00    -0.186 OA
BRANCH  13  14
ATOM     14  P   UNL     1      40.259 -26.128 -14.580  0.00  0.00    +0.481 P 
ATOM     15  O   UNL     1      41.438 -26.873 -14.025  0.00  0.00    -0.227 OA
BRANCH  14  16
ATOM     16  O   UNL     1      39.842 -24.795 -13.766  0.00  0.00    -0.302 OA
ATOM     17  H   UNL     1      40.235 -24.018 -14.196  0.00  0.00    +0.222 HD
ENDBRANCH  14  16
BRANCH  14  18
ATOM     18  O   UNL     1      40.425 -25.606 -16.100  0.00  0.00    -0.302 OA
ATOM     19  H   UNL     1      39.971 -24.755 -16.201  0.00  0.00    +0.222 HD
ENDBRANCH  14  18
ENDBRANCH  13  14
ENDBRANCH   1  13
TORSDOF 11
ENDMDL
MODEL 3
REMARK VINA RESULT:      -6.1      1.158      1.753
REMARK  Name = 5288154
REMARK  11 active torsions:
REMARK  status: ('A' for Active; 'I' for Inactive)
REMARK    1  A    between atoms: P_1  and  O_3
REMARK    2  A    between atoms: P_1  and  O_5
REMARK    3  A    between atoms: P_1  and  O_13
REMARK    4  A    between atoms: O_5  and  C_6
REMARK    5  A    between atoms: C_6  and  C_7
REMARK    6  A    between atoms: C_7  and  C_8
REMARK    7  A    between atoms: C_8  and  C_10
REMARK    8  A    between atoms: C_10  and  O_11
REMARK    9  A    between atoms: O_13  and  P_14
REMARK   10  A    between atoms: P_14  and  O_16
REMARK   11  A    between atoms: P_14  and  O_18
REMARK                            x       y       z     vdW  Elec       q    Type
REMARK                         _______ _______ _______ _____ _____    ______ ____
ROOT
ATOM      1  P   UNL     1      37.503 -25.288 -12.608  0.00  0.00    +0.484 P 
ATOM      2  O   UNL     1      37.429 -24.564 -11.295  0.00  0.00    -0.227 OA
ENDROOT
BRANCH   1   3
ATOM      3  O   UNL     1      36.915 -26.795 -12.572  0.00  0.00    -0.302 OA
ATOM      4  H   UNL     1      36.373 -26.911 -11.777  0.00  0.00    +0.222 HD
ENDBRANCH   1   3
BRANCH   1   5
ATOM      5  O   UNL     1      36.707 -24.571 -13.817  0.00  0.00    -0.273 OA
BRANCH   5   6
ATOM      6  C   UNL     1      36.500 -23.164 -13.791  0.00  0.00    +0.154 C 
BRANCH   6   7
ATOM      7  C   UNL     1      35.548 -22.790 -14.921  0.00  0.00    +0.035 C 
BRANCH   7   8
ATOM      8  C   UNL     1      34.395 -23.792 -15.116  0.00  0.00    +0.032 C 
ATOM      9  C   UNL     1      33.677 -23.485 -16.435  0.00  0.00    +0.003 C 
BRANCH   8  10
ATOM     10  C   UNL     1      33.394 -23.799 -13.953  0.00  0.00    +0.137 C 
BRANCH  10  11
ATOM     11  O   UNL     1      33.739 -24.790 -12.996  0.00  0.00    -0.382 OA
ATOM     12  H   UNL     1      34.690 -24.741 -12.808  0.00  0.00    +0.210 HD
ENDBRANCH  10  11
ENDBRANCH   8  10
ENDBRANCH   7   8
ENDBRANCH   6   7
ENDBRANCH   5   6
ENDBRANCH   1   5
BRANCH   1  13
ATOM     13  O   UNL     1      39.006 -25.489 -13.171  0.00  0.00    -0.186 OA
BRANCH  13  14
ATOM     14  P   UNL     1      39.548 -25.779 -14.664  0.00  0.00    +0.481 P 
ATOM     15  O   UNL     1      40.879 -26.470 -14.723  0.00  0.00    -0.227 OA
BRANCH  14  16
ATOM     16  O   UNL     1      39.497 -24.323 -15.363  0.00  0.00    -0.302 OA
ATOM     17  H   UNL     1      40.094 -24.311 -16.128  0.00  0.00    +0.222 HD
ENDBRANCH  14  16
BRANCH  14  18
ATOM     18  O   UNL     1      38.326 -26.576 -15.359  0.00  0.00    -0.302 OA
ATOM     19  H   UNL     1      38.679 -27.210 -16.004  0.00  0.00    +0.222 HD
ENDBRANCH  14  18
ENDBRANCH  13  14
ENDBRANCH   1  13
TORSDOF 11
ENDMDL
MODEL 4
REMARK VINA RESULT:      -6.0      2.493      4.238
REMARK  Name = 5288154
REMARK  11 active torsions:
REMARK  status: ('A' for Active; 'I' for Inactive)
REMARK    1  A    between atoms: P_1  and  O_3
REMARK    2  A    between atoms: P_1  and  O_5
REMARK    3  A    between atoms: P_1  and  O_13
REMARK    4  A    between atoms: O_5  and  C_6
REMARK    5  A    between atoms: C_6  and  C_7
REMARK    6  A    between atoms: C_7  and  C_8
REMARK    7  A    between atoms: C_8  and  C_10
REMARK    8  A    between atoms: C_10  and  O_11
REMARK    9  A    between atoms: O_13  and  P_14
REMARK   10  A    between atoms: P_14  and  O_16
REMARK   11  A    between atoms: P_14  and  O_18
REMARK                            x       y       z     vdW  Elec       q    Type
REMARK                         _______ _______ _______ _____ _____    ______ ____
ROOT
ATOM      1  P   UNL     1      36.001 -25.289 -15.011  0.00  0.00    +0.484 P 
ATOM      2  O   UNL     1      35.985 -26.585 -15.770  0.00  0.00    -0.227 OA
ENDROOT
BRANCH   1   3
ATOM      3  O   UNL     1      36.999 -24.171 -15.621  0.00  0.00    -0.302 OA
ATOM      4  H   UNL     1      36.636 -23.288 -15.453  0.00  0.00    +0.222 HD
ENDBRANCH   1   3
BRANCH   1   5
ATOM      5  O   UNL     1      34.569 -24.546 -14.919  0.00  0.00    -0.273 OA
BRANCH   5   6
ATOM      6  C   UNL     1      34.248 -23.512 -15.841  0.00  0.00    +0.154 C 
BRANCH   6   7
ATOM      7  C   UNL     1      32.732 -23.422 -15.967  0.00  0.00    +0.035 C 
BRANCH   7   8
ATOM      8  C   UNL     1      31.974 -24.075 -14.796  0.00  0.00    +0.032 C 
ATOM      9  C   UNL     1      30.638 -24.629 -15.305  0.00  0.00    +0.003 C 
BRANCH   8  10
ATOM     10  C   UNL     1      31.741 -23.121 -13.617  0.00  0.00    +0.137 C 
BRANCH  10  11
ATOM     11  O   UNL     1      32.861 -23.116 -12.743  0.00  0.00    -0.382 OA
ATOM     12  H   UNL     1      33.477 -22.416 -13.010  0.00  0.00    +0.210 HD
ENDBRANCH  10  11
ENDBRANCH   8  10
ENDBRANCH   7   8
ENDBRANCH   6   7
ENDBRANCH   5   6
ENDBRANCH   1   5
BRANCH   1  13
ATOM     13  O   UNL     1      36.489 -25.425 -13.476  0.00  0.00    -0.186 OA
BRANCH  13  14
ATOM     14  P   UNL     1      36.194 -24.501 -12.184  0.00  0.00    +0.481 P 
ATOM     15  O   UNL     1      37.249 -24.561 -11.118  0.00  0.00    -0.227 OA
BRANCH  14  16
ATOM     16  O   UNL     1      34.720 -24.976 -11.721  0.00  0.00    -0.302 OA
ATOM     17  H   UNL     1      34.244 -25.340 -12.485  0.00  0.00    +0.222 HD
ENDBRANCH  14  16
BRANCH  14  18
ATOM     18  O   UNL     1      35.939 -23.038 -12.820  0.00  0.00    -0.302 OA
ATOM     19  H   UNL     1      35.192 -22.615 -12.367  0.00  0.00    +0.222 HD
ENDBRANCH  14  18
ENDBRANCH  13  14
ENDBRANCH   1  13
TORSDOF 11
ENDMDL
MODEL 5
REMARK VINA RESULT:      -5.9      1.815      3.759
REMARK  Name = 5288154
REMARK  11 active torsions:
REMARK  status: ('A' for Active; 'I' for Inactive)
REMARK    1  A    between atoms: P_1  and  O_3
REMARK    2  A    between atoms: P_1  and  O_5
REMARK    3  A    between atoms: P_1  and  O_13
REMARK    4  A    between atoms: O_5  and  C_6
REMARK    5  A    between atoms: C_6  and  C_7
REMARK    6  A    between atoms: C_7  and  C_8
REMARK    7  A    between atoms: C_8  and  C_10
REMARK    8  A    between atoms: C_10  and  O_11
REMARK    9  A    between atoms: O_13  and  P_14
REMARK   10  A    between atoms: P_14  and  O_16
REMARK   11  A    between atoms: P_14  and  O_18
REMARK                            x       y       z     vdW  Elec       q    Type
REMARK                         _______ _______ _______ _____ _____    ______ ____
ROOT
ATOM      1  P   UNL     1      37.368 -25.624 -13.496  0.00  0.00    +0.484 P 
ATOM      2  O   UNL     1      37.309 -27.105 -13.737  0.00  0.00    -0.227 OA
ENDROOT
BRANCH   1   3
ATOM      3  O   UNL     1      38.783 -24.941 -13.882  0.00  0.00    -0.302 OA
ATOM      4  H   UNL     1      39.508 -25.528 -13.614  0.00  0.00    +0.222 HD
ENDBRANCH   1   3
BRANCH   1   5
ATOM      5  O   UNL     1      36.269 -24.766 -14.312  0.00  0.00    -0.273 OA
BRANCH   5   6
ATOM      6  C   UNL     1      36.685 -23.887 -15.350  0.00  0.00    +0.154 C 
BRANCH   6   7
ATOM      7  C   UNL     1      35.565 -22.892 -15.625  0.00  0.00    +0.035 C 
BRANCH   7   8
ATOM      8  C   UNL     1      34.233 -23.553 -16.026  0.00  0.00    +0.032 C 
ATOM      9  C   UNL     1      33.846 -23.095 -17.437  0.00  0.00    +0.003 C 
BRANCH   8  10
ATOM     10  C   UNL     1      33.093 -23.267 -15.040  0.00  0.00    +0.137 C 
BRANCH  10  11
ATOM     11  O   UNL     1      33.553 -23.348 -13.699  0.00  0.00    -0.382 OA
ATOM     12  H   UNL     1      33.496 -22.472 -13.284  0.00  0.00    +0.210 HD
ENDBRANCH  10  11
ENDBRANCH   8  10
ENDBRANCH   7   8
ENDBRANCH   6   7
ENDBRANCH   5   6
ENDBRANCH   1   5
BRANCH   1  13
ATOM     13  O   UNL     1      37.157 -25.193 -11.952  0.00  0.00    -0.186 OA
BRANCH  13  14
ATOM     14  P   UNL     1      36.014 -24.296 -11.248  0.00  0.00    +0.481 P 
ATOM     15  O   UNL     1      36.136 -24.183  -9.757  0.00  0.00    -0.227 OA
BRANCH  14  16
ATOM     16  O   UNL     1      34.642 -24.968 -11.777  0.00  0.00    -0.302 OA
ATOM     17  H   UNL     1      34.193 -24.353 -12.379  0.00  0.00    +0.222 HD
ENDBRANCH  14  16
BRANCH  14  18
ATOM     18  O   UNL     1      36.086 -22.897 -12.054  0.00  0.00    -0.302 OA
ATOM     19  H   UNL     1      36.709 -22.982 -12.793  0.00  0.00    +0.222 HD
ENDBRANCH  14  18
ENDBRANCH  13  14
ENDBRANCH   1  13
TORSDOF 11
ENDMDL
MODEL 6
REMARK VINA RESULT:      -5.7      2.014      3.331
REMARK  Name = 5288154
REMARK  11 active torsions:
REMARK  status: ('A' for Active; 'I' for Inactive)
REMARK    1  A    between atoms: P_1  and  O_3
REMARK    2  A    between atoms: P_1  and  O_5
REMARK    3  A    between atoms: P_1  and  O_13
REMARK    4  A    between atoms: O_5  and  C_6
REMARK    5  A    between atoms: C_6  and  C_7
REMARK    6  A    between atoms: C_7  and  C_8
REMARK    7  A    between atoms: C_8  and  C_10
REMARK    8  A    between atoms: C_10  and  O_11
REMARK    9  A    between atoms: O_13  and  P_14
REMARK   10  A    between atoms: P_14  and  O_16
REMARK   11  A    between atoms: P_14  and  O_18
REMARK                            x       y       z     vdW  Elec       q    Type
REMARK                         _______ _______ _______ _____ _____    ______ ____
ROOT
ATOM      1  P   UNL     1      37.047 -23.531 -15.055  0.00  0.00    +0.484 P 
ATOM      2  O   UNL     1      37.904 -22.445 -15.639  0.00  0.00    -0.227 OA
ENDROOT
BRANCH   1   3
ATOM      3  O   UNL     1      36.549 -23.245 -13.541  0.00  0.00    -0.302 OA
ATOM      4  H   UNL     1      36.171 -22.354 -13.489  0.00  0.00    +0.222 HD
ENDBRANCH   1   3
BRANCH   1   5
ATOM      5  O   UNL     1      35.690 -23.831 -15.877  0.00  0.00    -0.273 OA
BRANCH   5   6
ATOM      6  C   UNL     1      34.642 -22.870 -15.890  0.00  0.00    +0.154 C 
BRANCH   6   7
ATOM      7  C   UNL     1      33.343 -23.568 -16.273  0.00  0.00    +0.035 C 
BRANCH   7   8
ATOM      8  C   UNL     1      32.414 -23.849 -15.077  0.00  0.00    +0.032 C 
ATOM      9  C   UNL     1      31.263 -22.837 -15.083  0.00  0.00    +0.003 C 
BRANCH   8  10
ATOM     10  C   UNL     1      33.141 -23.823 -13.726  0.00  0.00    +0.137 C 
BRANCH  10  11
ATOM     11  O   UNL     1      33.956 -24.975 -13.569  0.00  0.00    -0.382 OA
ATOM     12  H   UNL     1      33.946 -25.493 -14.390  0.00  0.00    +0.210 HD
ENDBRANCH  10  11
ENDBRANCH   8  10
ENDBRANCH   7   8
ENDBRANCH   6   7
ENDBRANCH   5   6
ENDBRANCH   1   5
BRANCH   1  13
ATOM     13  O   UNL     1      37.781 -24.966 -14.939  0.00  0.00    -0.186 OA
BRANCH  13  14
ATOM     14  P   UNL     1      37.207 -26.422 -14.537  0.00  0.00    +0.481 P 
ATOM     15  O   UNL     1      38.196 -27.543 -14.670  0.00  0.00    -0.227 OA
BRANCH  14  16
ATOM     16  O   UNL     1      35.882 -26.559 -15.452  0.00  0.00    -0.302 OA
ATOM     17  H   UNL     1      36.140 -26.613 -16.386  0.00  0.00    +0.222 HD
ENDBRANCH  14  16
BRANCH  14  18
ATOM     18  O   UNL     1      36.618 -26.194 -13.050  0.00  0.00    -0.302 OA
ATOM     19  H   UNL     1      36.364 -25.264 -12.942  0.00  0.00    +0.222 HD
ENDBRANCH  14  18
ENDBRANCH  13  14
ENDBRANCH   1  13
TORSDOF 11
ENDMDL
MODEL 7
REMARK VINA RESULT:      -5.6      3.201      4.683
REMARK  Name = 5288154
REMARK  11 active torsions:
REMARK  status: ('A' for Active; 'I' for Inactive)
REMARK    1  A    between atoms: P_1  and  O_3
REMARK    2  A    between atoms: P_1  and  O_5
REMARK    3  A    between atoms: P_1  and  O_13
REMARK    4  A    between atoms: O_5  and  C_6
REMARK    5  A    between atoms: C_6  and  C_7
REMARK    6  A    between atoms: C_7  and  C_8
REMARK    7  A    between atoms: C_8  and  C_10
REMARK    8  A    between atoms: C_10  and  O_11
REMARK    9  A    between atoms: O_13  and  P_14
REMARK   10  A    between atoms: P_14  and  O_16
REMARK   11  A    between atoms: P_14  and  O_18
REMARK                            x       y       z     vdW  Elec       q    Type
REMARK                         _______ _______ _______ _____ _____    ______ ____
ROOT
ATOM      1  P   UNL     1      35.585 -24.798 -14.987  0.00  0.00    +0.484 P 
ATOM      2  O   UNL     1      35.792 -26.196 -15.498  0.00  0.00    -0.227 OA
ENDROOT
BRANCH   1   3
ATOM      3  O   UNL     1      35.932 -23.639 -16.061  0.00  0.00    -0.302 OA
ATOM      4  H   UNL     1      35.927 -22.777 -15.618  0.00  0.00    +0.222 HD
ENDBRANCH   1   3
BRANCH   1   5
ATOM      5  O   UNL     1      34.076 -24.473 -14.512  0.00  0.00    -0.273 OA
BRANCH   5   6
ATOM      6  C   UNL     1      33.273 -23.577 -15.271  0.00  0.00    +0.154 C 
BRANCH   6   7
ATOM      7  C   UNL     1      31.915 -23.445 -14.592  0.00  0.00    +0.035 C 
BRANCH   7   8
ATOM      8  C   UNL     1      30.731 -23.844 -15.493  0.00  0.00    +0.032 C 
ATOM      9  C   UNL     1      29.590 -22.839 -15.302  0.00  0.00    +0.003 C 
BRANCH   8  10
ATOM     10  C   UNL     1      30.232 -25.272 -15.240  0.00  0.00    +0.137 C 
BRANCH  10  11
ATOM     11  O   UNL     1      29.289 -25.297 -14.177  0.00  0.00    -0.382 OA
ATOM     12  H   UNL     1      28.521 -24.752 -14.413  0.00  0.00    +0.210 HD
ENDBRANCH  10  11
ENDBRANCH   8  10
ENDBRANCH   7   8
ENDBRANCH   6   7
ENDBRANCH   5   6
ENDBRANCH   1   5
BRANCH   1  13
ATOM     13  O   UNL     1      36.506 -24.413 -13.716  0.00  0.00    -0.186 OA
BRANCH  13  14
ATOM     14  P   UNL     1      36.607 -25.069 -12.243  0.00  0.00    +0.481 P 
ATOM     15  O   UNL     1      37.617 -24.424 -11.339  0.00  0.00    -0.227 OA
BRANCH  14  16
ATOM     16  O   UNL     1      36.863 -26.635 -12.555  0.00  0.00    -0.302 OA
ATOM     17  H   UNL     1      36.537 -27.168 -11.813  0.00  0.00    +0.222 HD
ENDBRANCH  14  16
BRANCH  14  18
ATOM     18  O   UNL     1      35.082 -25.033 -11.711  0.00  0.00    -0.302 OA
ATOM     19  H   UNL     1      34.908 -25.824 -11.176  0.00  0.00    +0.222 HD
ENDBRANCH  14  18
ENDBRANCH  13  14
ENDBRANCH   1  13
TORSDOF 11
ENDMDL
MODEL 8
REMARK VINA RESULT:      -5.5     10.059     12.306
REMARK  Name = 5288154
REMARK  11 active torsions:
REMARK  status: ('A' for Active; 'I' for Inactive)
REMARK    1  A    between atoms: P_1  and  O_3
REMARK    2  A    between atoms: P_1  and  O_5
REMARK    3  A    between atoms: P_1  and  O_13
REMARK    4  A    between atoms: O_5  and  C_6
REMARK    5  A    between atoms: C_6  and  C_7
REMARK    6  A    between atoms: C_7  and  C_8
REMARK    7  A    between atoms: C_8  and  C_10
REMARK    8  A    between atoms: C_10  and  O_11
REMARK    9  A    between atoms: O_13  and  P_14
REMARK   10  A    between atoms: P_14  and  O_16
REMARK   11  A    between atoms: P_14  and  O_18
REMARK                            x       y       z     vdW  Elec       q    Type
REMARK                         _______ _______ _______ _____ _____    ______ ____
ROOT
ATOM      1  P   UNL     1      34.193 -15.747 -21.340  0.00  0.00    +0.484 P 
ATOM      2  O   UNL     1      32.738 -16.011 -21.078  0.00  0.00    -0.227 OA
ENDROOT
BRANCH   1   3
ATOM      3  O   UNL     1      34.946 -14.933 -20.162  0.00  0.00    -0.302 OA
ATOM      4  H   UNL     1      34.910 -13.983 -20.353  0.00  0.00    +0.222 HD
ENDBRANCH   1   3
BRANCH   1   5
ATOM      5  O   UNL     1      35.089 -17.075 -21.552  0.00  0.00    -0.273 OA
BRANCH   5   6
ATOM      6  C   UNL     1      34.990 -17.809 -22.766  0.00  0.00    +0.154 C 
BRANCH   6   7
ATOM      7  C   UNL     1      34.538 -19.228 -22.443  0.00  0.00    +0.035 C 
BRANCH   7   8
ATOM      8  C   UNL     1      34.224 -19.454 -20.952  0.00  0.00    +0.032 C 
ATOM      9  C   UNL     1      35.224 -20.462 -20.373  0.00  0.00    +0.003 C 
BRANCH   8  10
ATOM     10  C   UNL     1      32.786 -19.923 -20.700  0.00  0.00    +0.137 C 
BRANCH  10  11
ATOM     11  O   UNL     1      32.717 -20.738 -19.538  0.00  0.00    -0.382 OA
ATOM     12  H   UNL     1      32.993 -21.642 -19.759  0.00  0.00    +0.210 HD
ENDBRANCH  10  11
ENDBRANCH   8  10
ENDBRANCH   7   8
ENDBRANCH   6   7
ENDBRANCH   5   6
ENDBRANCH   1   5
BRANCH   1  13
ATOM     13  O   UNL     1      34.479 -14.848 -22.653  0.00  0.00    -0.186 OA
BRANCH  13  14
ATOM     14  P   UNL     1      33.470 -14.063 -23.640  0.00  0.00    +0.481 P 
ATOM     15  O   UNL     1      33.146 -14.791 -24.912  0.00  0.00    -0.227 OA
BRANCH  14  16
ATOM     16  O   UNL     1      34.186 -12.627 -23.832  0.00  0.00    -0.302 OA
ATOM     17  H   UNL     1      34.603 -12.589 -24.708  0.00  0.00    +0.222 HD
ENDBRANCH  14  16
BRANCH  14  18
ATOM     18  O   UNL     1      32.203 -13.731 -22.694  0.00  0.00    -0.302 OA
ATOM     19  H   UNL     1      31.950 -12.800 -22.807  0.00  0.00    +0.222 HD
ENDBRANCH  14  18
ENDBRANCH  13  14
ENDBRANCH   1  13
TORSDOF 11
ENDMDL
MODEL 9
REMARK VINA RESULT:      -5.4      3.407      5.549
REMARK  Name = 5288154
REMARK  11 active torsions:
REMARK  status: ('A' for Active; 'I' for Inactive)
REMARK    1  A    between atoms: P_1  and  O_3
REMARK    2  A    between atoms: P_1  and  O_5
REMARK    3  A    between atoms: P_1  and  O_13
REMARK    4  A    between atoms: O_5  and  C_6
REMARK    5  A    between atoms: C_6  and  C_7
REMARK    6  A    between atoms: C_7  and  C_8
REMARK    7  A    between atoms: C_8  and  C_10
REMARK    8  A    between atoms: C_10  and  O_11
REMARK    9  A    between atoms: O_13  and  P_14
REMARK   10  A    between atoms: P_14  and  O_16
REMARK   11  A    between atoms: P_14  and  O_18
REMARK                            x       y       z     vdW  Elec       q    Type
REMARK                         _______ _______ _______ _____ _____    ______ ____
ROOT
ATOM      1  P   UNL     1      34.946 -23.744 -15.567  0.00  0.00    +0.484 P 
ATOM      2  O   UNL     1      35.119 -22.966 -16.840  0.00  0.00    -0.227 OA
ENDROOT
BRANCH   1   3
ATOM      3  O   UNL     1      35.555 -25.242 -15.613  0.00  0.00    -0.302 OA
ATOM      4  H   UNL     1      36.524 -25.197 -15.595  0.00  0.00    +0.222 HD
ENDBRANCH   1   3
BRANCH   1   5
ATOM      5  O   UNL     1      35.629 -23.068 -14.268  0.00  0.00    -0.273 OA
BRANCH   5   6
ATOM      6  C   UNL     1      37.043 -23.082 -14.125  0.00  0.00    +0.154 C 
BRANCH   6   7
ATOM      7  C   UNL     1      37.388 -23.604 -12.736  0.00  0.00    +0.035 C 
BRANCH   7   8
ATOM      8  C   UNL     1      38.212 -24.905 -12.749  0.00  0.00    +0.032 C 
ATOM      9  C   UNL     1      38.814 -25.107 -14.145  0.00  0.00    +0.003 C 
BRANCH   8  10
ATOM     10  C   UNL     1      37.404 -26.140 -12.332  0.00  0.00    +0.137 C 
BRANCH  10  11
ATOM     11  O   UNL     1      36.479 -26.504 -13.348  0.00  0.00    -0.382 OA
ATOM     12  H   UNL     1      36.574 -25.902 -14.103  0.00  0.00    +0.210 HD
ENDBRANCH  10  11
ENDBRANCH   8  10
ENDBRANCH   7   8
ENDBRANCH   6   7
ENDBRANCH   5   6
ENDBRANCH   1   5
BRANCH   1  13
ATOM     13  O   UNL     1      33.405 -23.983 -15.141  0.00  0.00    -0.186 OA
BRANCH  13  14
ATOM     14  P   UNL     1      32.747 -24.374 -13.718  0.00  0.00    +0.481 P 
ATOM     15  O   UNL     1      31.611 -25.351 -13.801  0.00  0.00    -0.227 OA
BRANCH  14  16
ATOM     16  O   UNL     1      32.374 -22.937 -13.079  0.00  0.00    -0.302 OA
ATOM     17  H   UNL     1      31.411 -22.816 -13.097  0.00  0.00    +0.222 HD
ENDBRANCH  14  16
BRANCH  14  18
ATOM     18  O   UNL     1      34.013 -24.861 -12.841  0.00  0.00    -0.302 OA
ATOM     19  H   UNL     1      34.283 -24.148 -12.240  0.00  0.00    +0.222 HD
ENDBRANCH  14  18
ENDBRANCH  13  14
ENDBRANCH   1  13
TORSDOF 11
ENDMDL
