MODEL 1
REMARK VINA RESULT:      -6.1      0.000      0.000
REMARK  Name = 31072
REMARK  2 active torsions:
REMARK  status: ('A' for Active; 'I' for Inactive)
REMARK    1  A    between atoms: C_9  and  O_10
REMARK    2  A    between atoms: O_10  and  C_11
REMARK                            x       y       z     vdW  Elec       q    Type
REMARK                         _______ _______ _______ _____ _____    ______ ____
ROOT
ATOM      1  S   UNL     1      34.624 -17.439 -25.020  0.00  0.00    -0.017 S 
ATOM      2  O   UNL     1      34.971 -15.895 -20.569  0.00  0.00    -0.225 OA
ATOM      3  N   UNL     1      33.394 -14.961 -24.770  0.00  0.00    -0.266 N 
ATOM      4  N   UNL     1      34.295 -15.708 -22.801  0.00  0.00    -0.183 N 
ATOM      5  C   UNL     1      34.115 -16.068 -24.222  0.00  0.00    +0.154 C 
ATOM      6  C   UNL     1      33.691 -14.470 -22.629  0.00  0.00    +0.093 C 
ATOM      7  C   UNL     1      33.167 -14.037 -23.778  0.00  0.00    +0.084 C 
ATOM      8  C   UNL     1      32.934 -14.758 -26.131  0.00  0.00    +0.119 C 
ATOM      9  C   UNL     1      34.917 -16.357 -21.708  0.00  0.00    +0.414 C 
ENDROOT
BRANCH   9  10
ATOM     10  O   UNL     1      35.461 -17.563 -22.053  0.00  0.00    -0.434 OA
BRANCH  10  11
ATOM     11  C   UNL     1      35.310 -18.620 -21.099  0.00  0.00    +0.210 C 
ATOM     12  C   UNL     1      34.047 -19.392 -21.413  0.00  0.00    +0.051 C 
ENDBRANCH  10  11
ENDBRANCH   9  10
TORSDOF 2
ENDMDL
MODEL 2
REMARK VINA RESULT:      -5.9      2.097      2.882
REMARK  Name = 31072
REMARK  2 active torsions:
REMARK  status: ('A' for Active; 'I' for Inactive)
REMARK    1  A    between atoms: C_9  and  O_10
REMARK    2  A    between atoms: O_10  and  C_11
REMARK                            x       y       z     vdW  Elec       q    Type
REMARK                         _______ _______ _______ _____ _____    ______ ____
ROOT
ATOM      1  S   UNL     1      34.102 -15.710 -21.459  0.00  0.00    -0.017 S 
ATOM      2  O   UNL     1      34.832 -17.210 -25.878  0.00  0.00    -0.225 OA
ATOM      3  N   UNL     1      32.879 -13.990 -23.266  0.00  0.00    -0.266 N 
ATOM      4  N   UNL     1      33.958 -15.733 -24.288  0.00  0.00    -0.183 N 
ATOM      5  C   UNL     1      33.654 -15.154 -22.964  0.00  0.00    +0.154 C 
ATOM      6  C   UNL     1      33.364 -14.901 -25.228  0.00  0.00    +0.093 C 
ATOM      7  C   UNL     1      32.735 -13.886 -24.629  0.00  0.00    +0.084 C 
ATOM      8  C   UNL     1      32.300 -13.021 -22.354  0.00  0.00    +0.119 C 
ATOM      9  C   UNL     1      34.680 -16.877 -24.704  0.00  0.00    +0.414 C 
ENDROOT
BRANCH   9  10
ATOM     10  O   UNL     1      35.197 -17.582 -23.653  0.00  0.00    -0.434 OA
BRANCH  10  11
ATOM     11  C   UNL     1      34.918 -18.987 -23.637  0.00  0.00    +0.210 C 
ATOM     12  C   UNL     1      34.663 -19.423 -22.210  0.00  0.00    +0.051 C 
ENDBRANCH  10  11
ENDBRANCH   9  10
TORSDOF 2
ENDMDL
MODEL 3
REMARK VINA RESULT:      -5.9      2.540      4.827
REMARK  Name = 31072
REMARK  2 active torsions:
REMARK  status: ('A' for Active; 'I' for Inactive)
REMARK    1  A    between atoms: C_9  and  O_10
REMARK    2  A    between atoms: O_10  and  C_11
REMARK                            x       y       z     vdW  Elec       q    Type
REMARK                         _______ _______ _______ _____ _____    ______ ____
ROOT
ATOM      1  S   UNL     1      34.664 -16.180 -21.333  0.00  0.00    -0.017 S 
ATOM      2  O   UNL     1      34.085 -16.041 -26.019  0.00  0.00    -0.225 OA
ATOM      3  N   UNL     1      34.922 -18.731 -22.403  0.00  0.00    -0.266 N 
ATOM      4  N   UNL     1      34.492 -17.139 -23.993  0.00  0.00    -0.183 N 
ATOM      5  C   UNL     1      34.693 -17.326 -22.542  0.00  0.00    +0.154 C 
ATOM      6  C   UNL     1      34.612 -18.396 -24.572  0.00  0.00    +0.093 C 
ATOM      7  C   UNL     1      34.863 -19.321 -23.643  0.00  0.00    +0.084 C 
ATOM      8  C   UNL     1      35.179 -19.496 -21.197  0.00  0.00    +0.119 C 
ATOM      9  C   UNL     1      34.225 -16.005 -24.797  0.00  0.00    +0.414 C 
ENDROOT
BRANCH   9  10
ATOM     10  O   UNL     1      34.140 -14.852 -24.068  0.00  0.00    -0.434 OA
BRANCH  10  11
ATOM     11  C   UNL     1      33.017 -14.009 -24.347  0.00  0.00    +0.210 C 
ATOM     12  C   UNL     1      32.485 -13.449 -23.045  0.00  0.00    +0.051 C 
ENDBRANCH  10  11
ENDBRANCH   9  10
TORSDOF 2
ENDMDL
MODEL 4
REMARK VINA RESULT:      -5.9      1.851      2.645
REMARK  Name = 31072
REMARK  2 active torsions:
REMARK  status: ('A' for Active; 'I' for Inactive)
REMARK    1  A    between atoms: C_9  and  O_10
REMARK    2  A    between atoms: O_10  and  C_11
REMARK                            x       y       z     vdW  Elec       q    Type
REMARK                         _______ _______ _______ _____ _____    ______ ____
ROOT
ATOM      1  S   UNL     1      34.557 -15.663 -21.390  0.00  0.00    -0.017 S 
ATOM      2  O   UNL     1      35.074 -19.591 -23.961  0.00  0.00    -0.225 OA
ATOM      3  N   UNL     1      33.968 -15.144 -24.055  0.00  0.00    -0.266 N 
ATOM      4  N   UNL     1      34.566 -17.324 -23.685  0.00  0.00    -0.183 N 
ATOM      5  C   UNL     1      34.367 -16.029 -23.004  0.00  0.00    +0.154 C 
ATOM      6  C   UNL     1      34.282 -17.111 -25.027  0.00  0.00    +0.093 C 
ATOM      7  C   UNL     1      33.934 -15.840 -25.240  0.00  0.00    +0.084 C 
ATOM      8  C   UNL     1      33.636 -13.733 -23.980  0.00  0.00    +0.119 C 
ATOM      9  C   UNL     1      34.959 -18.606 -23.233  0.00  0.00    +0.414 C 
ENDROOT
BRANCH   9  10
ATOM     10  O   UNL     1      35.198 -18.639 -21.888  0.00  0.00    -0.434 OA
BRANCH  10  11
ATOM     11  C   UNL     1      34.752 -19.810 -21.194  0.00  0.00    +0.210 C 
ATOM     12  C   UNL     1      33.283 -19.660 -20.866  0.00  0.00    +0.051 C 
ENDBRANCH  10  11
ENDBRANCH   9  10
TORSDOF 2
ENDMDL
MODEL 5
REMARK VINA RESULT:      -5.8      5.180      6.547
REMARK  Name = 31072
REMARK  2 active torsions:
REMARK  status: ('A' for Active; 'I' for Inactive)
REMARK    1  A    between atoms: C_9  and  O_10
REMARK    2  A    between atoms: O_10  and  C_11
REMARK                            x       y       z     vdW  Elec       q    Type
REMARK                         _______ _______ _______ _____ _____    ______ ____
ROOT
ATOM      1  S   UNL     1      36.651 -21.196 -19.726  0.00  0.00    -0.017 S 
ATOM      2  O   UNL     1      32.337 -22.495 -18.305  0.00  0.00    -0.225 OA
ATOM      3  N   UNL     1      34.721 -19.662 -21.007  0.00  0.00    -0.266 N 
ATOM      4  N   UNL     1      33.822 -21.198 -19.564  0.00  0.00    -0.183 N 
ATOM      5  C   UNL     1      35.105 -20.694 -20.094  0.00  0.00    +0.154 C 
ATOM      6  C   UNL     1      32.823 -20.456 -20.182  0.00  0.00    +0.093 C 
ATOM      7  C   UNL     1      33.350 -19.562 -21.021  0.00  0.00    +0.084 C 
ATOM      8  C   UNL     1      35.564 -18.812 -21.827  0.00  0.00    +0.119 C 
ATOM      9  C   UNL     1      33.488 -22.207 -18.630  0.00  0.00    +0.414 C 
ENDROOT
BRANCH   9  10
ATOM     10  O   UNL     1      34.589 -22.836 -18.120  0.00  0.00    -0.434 OA
BRANCH  10  11
ATOM     11  C   UNL     1      34.593 -23.054 -16.704  0.00  0.00    +0.210 C 
ATOM     12  C   UNL     1      35.963 -22.718 -16.157  0.00  0.00    +0.051 C 
ENDBRANCH  10  11
ENDBRANCH   9  10
TORSDOF 2
ENDMDL
MODEL 6
REMARK VINA RESULT:      -5.7      3.880      6.256
REMARK  Name = 31072
REMARK  2 active torsions:
REMARK  status: ('A' for Active; 'I' for Inactive)
REMARK    1  A    between atoms: C_9  and  O_10
REMARK    2  A    between atoms: O_10  and  C_11
REMARK                            x       y       z     vdW  Elec       q    Type
REMARK                         _______ _______ _______ _____ _____    ______ ____
ROOT
ATOM      1  S   UNL     1      32.711 -20.139 -20.627  0.00  0.00    -0.017 S 
ATOM      2  O   UNL     1      37.080 -18.654 -21.639  0.00  0.00    -0.225 OA
ATOM      3  N   UNL     1      34.581 -21.665 -19.251  0.00  0.00    -0.266 N 
ATOM      4  N   UNL     1      35.542 -20.045 -20.556  0.00  0.00    -0.183 N 
ATOM      5  C   UNL     1      34.238 -20.609 -20.153  0.00  0.00    +0.154 C 
ATOM      6  C   UNL     1      36.512 -20.783 -19.890  0.00  0.00    +0.093 C 
ATOM      7  C   UNL     1      35.949 -21.726 -19.130  0.00  0.00    +0.084 C 
ATOM      8  C   UNL     1      33.704 -22.575 -18.539  0.00  0.00    +0.119 C 
ATOM      9  C   UNL     1      35.917 -18.989 -21.420  0.00  0.00    +0.414 C 
ENDROOT
BRANCH   9  10
ATOM     10  O   UNL     1      34.840 -18.370 -21.991  0.00  0.00    -0.434 OA
BRANCH  10  11
ATOM     11  C   UNL     1      35.031 -17.862 -23.316  0.00  0.00    +0.210 C 
ATOM     12  C   UNL     1      34.652 -18.934 -24.315  0.00  0.00    +0.051 C 
ENDBRANCH  10  11
ENDBRANCH   9  10
TORSDOF 2
ENDMDL
MODEL 7
REMARK VINA RESULT:      -5.7      1.905      2.365
REMARK  Name = 31072
REMARK  2 active torsions:
REMARK  status: ('A' for Active; 'I' for Inactive)
REMARK    1  A    between atoms: C_9  and  O_10
REMARK    2  A    between atoms: O_10  and  C_11
REMARK                            x       y       z     vdW  Elec       q    Type
REMARK                         _______ _______ _______ _____ _____    ______ ____
ROOT
ATOM      1  S   UNL     1      33.801 -15.395 -24.462  0.00  0.00    -0.017 S 
ATOM      2  O   UNL     1      35.441 -17.672 -20.662  0.00  0.00    -0.225 OA
ATOM      3  N   UNL     1      32.975 -14.104 -22.145  0.00  0.00    -0.266 N 
ATOM      4  N   UNL     1      34.250 -15.960 -21.723  0.00  0.00    -0.183 N 
ATOM      5  C   UNL     1      33.676 -15.154 -22.818  0.00  0.00    +0.154 C 
ATOM      6  C   UNL     1      33.859 -15.348 -20.538  0.00  0.00    +0.093 C 
ATOM      7  C   UNL     1      33.117 -14.267 -20.788  0.00  0.00    +0.084 C 
ATOM      8  C   UNL     1      32.213 -13.007 -22.714  0.00  0.00    +0.119 C 
ATOM      9  C   UNL     1      35.047 -17.128 -21.693  0.00  0.00    +0.414 C 
ENDROOT
BRANCH   9  10
ATOM     10  O   UNL     1      35.340 -17.596 -22.944  0.00  0.00    -0.434 OA
BRANCH  10  11
ATOM     11  C   UNL     1      34.960 -18.950 -23.218  0.00  0.00    +0.210 C 
ATOM     12  C   UNL     1      34.552 -19.063 -24.671  0.00  0.00    +0.051 C 
ENDBRANCH  10  11
ENDBRANCH   9  10
TORSDOF 2
ENDMDL
MODEL 8
REMARK VINA RESULT:      -5.6      2.624      4.343
REMARK  Name = 31072
REMARK  2 active torsions:
REMARK  status: ('A' for Active; 'I' for Inactive)
REMARK    1  A    between atoms: C_9  and  O_10
REMARK    2  A    between atoms: O_10  and  C_11
REMARK                            x       y       z     vdW  Elec       q    Type
REMARK                         _______ _______ _______ _____ _____    ______ ____
ROOT
ATOM      1  S   UNL     1      34.627 -16.198 -21.436  0.00  0.00    -0.017 S 
ATOM      2  O   UNL     1      33.202 -13.554 -25.081  0.00  0.00    -0.225 OA
ATOM      3  N   UNL     1      34.770 -17.664 -23.792  0.00  0.00    -0.266 N 
ATOM      4  N   UNL     1      34.007 -15.529 -24.118  0.00  0.00    -0.183 N 
ATOM      5  C   UNL     1      34.474 -16.462 -23.074  0.00  0.00    +0.154 C 
ATOM      6  C   UNL     1      34.060 -16.223 -25.319  0.00  0.00    +0.093 C 
ATOM      7  C   UNL     1      34.506 -17.466 -25.126  0.00  0.00    +0.084 C 
ATOM      8  C   UNL     1      35.268 -18.929 -23.284  0.00  0.00    +0.119 C 
ATOM      9  C   UNL     1      33.561 -14.186 -24.089  0.00  0.00    +0.414 C 
ENDROOT
BRANCH   9  10
ATOM     10  O   UNL     1      33.572 -13.656 -22.829  0.00  0.00    -0.434 OA
BRANCH  10  11
ATOM     11  C   UNL     1      32.315 -13.182 -22.330  0.00  0.00    +0.210 C 
ATOM     12  C   UNL     1      32.323 -13.259 -20.819  0.00  0.00    +0.051 C 
ENDBRANCH  10  11
ENDBRANCH   9  10
TORSDOF 2
ENDMDL
MODEL 9
REMARK VINA RESULT:      -5.6      2.146      4.549
REMARK  Name = 31072
REMARK  2 active torsions:
REMARK  status: ('A' for Active; 'I' for Inactive)
REMARK    1  A    between atoms: C_9  and  O_10
REMARK    2  A    between atoms: O_10  and  C_11
REMARK                            x       y       z     vdW  Elec       q    Type
REMARK                         _______ _______ _______ _____ _____    ______ ____
ROOT
ATOM      1  S   UNL     1      34.802 -17.473 -24.385  0.00  0.00    -0.017 S 
ATOM      2  O   UNL     1      33.388 -13.023 -23.669  0.00  0.00    -0.225 OA
ATOM      3  N   UNL     1      34.951 -16.847 -21.682  0.00  0.00    -0.266 N 
ATOM      4  N   UNL     1      34.189 -15.103 -22.958  0.00  0.00    -0.183 N 
ATOM      5  C   UNL     1      34.653 -16.503 -23.038  0.00  0.00    +0.154 C 
ATOM      6  C   UNL     1      34.248 -14.746 -21.617  0.00  0.00    +0.093 C 
ATOM      7  C   UNL     1      34.692 -15.764 -20.876  0.00  0.00    +0.084 C 
ATOM      8  C   UNL     1      35.449 -18.102 -21.150  0.00  0.00    +0.119 C 
ATOM      9  C   UNL     1      33.744 -14.172 -23.926  0.00  0.00    +0.414 C 
ENDROOT
BRANCH   9  10
ATOM     10  O   UNL     1      33.747 -14.688 -25.192  0.00  0.00    -0.434 OA
BRANCH  10  11
ATOM     11  C   UNL     1      32.699 -14.242 -26.060  0.00  0.00    +0.210 C 
ATOM     12  C   UNL     1      33.299 -13.405 -27.168  0.00  0.00    +0.051 C 
ENDBRANCH  10  11
ENDBRANCH   9  10
TORSDOF 2
ENDMDL
