MODEL 1
REMARK VINA RESULT:      -6.6      0.000      0.000
REMARK  Name = 446127
REMARK  5 active torsions:
REMARK  status: ('A' for Active; 'I' for Inactive)
REMARK    1  A    between atoms: C_1  and  C_2
REMARK    2  A    between atoms: C_1  and  C_8
REMARK    3  A    between atoms: C_8  and  O_9
REMARK    4  A    between atoms: C_8  and  C_11
REMARK    5  A    between atoms: C_11  and  O_12
REMARK                            x       y       z     vdW  Elec       q    Type
REMARK                         _______ _______ _______ _____ _____    ______ ____
ROOT
ATOM      1  C   UNL     1      35.922 -18.760 -21.535  0.00  0.00    +0.058 C 
ENDROOT
BRANCH   1   2
ATOM      2  C   UNL     1      35.107 -19.782 -20.778  0.00  0.00    -0.020 C 
ATOM      3  C   UNL     1      33.724 -19.711 -20.815  0.00  0.00    -0.004 C 
ATOM      4  C   UNL     1      35.759 -20.773 -20.060  0.00  0.00    -0.004 C 
ATOM      5  C   UNL     1      32.973 -20.655 -20.115  0.00  0.00    -0.000 C 
ATOM      6  C   UNL     1      35.008 -21.716 -19.361  0.00  0.00    -0.000 C 
ATOM      7  C   UNL     1      33.614 -21.658 -19.389  0.00  0.00    -0.000 C 
ENDBRANCH   1   2
BRANCH   1   8
ATOM      8  C   UNL     1      35.113 -18.081 -22.645  0.00  0.00    +0.144 C 
BRANCH   8   9
ATOM      9  O   UNL     1      35.760 -18.327 -23.895  0.00  0.00    -0.382 OA
ATOM     10  H   UNL     1      35.096 -18.558 -24.563  0.00  0.00    +0.210 HD
ENDBRANCH   8   9
BRANCH   8  11
ATOM     11  C   UNL     1      35.046 -16.571 -22.428  0.00  0.00    +0.167 C 
BRANCH  11  12
ATOM     12  O   UNL     1      35.567 -15.894 -23.566  0.00  0.00    -0.379 OA
ATOM     13  H   UNL     1      34.836 -15.567 -24.113  0.00  0.00    +0.211 HD
ENDBRANCH  11  12
ENDBRANCH   8  11
ENDBRANCH   1   8
TORSDOF 5
ENDMDL
MODEL 2
REMARK VINA RESULT:      -6.6      0.043      1.458
REMARK  Name = 446127
REMARK  5 active torsions:
REMARK  status: ('A' for Active; 'I' for Inactive)
REMARK    1  A    between atoms: C_1  and  C_2
REMARK    2  A    between atoms: C_1  and  C_8
REMARK    3  A    between atoms: C_8  and  O_9
REMARK    4  A    between atoms: C_8  and  C_11
REMARK    5  A    between atoms: C_11  and  O_12
REMARK                            x       y       z     vdW  Elec       q    Type
REMARK                         _______ _______ _______ _____ _____    ______ ____
ROOT
ATOM      1  C   UNL     1      35.913 -18.755 -21.580  0.00  0.00    +0.058 C 
ENDROOT
BRANCH   1   2
ATOM      2  C   UNL     1      35.096 -19.770 -20.815  0.00  0.00    -0.020 C 
ATOM      3  C   UNL     1      35.745 -20.752 -20.085  0.00  0.00    -0.004 C 
ATOM      4  C   UNL     1      33.713 -19.698 -20.858  0.00  0.00    -0.004 C 
ATOM      5  C   UNL     1      34.991 -21.689 -19.380  0.00  0.00    -0.000 C 
ATOM      6  C   UNL     1      32.959 -20.635 -20.152  0.00  0.00    -0.000 C 
ATOM      7  C   UNL     1      33.597 -21.630 -19.413  0.00  0.00    -0.000 C 
ENDBRANCH   1   2
BRANCH   1   8
ATOM      8  C   UNL     1      35.095 -18.056 -22.671  0.00  0.00    +0.144 C 
BRANCH   8   9
ATOM      9  O   UNL     1      35.712 -18.310 -23.934  0.00  0.00    -0.382 OA
ATOM     10  H   UNL     1      36.644 -18.541 -23.799  0.00  0.00    +0.210 HD
ENDBRANCH   8   9
BRANCH   8  11
ATOM     11  C   UNL     1      35.062 -16.546 -22.447  0.00  0.00    +0.167 C 
BRANCH  11  12
ATOM     12  O   UNL     1      35.568 -15.874 -23.596  0.00  0.00    -0.379 OA
ATOM     13  H   UNL     1      36.508 -15.674 -23.467  0.00  0.00    +0.211 HD
ENDBRANCH  11  12
ENDBRANCH   8  11
ENDBRANCH   1   8
TORSDOF 5
ENDMDL
MODEL 3
REMARK VINA RESULT:      -6.6      1.030      2.058
REMARK  Name = 446127
REMARK  5 active torsions:
REMARK  status: ('A' for Active; 'I' for Inactive)
REMARK    1  A    between atoms: C_1  and  C_2
REMARK    2  A    between atoms: C_1  and  C_8
REMARK    3  A    between atoms: C_8  and  O_9
REMARK    4  A    between atoms: C_8  and  C_11
REMARK    5  A    between atoms: C_11  and  O_12
REMARK                            x       y       z     vdW  Elec       q    Type
REMARK                         _______ _______ _______ _____ _____    ______ ____
ROOT
ATOM      1  C   UNL     1      34.461 -17.901 -21.973  0.00  0.00    +0.058 C 
ENDROOT
BRANCH   1   2
ATOM      2  C   UNL     1      34.497 -19.162 -21.142  0.00  0.00    -0.020 C 
ATOM      3  C   UNL     1      35.720 -19.724 -20.815  0.00  0.00    -0.004 C 
ATOM      4  C   UNL     1      33.306 -19.733 -20.723  0.00  0.00    -0.004 C 
ATOM      5  C   UNL     1      35.753 -20.889 -20.048  0.00  0.00    -0.000 C 
ATOM      6  C   UNL     1      33.339 -20.897 -19.956  0.00  0.00    -0.000 C 
ATOM      7  C   UNL     1      34.563 -21.475 -19.618  0.00  0.00    -0.000 C 
ENDBRANCH   1   2
BRANCH   1   8
ATOM      8  C   UNL     1      35.389 -17.981 -23.189  0.00  0.00    +0.144 C 
BRANCH   8   9
ATOM      9  O   UNL     1      35.841 -16.663 -23.504  0.00  0.00    -0.382 OA
ATOM     10  H   UNL     1      36.804 -16.615 -23.391  0.00  0.00    +0.210 HD
ENDBRANCH   8   9
BRANCH   8  11
ATOM     11  C   UNL     1      34.650 -18.539 -24.404  0.00  0.00    +0.167 C 
BRANCH  11  12
ATOM     12  O   UNL     1      34.683 -17.593 -25.467  0.00  0.00    -0.379 OA
ATOM     13  H   UNL     1      34.205 -16.792 -25.204  0.00  0.00    +0.211 HD
ENDBRANCH  11  12
ENDBRANCH   8  11
ENDBRANCH   1   8
TORSDOF 5
ENDMDL
MODEL 4
REMARK VINA RESULT:      -6.6      1.028      1.574
REMARK  Name = 446127
REMARK  5 active torsions:
REMARK  status: ('A' for Active; 'I' for Inactive)
REMARK    1  A    between atoms: C_1  and  C_2
REMARK    2  A    between atoms: C_1  and  C_8
REMARK    3  A    between atoms: C_8  and  O_9
REMARK    4  A    between atoms: C_8  and  C_11
REMARK    5  A    between atoms: C_11  and  O_12
REMARK                            x       y       z     vdW  Elec       q    Type
REMARK                         _______ _______ _______ _____ _____    ______ ____
ROOT
ATOM      1  C   UNL     1      34.452 -17.910 -21.967  0.00  0.00    +0.058 C 
ENDROOT
BRANCH   1   2
ATOM      2  C   UNL     1      34.489 -19.172 -21.137  0.00  0.00    -0.020 C 
ATOM      3  C   UNL     1      33.300 -19.743 -20.717  0.00  0.00    -0.004 C 
ATOM      4  C   UNL     1      35.714 -19.734 -20.813  0.00  0.00    -0.004 C 
ATOM      5  C   UNL     1      33.334 -20.908 -19.951  0.00  0.00    -0.000 C 
ATOM      6  C   UNL     1      35.749 -20.899 -20.047  0.00  0.00    -0.000 C 
ATOM      7  C   UNL     1      34.559 -21.487 -19.617  0.00  0.00    -0.000 C 
ENDBRANCH   1   2
BRANCH   1   8
ATOM      8  C   UNL     1      35.378 -17.990 -23.185  0.00  0.00    +0.144 C 
BRANCH   8   9
ATOM      9  O   UNL     1      35.829 -16.672 -23.501  0.00  0.00    -0.382 OA
ATOM     10  H   UNL     1      35.415 -16.377 -24.328  0.00  0.00    +0.210 HD
ENDBRANCH   8   9
BRANCH   8  11
ATOM     11  C   UNL     1      34.638 -18.548 -24.399  0.00  0.00    +0.167 C 
BRANCH  11  12
ATOM     12  O   UNL     1      34.697 -17.617 -25.474  0.00  0.00    -0.379 OA
ATOM     13  H   UNL     1      35.576 -17.206 -25.499  0.00  0.00    +0.211 HD
ENDBRANCH  11  12
ENDBRANCH   8  11
ENDBRANCH   1   8
TORSDOF 5
ENDMDL
MODEL 5
REMARK VINA RESULT:      -6.2      8.621      9.507
REMARK  Name = 446127
REMARK  5 active torsions:
REMARK  status: ('A' for Active; 'I' for Inactive)
REMARK    1  A    between atoms: C_1  and  C_2
REMARK    2  A    between atoms: C_1  and  C_8
REMARK    3  A    between atoms: C_8  and  O_9
REMARK    4  A    between atoms: C_8  and  C_11
REMARK    5  A    between atoms: C_11  and  O_12
REMARK                            x       y       z     vdW  Elec       q    Type
REMARK                         _______ _______ _______ _____ _____    ______ ____
ROOT
ATOM      1  C   UNL     1      27.978 -23.245 -17.093  0.00  0.00    +0.058 C 
ENDROOT
BRANCH   1   2
ATOM      2  C   UNL     1      29.027 -23.525 -16.042  0.00  0.00    -0.020 C 
ATOM      3  C   UNL     1      29.974 -22.557 -15.752  0.00  0.00    -0.004 C 
ATOM      4  C   UNL     1      29.020 -24.747 -15.387  0.00  0.00    -0.004 C 
ATOM      5  C   UNL     1      30.941 -22.817 -14.782  0.00  0.00    -0.000 C 
ATOM      6  C   UNL     1      29.988 -25.007 -14.417  0.00  0.00    -0.000 C 
ATOM      7  C   UNL     1      30.948 -24.041 -14.114  0.00  0.00    -0.000 C 
ENDBRANCH   1   2
BRANCH   1   8
ATOM      8  C   UNL     1      27.153 -21.995 -16.769  0.00  0.00    +0.144 C 
BRANCH   8   9
ATOM      9  O   UNL     1      26.283 -22.296 -15.676  0.00  0.00    -0.382 OA
ATOM     10  H   UNL     1      25.681 -21.550 -15.527  0.00  0.00    +0.210 HD
ENDBRANCH   8   9
BRANCH   8  11
ATOM     11  C   UNL     1      26.298 -21.579 -17.964  0.00  0.00    +0.167 C 
BRANCH  11  12
ATOM     12  O   UNL     1      26.050 -20.178 -17.918  0.00  0.00    -0.379 OA
ATOM     13  H   UNL     1      26.891 -19.703 -17.831  0.00  0.00    +0.211 HD
ENDBRANCH  11  12
ENDBRANCH   8  11
ENDBRANCH   1   8
TORSDOF 5
ENDMDL
MODEL 6
REMARK VINA RESULT:      -6.0      8.158      9.216
REMARK  Name = 446127
REMARK  5 active torsions:
REMARK  status: ('A' for Active; 'I' for Inactive)
REMARK    1  A    between atoms: C_1  and  C_2
REMARK    2  A    between atoms: C_1  and  C_8
REMARK    3  A    between atoms: C_8  and  O_9
REMARK    4  A    between atoms: C_8  and  C_11
REMARK    5  A    between atoms: C_11  and  O_12
REMARK                            x       y       z     vdW  Elec       q    Type
REMARK                         _______ _______ _______ _____ _____    ______ ____
ROOT
ATOM      1  C   UNL     1      29.556 -22.851 -16.487  0.00  0.00    +0.058 C 
ENDROOT
BRANCH   1   2
ATOM      2  C   UNL     1      30.547 -23.511 -15.557  0.00  0.00    -0.020 C 
ATOM      3  C   UNL     1      31.889 -23.183 -15.651  0.00  0.00    -0.004 C 
ATOM      4  C   UNL     1      30.094 -24.433 -14.627  0.00  0.00    -0.004 C 
ATOM      5  C   UNL     1      32.804 -23.793 -14.793  0.00  0.00    -0.000 C 
ATOM      6  C   UNL     1      31.008 -25.044 -13.769  0.00  0.00    -0.000 C 
ATOM      7  C   UNL     1      32.363 -24.723 -13.851  0.00  0.00    -0.000 C 
ENDBRANCH   1   2
BRANCH   1   8
ATOM      8  C   UNL     1      28.139 -23.404 -16.310  0.00  0.00    +0.144 C 
BRANCH   8   9
ATOM      9  O   UNL     1      27.755 -24.067 -17.516  0.00  0.00    -0.382 OA
ATOM     10  H   UNL     1      26.808 -24.273 -17.485  0.00  0.00    +0.210 HD
ENDBRANCH   8   9
BRANCH   8  11
ATOM     11  C   UNL     1      27.142 -22.277 -16.044  0.00  0.00    +0.167 C 
BRANCH  11  12
ATOM     12  O   UNL     1      27.069 -21.417 -17.176  0.00  0.00    -0.379 OA
ATOM     13  H   UNL     1      27.768 -21.650 -17.805  0.00  0.00    +0.211 HD
ENDBRANCH  11  12
ENDBRANCH   8  11
ENDBRANCH   1   8
TORSDOF 5
ENDMDL
MODEL 7
REMARK VINA RESULT:      -6.0      2.691      5.080
REMARK  Name = 446127
REMARK  5 active torsions:
REMARK  status: ('A' for Active; 'I' for Inactive)
REMARK    1  A    between atoms: C_1  and  C_2
REMARK    2  A    between atoms: C_1  and  C_8
REMARK    3  A    between atoms: C_8  and  O_9
REMARK    4  A    between atoms: C_8  and  C_11
REMARK    5  A    between atoms: C_11  and  O_12
REMARK                            x       y       z     vdW  Elec       q    Type
REMARK                         _______ _______ _______ _____ _____    ______ ____
ROOT
ATOM      1  C   UNL     1      34.820 -19.077 -21.035  0.00  0.00    +0.058 C 
ENDROOT
BRANCH   1   2
ATOM      2  C   UNL     1      34.797 -18.396 -22.384  0.00  0.00    -0.020 C 
ATOM      3  C   UNL     1      34.637 -19.161 -23.527  0.00  0.00    -0.004 C 
ATOM      4  C   UNL     1      34.936 -17.019 -22.450  0.00  0.00    -0.004 C 
ATOM      5  C   UNL     1      34.616 -18.532 -24.772  0.00  0.00    -0.000 C 
ATOM      6  C   UNL     1      34.915 -16.390 -23.695  0.00  0.00    -0.000 C 
ATOM      7  C   UNL     1      34.755 -17.146 -24.856  0.00  0.00    -0.000 C 
ENDBRANCH   1   2
BRANCH   1   8
ATOM      8  C   UNL     1      33.702 -20.115 -20.891  0.00  0.00    +0.144 C 
BRANCH   8   9
ATOM      9  O   UNL     1      32.497 -19.438 -20.526  0.00  0.00    -0.382 OA
ATOM     10  H   UNL     1      32.511 -19.241 -19.577  0.00  0.00    +0.210 HD
ENDBRANCH   8   9
BRANCH   8  11
ATOM     11  C   UNL     1      34.033 -21.128 -19.797  0.00  0.00    +0.167 C 
BRANCH  11  12
ATOM     12  O   UNL     1      32.947 -22.032 -19.629  0.00  0.00    -0.379 OA
ATOM     13  H   UNL     1      33.007 -22.738 -20.291  0.00  0.00    +0.211 HD
ENDBRANCH  11  12
ENDBRANCH   8  11
ENDBRANCH   1   8
TORSDOF 5
ENDMDL
MODEL 8
REMARK VINA RESULT:      -5.9      7.023      8.547
REMARK  Name = 446127
REMARK  5 active torsions:
REMARK  status: ('A' for Active; 'I' for Inactive)
REMARK    1  A    between atoms: C_1  and  C_2
REMARK    2  A    between atoms: C_1  and  C_8
REMARK    3  A    between atoms: C_8  and  O_9
REMARK    4  A    between atoms: C_8  and  C_11
REMARK    5  A    between atoms: C_11  and  O_12
REMARK                            x       y       z     vdW  Elec       q    Type
REMARK                         _______ _______ _______ _____ _____    ______ ____
ROOT
ATOM      1  C   UNL     1      30.128 -22.861 -15.286  0.00  0.00    +0.058 C 
ENDROOT
BRANCH   1   2
ATOM      2  C   UNL     1      31.590 -23.056 -15.617  0.00  0.00    -0.020 C 
ATOM      3  C   UNL     1      32.498 -23.249 -14.590  0.00  0.00    -0.004 C 
ATOM      4  C   UNL     1      31.992 -23.039 -16.943  0.00  0.00    -0.004 C 
ATOM      5  C   UNL     1      33.847 -23.428 -14.896  0.00  0.00    -0.000 C 
ATOM      6  C   UNL     1      33.341 -23.218 -17.249  0.00  0.00    -0.000 C 
ATOM      7  C   UNL     1      34.268 -23.414 -16.226  0.00  0.00    -0.000 C 
ENDBRANCH   1   2
BRANCH   1   8
ATOM      8  C   UNL     1      29.238 -22.931 -16.531  0.00  0.00    +0.144 C 
BRANCH   8   9
ATOM      9  O   UNL     1      28.306 -21.849 -16.485  0.00  0.00    -0.382 OA
ATOM     10  H   UNL     1      27.404 -22.201 -16.423  0.00  0.00    +0.210 HD
ENDBRANCH   8   9
BRANCH   8  11
ATOM     11  C   UNL     1      28.452 -24.241 -16.568  0.00  0.00    +0.167 C 
BRANCH  11  12
ATOM     12  O   UNL     1      27.533 -24.223 -17.655  0.00  0.00    -0.379 OA
ATOM     13  H   UNL     1      27.278 -23.308 -17.849  0.00  0.00    +0.211 HD
ENDBRANCH  11  12
ENDBRANCH   8  11
ENDBRANCH   1   8
TORSDOF 5
ENDMDL
MODEL 9
REMARK VINA RESULT:      -5.9      6.967      8.452
REMARK  Name = 446127
REMARK  5 active torsions:
REMARK  status: ('A' for Active; 'I' for Inactive)
REMARK    1  A    between atoms: C_1  and  C_2
REMARK    2  A    between atoms: C_1  and  C_8
REMARK    3  A    between atoms: C_8  and  O_9
REMARK    4  A    between atoms: C_8  and  C_11
REMARK    5  A    between atoms: C_11  and  O_12
REMARK                            x       y       z     vdW  Elec       q    Type
REMARK                         _______ _______ _______ _____ _____    ______ ____
ROOT
ATOM      1  C   UNL     1      30.185 -22.942 -15.302  0.00  0.00    +0.058 C 
ENDROOT
BRANCH   1   2
ATOM      2  C   UNL     1      31.646 -23.086 -15.662  0.00  0.00    -0.020 C 
ATOM      3  C   UNL     1      32.022 -23.069 -16.995  0.00  0.00    -0.004 C 
ATOM      4  C   UNL     1      32.582 -23.231 -14.650  0.00  0.00    -0.004 C 
ATOM      5  C   UNL     1      33.370 -23.202 -17.326  0.00  0.00    -0.000 C 
ATOM      6  C   UNL     1      33.930 -23.364 -14.981  0.00  0.00    -0.000 C 
ATOM      7  C   UNL     1      34.324 -23.349 -16.319  0.00  0.00    -0.000 C 
ENDBRANCH   1   2
BRANCH   1   8
ATOM      8  C   UNL     1      29.279 -22.979 -16.537  0.00  0.00    +0.144 C 
BRANCH   8   9
ATOM      9  O   UNL     1      28.387 -21.864 -16.480  0.00  0.00    -0.382 OA
ATOM     10  H   UNL     1      27.474 -22.184 -16.407  0.00  0.00    +0.210 HD
ENDBRANCH   8   9
BRANCH   8  11
ATOM     11  C   UNL     1      28.447 -24.259 -16.566  0.00  0.00    +0.167 C 
BRANCH  11  12
ATOM     12  O   UNL     1      27.535 -24.220 -17.659  0.00  0.00    -0.379 OA
ATOM     13  H   UNL     1      27.314 -23.298 -17.863  0.00  0.00    +0.211 HD
ENDBRANCH  11  12
ENDBRANCH   8  11
ENDBRANCH   1   8
TORSDOF 5
ENDMDL
