MODEL 1
REMARK VINA RESULT:      -6.5      0.000      0.000
REMARK  Name = 126154
REMARK  0 active torsions:
REMARK  status: ('A' for Active; 'I' for Inactive)
REMARK                            x       y       z     vdW  Elec       q    Type
REMARK                         _______ _______ _______ _____ _____    ______ ____
ROOT
ATOM      1  O   PRO A   1      34.925 -15.390 -20.587  0.00  0.00    -0.273 OA
ATOM      2  O   GLY A   2      34.728 -16.698 -25.728  0.00  0.00    -0.273 OA
ATOM      3  N   PRO A   1      34.744 -17.336 -23.497  0.00  0.00    -0.272 N 
ATOM      4  N   GLY A   2      34.589 -14.794 -22.793  0.00  0.00    -0.295 N 
ATOM      5  CA  PRO A   1      34.230 -17.095 -22.155  0.00  0.00    +0.152 C 
ATOM      6  CB  PRO A   1      34.834 -18.222 -21.327  0.00  0.00    +0.031 C 
ATOM      7  CG  PRO A   1      34.933 -19.366 -22.334  0.00  0.00    +0.024 C 
ATOM      8  CD  PRO A   1      35.317 -18.663 -23.629  0.00  0.00    +0.094 C 
ATOM      9  C   PRO A   1      34.661 -15.701 -21.745  0.00  0.00    +0.241 C 
ATOM     10  C   GLY A   2      34.554 -16.447 -24.539  0.00  0.00    +0.246 C 
ATOM     11  CA  GLY A   2      33.976 -15.129 -24.067  0.00  0.00    +0.176 C 
ATOM     12  H   GLY A   2      34.965 -13.892 -22.669  0.00  0.00    +0.150 HD
ENDROOT
TORSDOF 0
ENDMDL
MODEL 2
REMARK VINA RESULT:      -6.4      1.824      2.566
REMARK  Name = 126154
REMARK  0 active torsions:
REMARK  status: ('A' for Active; 'I' for Inactive)
REMARK                            x       y       z     vdW  Elec       q    Type
REMARK                         _______ _______ _______ _____ _____    ______ ____
ROOT
ATOM      1  O   PRO A   1      35.727 -19.061 -20.673  0.00  0.00    -0.273 OA
ATOM      2  O   GLY A   2      34.470 -14.550 -23.173  0.00  0.00    -0.273 OA
ATOM      3  N   PRO A   1      34.666 -16.862 -23.188  0.00  0.00    -0.272 N 
ATOM      4  N   GLY A   2      35.217 -16.809 -20.604  0.00  0.00    -0.295 N 
ATOM      5  CA  PRO A   1      34.428 -18.112 -22.478  0.00  0.00    +0.152 C 
ATOM      6  CB  PRO A   1      34.866 -19.182 -23.469  0.00  0.00    +0.031 C 
ATOM      7  CG  PRO A   1      34.544 -18.545 -24.819  0.00  0.00    +0.024 C 
ATOM      8  CD  PRO A   1      34.886 -17.077 -24.607  0.00  0.00    +0.094 C 
ATOM      9  C   PRO A   1      35.229 -18.066 -21.193  0.00  0.00    +0.241 C 
ATOM     10  C   GLY A   2      34.538 -15.624 -22.584  0.00  0.00    +0.246 C 
ATOM     11  CA  GLY A   2      34.362 -15.738 -21.084  0.00  0.00    +0.176 C 
ATOM     12  H   GLY A   2      35.809 -16.638 -19.836  0.00  0.00    +0.150 HD
ENDROOT
TORSDOF 0
ENDMDL
MODEL 3
REMARK VINA RESULT:      -6.4      1.097      4.090
REMARK  Name = 126154
REMARK  0 active torsions:
REMARK  status: ('A' for Active; 'I' for Inactive)
REMARK                            x       y       z     vdW  Elec       q    Type
REMARK                         _______ _______ _______ _____ _____    ______ ____
ROOT
ATOM      1  O   PRO A   1      34.937 -16.633 -25.817  0.00  0.00    -0.273 OA
ATOM      2  O   GLY A   2      35.288 -16.812 -20.523  0.00  0.00    -0.273 OA
ATOM      3  N   PRO A   1      34.482 -15.790 -22.445  0.00  0.00    -0.272 N 
ATOM      4  N   GLY A   2      35.447 -17.787 -23.882  0.00  0.00    -0.295 N 
ATOM      5  CA  PRO A   1      33.866 -15.966 -23.754  0.00  0.00    +0.152 C 
ATOM      6  CB  PRO A   1      33.630 -14.541 -24.238  0.00  0.00    +0.031 C 
ATOM      7  CG  PRO A   1      33.377 -13.780 -22.939  0.00  0.00    +0.024 C 
ATOM      8  CD  PRO A   1      34.338 -14.431 -21.955  0.00  0.00    +0.094 C 
ATOM      9  C   PRO A   1      34.823 -16.778 -24.603  0.00  0.00    +0.241 C 
ATOM     10  C   GLY A   2      34.997 -16.846 -21.715  0.00  0.00    +0.246 C 
ATOM     11  CA  GLY A   2      35.055 -18.125 -22.525  0.00  0.00    +0.176 C 
ATOM     12  H   GLY A   2      36.180 -18.291 -24.305  0.00  0.00    +0.150 HD
ENDROOT
TORSDOF 0
ENDMDL
MODEL 4
REMARK VINA RESULT:      -6.4      1.169      3.072
REMARK  Name = 126154
REMARK  0 active torsions:
REMARK  status: ('A' for Active; 'I' for Inactive)
REMARK                            x       y       z     vdW  Elec       q    Type
REMARK                         _______ _______ _______ _____ _____    ______ ____
ROOT
ATOM      1  O   PRO A   1      33.203 -15.937 -26.211  0.00  0.00    -0.273 OA
ATOM      2  O   GLY A   2      34.661 -15.757 -21.111  0.00  0.00    -0.273 OA
ATOM      3  N   PRO A   1      34.582 -16.892 -23.133  0.00  0.00    -0.272 N 
ATOM      4  N   GLY A   2      33.584 -14.730 -24.280  0.00  0.00    -0.295 N 
ATOM      5  CA  PRO A   1      34.751 -16.823 -24.579  0.00  0.00    +0.152 C 
ATOM      6  CB  PRO A   1      34.545 -18.261 -25.038  0.00  0.00    +0.031 C 
ATOM      7  CG  PRO A   1      35.067 -19.072 -23.854  0.00  0.00    +0.024 C 
ATOM      8  CD  PRO A   1      34.624 -18.259 -22.646  0.00  0.00    +0.094 C 
ATOM      9  C   PRO A   1      33.736 -15.832 -25.111  0.00  0.00    +0.241 C 
ATOM     10  C   GLY A   2      34.542 -15.765 -22.332  0.00  0.00    +0.246 C 
ATOM     11  CA  GLY A   2      34.459 -14.490 -23.145  0.00  0.00    +0.176 C 
ATOM     12  H   GLY A   2      32.860 -14.090 -24.467  0.00  0.00    +0.150 HD
ENDROOT
TORSDOF 0
ENDMDL
MODEL 5
REMARK VINA RESULT:      -6.2     12.472     13.254
REMARK  Name = 126154
REMARK  0 active torsions:
REMARK  status: ('A' for Active; 'I' for Inactive)
REMARK                            x       y       z     vdW  Elec       q    Type
REMARK                         _______ _______ _______ _____ _____    ______ ____
ROOT
ATOM      1  O   PRO A   1      39.174 -23.295 -11.746  0.00  0.00    -0.273 OA
ATOM      2  O   GLY A   2      34.087 -24.550 -12.600  0.00  0.00    -0.273 OA
ATOM      3  N   PRO A   1      36.331 -24.803 -13.136  0.00  0.00    -0.272 N 
ATOM      4  N   GLY A   2      36.973 -23.318 -11.046  0.00  0.00    -0.295 N 
ATOM      5  CA  PRO A   1      37.691 -24.981 -12.644  0.00  0.00    +0.152 C 
ATOM      6  CB  PRO A   1      38.517 -25.153 -13.912  0.00  0.00    +0.031 C 
ATOM      7  CG  PRO A   1      37.538 -25.837 -14.863  0.00  0.00    +0.024 C 
ATOM      8  CD  PRO A   1      36.206 -25.177 -14.533  0.00  0.00    +0.094 C 
ATOM      9  C   PRO A   1      38.040 -23.761 -11.816  0.00  0.00    +0.241 C 
ATOM     10  C   GLY A   2      35.276 -24.464 -12.308  0.00  0.00    +0.246 C 
ATOM     11  CA  GLY A   2      35.743 -24.079 -10.919  0.00  0.00    +0.176 C 
ATOM     12  H   GLY A   2      37.053 -22.460 -10.569  0.00  0.00    +0.150 HD
ENDROOT
TORSDOF 0
ENDMDL
MODEL 6
REMARK VINA RESULT:      -6.2      2.063      2.764
REMARK  Name = 126154
REMARK  0 active torsions:
REMARK  status: ('A' for Active; 'I' for Inactive)
REMARK                            x       y       z     vdW  Elec       q    Type
REMARK                         _______ _______ _______ _____ _____    ______ ____
ROOT
ATOM      1  O   PRO A   1      33.201 -12.461 -23.430  0.00  0.00    -0.273 OA
ATOM      2  O   GLY A   2      34.554 -16.974 -25.875  0.00  0.00    -0.273 OA
ATOM      3  N   PRO A   1      34.194 -15.788 -23.913  0.00  0.00    -0.272 N 
ATOM      4  N   GLY A   2      33.265 -13.764 -25.335  0.00  0.00    -0.295 N 
ATOM      5  CA  PRO A   1      33.334 -14.863 -23.186  0.00  0.00    +0.152 C 
ATOM      6  CB  PRO A   1      33.978 -14.774 -21.809  0.00  0.00    +0.031 C 
ATOM      7  CG  PRO A   1      34.588 -16.162 -21.629  0.00  0.00    +0.024 C 
ATOM      8  CD  PRO A   1      35.087 -16.511 -23.025  0.00  0.00    +0.094 C 
ATOM      9  C   PRO A   1      33.303 -13.563 -23.962  0.00  0.00    +0.241 C 
ATOM     10  C   GLY A   2      34.048 -16.037 -25.266  0.00  0.00    +0.246 C 
ATOM     11  CA  GLY A   2      33.073 -15.081 -25.919  0.00  0.00    +0.176 C 
ATOM     12  H   GLY A   2      33.371 -12.989 -25.933  0.00  0.00    +0.150 HD
ENDROOT
TORSDOF 0
ENDMDL
MODEL 7
REMARK VINA RESULT:      -6.2      1.222      2.993
REMARK  Name = 126154
REMARK  0 active torsions:
REMARK  status: ('A' for Active; 'I' for Inactive)
REMARK                            x       y       z     vdW  Elec       q    Type
REMARK                         _______ _______ _______ _____ _____    ______ ____
ROOT
ATOM      1  O   PRO A   1      34.878 -16.865 -20.526  0.00  0.00    -0.273 OA
ATOM      2  O   GLY A   2      34.112 -17.612 -25.725  0.00  0.00    -0.273 OA
ATOM      3  N   PRO A   1      34.315 -16.173 -23.916  0.00  0.00    -0.272 N 
ATOM      4  N   GLY A   2      34.985 -18.224 -22.390  0.00  0.00    -0.295 N 
ATOM      5  CA  PRO A   1      35.049 -15.831 -22.705  0.00  0.00    +0.152 C 
ATOM      6  CB  PRO A   1      34.395 -14.537 -22.236  0.00  0.00    +0.031 C 
ATOM      7  CG  PRO A   1      33.965 -13.882 -23.547  0.00  0.00    +0.024 C 
ATOM      8  CD  PRO A   1      33.518 -15.060 -24.401  0.00  0.00    +0.094 C 
ATOM      9  C   PRO A   1      34.917 -16.996 -21.746  0.00  0.00    +0.241 C 
ATOM     10  C   GLY A   2      34.495 -17.370 -24.584  0.00  0.00    +0.246 C 
ATOM     11  CA  GLY A   2      35.343 -18.343 -23.793  0.00  0.00    +0.176 C 
ATOM     12  H   GLY A   2      34.783 -19.041 -21.879  0.00  0.00    +0.150 HD
ENDROOT
TORSDOF 0
ENDMDL
MODEL 8
REMARK VINA RESULT:      -6.2     11.592     12.784
REMARK  Name = 126154
REMARK  0 active torsions:
REMARK  status: ('A' for Active; 'I' for Inactive)
REMARK                            x       y       z     vdW  Elec       q    Type
REMARK                         _______ _______ _______ _____ _____    ______ ____
ROOT
ATOM      1  O   PRO A   1      37.804 -24.569 -11.431  0.00  0.00    -0.273 OA
ATOM      2  O   GLY A   2      36.769 -27.047 -16.010  0.00  0.00    -0.273 OA
ATOM      3  N   PRO A   1      36.416 -25.257 -14.576  0.00  0.00    -0.272 N 
ATOM      4  N   GLY A   2      38.355 -26.153 -13.019  0.00  0.00    -0.295 N 
ATOM      5  CA  PRO A   1      37.015 -24.262 -13.696  0.00  0.00    +0.152 C 
ATOM      6  CB  PRO A   1      35.834 -23.406 -13.258  0.00  0.00    +0.031 C 
ATOM      7  CG  PRO A   1      34.907 -23.464 -14.470  0.00  0.00    +0.024 C 
ATOM      8  CD  PRO A   1      35.068 -24.893 -14.971  0.00  0.00    +0.094 C 
ATOM      9  C   PRO A   1      37.714 -25.004 -12.576  0.00  0.00    +0.241 C 
ATOM     10  C   GLY A   2      37.127 -26.332 -15.079  0.00  0.00    +0.246 C 
ATOM     11  CA  GLY A   2      38.489 -26.469 -14.430  0.00  0.00    +0.176 C 
ATOM     12  H   GLY A   2      38.731 -26.775 -12.354  0.00  0.00    +0.150 HD
ENDROOT
TORSDOF 0
ENDMDL
MODEL 9
REMARK VINA RESULT:      -6.1      1.349      2.956
REMARK  Name = 126154
REMARK  0 active torsions:
REMARK  status: ('A' for Active; 'I' for Inactive)
REMARK                            x       y       z     vdW  Elec       q    Type
REMARK                         _______ _______ _______ _____ _____    ______ ____
ROOT
ATOM      1  O   PRO A   1      34.385 -18.650 -20.887  0.00  0.00    -0.273 OA
ATOM      2  O   GLY A   2      34.315 -16.835 -25.875  0.00  0.00    -0.273 OA
ATOM      3  N   PRO A   1      34.464 -16.426 -23.595  0.00  0.00    -0.272 N 
ATOM      4  N   GLY A   2      34.560 -19.030 -23.158  0.00  0.00    -0.295 N 
ATOM      5  CA  PRO A   1      35.049 -16.819 -22.320  0.00  0.00    +0.152 C 
ATOM      6  CB  PRO A   1      34.545 -15.762 -21.347  0.00  0.00    +0.031 C 
ATOM      7  CG  PRO A   1      34.429 -14.519 -22.227  0.00  0.00    +0.024 C 
ATOM      8  CD  PRO A   1      33.937 -15.073 -23.557  0.00  0.00    +0.094 C 
ATOM      9  C   PRO A   1      34.590 -18.231 -22.023  0.00  0.00    +0.241 C 
ATOM     10  C   GLY A   2      34.552 -17.211 -24.731  0.00  0.00    +0.246 C 
ATOM     11  CA  GLY A   2      35.105 -18.588 -24.430  0.00  0.00    +0.176 C 
ATOM     12  H   GLY A   2      34.156 -19.926 -23.099  0.00  0.00    +0.150 HD
ENDROOT
TORSDOF 0
ENDMDL
