MODEL 1
REMARK VINA RESULT:      -4.8      0.000      0.000
REMARK  Name = 47936
REMARK  6 active torsions:
REMARK  status: ('A' for Active; 'I' for Inactive)
REMARK    1  A    between atoms: C_5  and  O_21
REMARK    2  A    between atoms: C_8  and  O_23
REMARK    3  A    between atoms: C_9  and  O_25
REMARK    4  A    between atoms: C_10  and  O_29
REMARK    5  A    between atoms: C_18  and  C_27
REMARK    6  A    between atoms: O_29  and  C_31
REMARK                            x       y       z     vdW  Elec       q    Type
REMARK                         _______ _______ _______ _____ _____    ______ ____
ROOT
ATOM      1  O   UNL     1      36.871 -23.550 -14.665  0.00  0.00    -0.352 OA
ATOM      2  O   UNL     1      34.464 -25.174 -11.726  0.00  0.00    -0.293 OA
ATOM      3  C   UNL     1      33.047 -24.237 -14.200  0.00  0.00    +0.058 C 
ATOM      4  C   UNL     1      32.649 -23.207 -15.356  0.00  0.00    +0.036 C 
ATOM      5  C   UNL     1      34.582 -23.959 -13.832  0.00  0.00    +0.167 C 
ATOM      6  C   UNL     1      35.568 -24.059 -15.044  0.00  0.00    +0.160 C 
ATOM      7  C   UNL     1      31.115 -23.150 -15.744  0.00  0.00    +0.003 C 
ATOM      8  C   UNL     1      33.622 -23.220 -16.570  0.00  0.00    +0.153 C 
ATOM      9  C   UNL     1      32.062 -23.993 -12.988  0.00  0.00    +0.113 C 
ATOM     10  C   UNL     1      35.092 -23.071 -16.144  0.00  0.00    +0.222 C 
ATOM     11  C   UNL     1      30.273 -22.969 -14.458  0.00  0.00    +0.003 C 
ATOM     12  C   UNL     1      30.579 -23.998 -13.379  0.00  0.00    +0.029 C 
ATOM     13  C   UNL     1      32.882 -25.727 -14.596  0.00  0.00    +0.005 C 
ATOM     14  C   UNL     1      35.158 -24.744 -12.648  0.00  0.00    +0.180 C 
ATOM     15  C   UNL     1      35.819 -25.465 -15.628  0.00  0.00    +0.036 C 
ATOM     16  C   UNL     1      30.838 -21.903 -16.624  0.00  0.00    +0.000 C 
ATOM     17  C   UNL     1      30.583 -24.359 -16.537  0.00  0.00    +0.000 C 
ATOM     18  C   UNL     1      37.447 -23.942 -13.414  0.00  0.00    +0.118 C 
ATOM     19  C   UNL     1      36.650 -24.991 -12.631  0.00  0.00    +0.098 C 
ATOM     20  C   UNL     1      38.842 -24.491 -13.734  0.00  0.00    +0.035 C 
ENDROOT
BRANCH   5  21
ATOM     21  O   UNL     1      34.706 -22.605 -13.345  0.00  0.00    -0.377 OA
ATOM     22  H   UNL     1      34.486 -21.983 -14.057  0.00  0.00    +0.211 HD
ENDBRANCH   5  21
BRANCH   8  23
ATOM     23  O   UNL     1      33.438 -24.378 -17.369  0.00  0.00    -0.381 OA
ATOM     24  H   UNL     1      32.601 -24.806 -17.132  0.00  0.00    +0.210 HD
ENDBRANCH   8  23
BRANCH   9  25
ATOM     25  O   UNL     1      32.323 -22.745 -12.344  0.00  0.00    -0.384 OA
ATOM     26  H   UNL     1      32.647 -22.908 -11.445  0.00  0.00    +0.210 HD
ENDBRANCH   9  25
BRANCH  18  27
ATOM     27  C   UNL     1      37.628 -22.690 -12.597  0.00  0.00    +0.001 C 
ATOM     28  C   UNL     1      37.460 -22.630 -11.272  0.00  0.00    -0.003 C 
ENDBRANCH  18  27
BRANCH  10  29
ATOM     29  O   UNL     1      35.939 -23.121 -17.295  0.00  0.00    -0.447 OA
BRANCH  29  31
ATOM     30  O   UNL     1      37.207 -21.204 -17.061  0.00  0.00    -0.250 OA
ATOM     31  C   UNL     1      36.451 -21.925 -17.701  0.00  0.00    +0.318 C 
ATOM     32  C   UNL     1      35.949 -21.603 -19.075  0.00  0.00    +0.121 C 
ENDBRANCH  29  31
ENDBRANCH  10  29
TORSDOF 6
ENDMDL
MODEL 2
REMARK VINA RESULT:      -3.7      1.627      5.505
REMARK  Name = 47936
REMARK  6 active torsions:
REMARK  status: ('A' for Active; 'I' for Inactive)
REMARK    1  A    between atoms: C_5  and  O_21
REMARK    2  A    between atoms: C_8  and  O_23
REMARK    3  A    between atoms: C_9  and  O_25
REMARK    4  A    between atoms: C_10  and  O_29
REMARK    5  A    between atoms: C_18  and  C_27
REMARK    6  A    between atoms: O_29  and  C_31
REMARK                            x       y       z     vdW  Elec       q    Type
REMARK                         _______ _______ _______ _____ _____    ______ ____
ROOT
ATOM      1  O   UNL     1      33.656 -23.450 -15.388  0.00  0.00    -0.352 OA
ATOM      2  O   UNL     1      34.618 -24.759 -11.590  0.00  0.00    -0.293 OA
ATOM      3  C   UNL     1      36.914 -24.524 -13.508  0.00  0.00    +0.058 C 
ATOM      4  C   UNL     1      37.709 -24.764 -14.874  0.00  0.00    +0.036 C 
ATOM      5  C   UNL     1      35.360 -24.413 -13.882  0.00  0.00    +0.167 C 
ATOM      6  C   UNL     1      35.024 -23.303 -14.935  0.00  0.00    +0.160 C 
ATOM      7  C   UNL     1      39.247 -25.112 -14.736  0.00  0.00    +0.003 C 
ATOM      8  C   UNL     1      37.379 -23.722 -15.981  0.00  0.00    +0.153 C 
ATOM      9  C   UNL     1      37.238 -25.740 -12.551  0.00  0.00    +0.113 C 
ATOM     10  C   UNL     1      35.866 -23.571 -16.212  0.00  0.00    +0.222 C 
ATOM     11  C   UNL     1      39.416 -26.275 -13.728  0.00  0.00    +0.003 C 
ATOM     12  C   UNL     1      38.737 -26.024 -12.389  0.00  0.00    +0.029 C 
ATOM     13  C   UNL     1      37.345 -23.247 -12.741  0.00  0.00    +0.005 C 
ATOM     14  C   UNL     1      34.377 -24.311 -12.711  0.00  0.00    +0.180 C 
ATOM     15  C   UNL     1      35.160 -21.837 -14.473  0.00  0.00    +0.036 C 
ATOM     16  C   UNL     1      39.796 -25.630 -16.093  0.00  0.00    +0.000 C 
ATOM     17  C   UNL     1      40.161 -23.942 -14.325  0.00  0.00    +0.000 C 
ATOM     18  C   UNL     1      32.614 -23.678 -14.432  0.00  0.00    +0.118 C 
ATOM     19  C   UNL     1      33.053 -23.622 -12.965  0.00  0.00    +0.098 C 
ATOM     20  C   UNL     1      31.549 -22.605 -14.689  0.00  0.00    +0.035 C 
ENDROOT
BRANCH   5  21
ATOM     21  O   UNL     1      34.936 -25.656 -14.483  0.00  0.00    -0.377 OA
ATOM     22  H   UNL     1      35.709 -26.127 -14.833  0.00  0.00    +0.211 HD
ENDBRANCH   5  21
BRANCH   8  23
ATOM     23  O   UNL     1      37.981 -22.466 -15.709  0.00  0.00    -0.381 OA
ATOM     24  H   UNL     1      38.244 -22.429 -14.776  0.00  0.00    +0.210 HD
ENDBRANCH   8  23
BRANCH   9  25
ATOM     25  O   UNL     1      36.630 -26.947 -13.014  0.00  0.00    -0.384 OA
ATOM     26  H   UNL     1      35.665 -26.859 -12.971  0.00  0.00    +0.210 HD
ENDBRANCH   9  25
BRANCH  18  27
ATOM     27  C   UNL     1      32.000 -25.014 -14.755  0.00  0.00    +0.001 C 
ATOM     28  C   UNL     1      30.705 -25.303 -14.590  0.00  0.00    -0.003 C 
ENDBRANCH  18  27
BRANCH  10  29
ATOM     29  O   UNL     1      35.624 -22.581 -17.215  0.00  0.00    -0.447 OA
BRANCH  29  31
ATOM     30  O   UNL     1      33.941 -23.885 -18.113  0.00  0.00    -0.250 OA
ATOM     31  C   UNL     1      34.654 -22.889 -18.122  0.00  0.00    +0.318 C 
ATOM     32  C   UNL     1      34.577 -21.811 -19.161  0.00  0.00    +0.121 C 
ENDBRANCH  29  31
ENDBRANCH  10  29
TORSDOF 6
ENDMDL
MODEL 3
REMARK VINA RESULT:      -2.8      1.451      4.375
REMARK  Name = 47936
REMARK  6 active torsions:
REMARK  status: ('A' for Active; 'I' for Inactive)
REMARK    1  A    between atoms: C_5  and  O_21
REMARK    2  A    between atoms: C_8  and  O_23
REMARK    3  A    between atoms: C_9  and  O_25
REMARK    4  A    between atoms: C_10  and  O_29
REMARK    5  A    between atoms: C_18  and  C_27
REMARK    6  A    between atoms: O_29  and  C_31
REMARK                            x       y       z     vdW  Elec       q    Type
REMARK                         _______ _______ _______ _____ _____    ______ ____
ROOT
ATOM      1  O   UNL     1      36.911 -24.882 -13.550  0.00  0.00    -0.352 OA
ATOM      2  O   UNL     1      36.590 -22.730 -17.061  0.00  0.00    -0.293 OA
ATOM      3  C   UNL     1      34.021 -23.201 -15.583  0.00  0.00    +0.058 C 
ATOM      4  C   UNL     1      32.899 -24.063 -14.837  0.00  0.00    +0.036 C 
ATOM      5  C   UNL     1      35.433 -23.889 -15.261  0.00  0.00    +0.167 C 
ATOM      6  C   UNL     1      35.751 -24.034 -13.735  0.00  0.00    +0.160 C 
ATOM      7  C   UNL     1      31.397 -23.697 -15.177  0.00  0.00    +0.003 C 
ATOM      8  C   UNL     1      33.184 -24.287 -13.325  0.00  0.00    +0.153 C 
ATOM      9  C   UNL     1      33.669 -23.195 -17.124  0.00  0.00    +0.113 C 
ATOM     10  C   UNL     1      34.598 -24.835 -13.070  0.00  0.00    +0.222 C 
ATOM     11  C   UNL     1      31.215 -23.670 -16.714  0.00  0.00    +0.003 C 
ATOM     12  C   UNL     1      32.223 -22.783 -17.432  0.00  0.00    +0.029 C 
ATOM     13  C   UNL     1      34.070 -21.714 -15.148  0.00  0.00    +0.005 C 
ATOM     14  C   UNL     1      36.658 -23.312 -15.979  0.00  0.00    +0.180 C 
ATOM     15  C   UNL     1      36.050 -22.735 -12.956  0.00  0.00    +0.036 C 
ATOM     16  C   UNL     1      30.450 -24.806 -14.646  0.00  0.00    +0.000 C 
ATOM     17  C   UNL     1      30.882 -22.374 -14.579  0.00  0.00    +0.000 C 
ATOM     18  C   UNL     1      38.069 -24.684 -14.368  0.00  0.00    +0.118 C 
ATOM     19  C   UNL     1      38.004 -23.475 -15.308  0.00  0.00    +0.098 C 
ATOM     20  C   UNL     1      39.254 -24.524 -13.409  0.00  0.00    +0.035 C 
ENDROOT
BRANCH   5  21
ATOM     21  O   UNL     1      35.423 -25.236 -15.783  0.00  0.00    -0.377 OA
ATOM     22  H   UNL     1      34.586 -25.667 -15.551  0.00  0.00    +0.211 HD
ENDBRANCH   5  21
BRANCH   8  23
ATOM     23  O   UNL     1      32.952 -23.107 -12.572  0.00  0.00    -0.381 OA
ATOM     24  H   UNL     1      33.635 -22.450 -12.781  0.00  0.00    +0.210 HD
ENDBRANCH   8  23
BRANCH   9  25
ATOM     25  O   UNL     1      33.874 -24.480 -17.713  0.00  0.00    -0.384 OA
ATOM     26  H   UNL     1      33.276 -24.588 -18.469  0.00  0.00    +0.210 HD
ENDBRANCH   9  25
BRANCH  18  27
ATOM     27  C   UNL     1      38.284 -25.955 -15.147  0.00  0.00    +0.001 C 
ATOM     28  C   UNL     1      37.685 -27.117 -14.865  0.00  0.00    -0.003 C 
ENDBRANCH  18  27
BRANCH  10  29
ATOM     29  O   UNL     1      34.813 -24.991 -11.664  0.00  0.00    -0.447 OA
BRANCH  29  31
ATOM     30  O   UNL     1      36.737 -26.268 -11.593  0.00  0.00    -0.250 OA
ATOM     31  C   UNL     1      36.095 -25.269 -11.293  0.00  0.00    +0.318 C 
ATOM     32  C   UNL     1      36.625 -24.154 -10.445  0.00  0.00    +0.121 C 
ENDBRANCH  29  31
ENDBRANCH  10  29
TORSDOF 6
ENDMDL
MODEL 4
REMARK VINA RESULT:      -2.3     11.236     14.353
REMARK  Name = 47936
REMARK  6 active torsions:
REMARK  status: ('A' for Active; 'I' for Inactive)
REMARK    1  A    between atoms: C_5  and  O_21
REMARK    2  A    between atoms: C_8  and  O_23
REMARK    3  A    between atoms: C_9  and  O_25
REMARK    4  A    between atoms: C_10  and  O_29
REMARK    5  A    between atoms: C_18  and  C_27
REMARK    6  A    between atoms: O_29  and  C_31
REMARK                            x       y       z     vdW  Elec       q    Type
REMARK                         _______ _______ _______ _____ _____    ______ ____
ROOT
ATOM      1  O   UNL     1      34.353 -14.043 -23.940  0.00  0.00    -0.352 OA
ATOM      2  O   UNL     1      31.505 -14.620 -21.005  0.00  0.00    -0.293 OA
ATOM      3  C   UNL     1      31.973 -11.771 -21.823  0.00  0.00    +0.058 C 
ATOM      4  C   UNL     1      32.835 -10.460 -22.129  0.00  0.00    +0.036 C 
ATOM      5  C   UNL     1      32.868 -13.032 -22.246  0.00  0.00    +0.167 C 
ATOM      6  C   UNL     1      33.358 -13.010 -23.733  0.00  0.00    +0.160 C 
ATOM      7  C   UNL     1      32.238  -9.092 -21.601  0.00  0.00    +0.003 C 
ATOM      8  C   UNL     1      33.395 -10.403 -23.579  0.00  0.00    +0.153 C 
ATOM      9  C   UNL     1      31.611 -11.753 -20.284  0.00  0.00    +0.113 C 
ATOM     10  C   UNL     1      34.142 -11.690 -23.970  0.00  0.00    +0.222 C 
ATOM     11  C   UNL     1      31.877  -9.241 -20.103  0.00  0.00    +0.003 C 
ATOM     12  C   UNL     1      30.982 -10.437 -19.807  0.00  0.00    +0.029 C 
ATOM     13  C   UNL     1      30.622 -11.831 -22.582  0.00  0.00    +0.005 C 
ATOM     14  C   UNL     1      32.300 -14.417 -21.922  0.00  0.00    +0.180 C 
ATOM     15  C   UNL     1      32.290 -13.228 -24.824  0.00  0.00    +0.036 C 
ATOM     16  C   UNL     1      33.317  -7.979 -21.679  0.00  0.00    +0.000 C 
ATOM     17  C   UNL     1      31.016  -8.557 -22.370  0.00  0.00    +0.000 C 
ATOM     18  C   UNL     1      34.125 -15.358 -23.423  0.00  0.00    +0.118 C 
ATOM     19  C   UNL     1      32.750 -15.578 -22.783  0.00  0.00    +0.098 C 
ATOM     20  C   UNL     1      34.302 -16.323 -24.602  0.00  0.00    +0.035 C 
ENDROOT
BRANCH   5  21
ATOM     21  O   UNL     1      34.070 -13.038 -21.443  0.00  0.00    -0.377 OA
ATOM     22  H   UNL     1      34.805 -12.668 -21.958  0.00  0.00    +0.211 HD
ENDBRANCH   5  21
BRANCH   8  23
ATOM     23  O   UNL     1      32.376 -10.101 -24.518  0.00  0.00    -0.381 OA
ATOM     24  H   UNL     1      31.672  -9.596 -24.081  0.00  0.00    +0.210 HD
ENDBRANCH   8  23
BRANCH   9  25
ATOM     25  O   UNL     1      32.762 -11.987 -19.473  0.00  0.00    -0.384 OA
ATOM     26  H   UNL     1      33.080 -12.892 -19.618  0.00  0.00    +0.210 HD
ENDBRANCH   9  25
BRANCH  18  27
ATOM     27  C   UNL     1      35.225 -15.643 -22.435  0.00  0.00    +0.001 C 
ATOM     28  C   UNL     1      35.224 -16.681 -21.592  0.00  0.00    -0.003 C 
ENDBRANCH  18  27
BRANCH  10  29
ATOM     29  O   UNL     1      34.606 -11.592 -25.319  0.00  0.00    -0.447 OA
BRANCH  29  31
ATOM     30  O   UNL     1      35.460  -9.488 -24.890  0.00  0.00    -0.250 OA
ATOM     31  C   UNL     1      35.301 -10.458 -25.620  0.00  0.00    +0.318 C 
ATOM     32  C   UNL     1      35.859 -10.564 -27.006  0.00  0.00    +0.121 C 
ENDBRANCH  29  31
ENDBRANCH  10  29
TORSDOF 6
ENDMDL
