MODEL 1
REMARK VINA RESULT:      -4.6      0.000      0.000
REMARK  Name = 1646
REMARK  4 active torsions:
REMARK  status: ('A' for Active; 'I' for Inactive)
REMARK    1  A    between atoms: C_1  and  C_2
REMARK    2  A    between atoms: C_1  and  C_7
REMARK    3  A    between atoms: C_2  and  S_3
REMARK    4  A    between atoms: C_7  and  N_8
REMARK                            x       y       z     vdW  Elec       q    Type
REMARK                         _______ _______ _______ _____ _____    ______ ____
ROOT
ATOM      1  C   UNL     1      41.161 -14.046 -17.974  0.00  0.00    +0.002 C 
ENDROOT
BRANCH   1   2
ATOM      2  C   UNL     1      41.877 -15.373 -18.181  0.00  0.00    +0.156 C 
BRANCH   2   3
ATOM      3  S   UNL     1      41.789 -16.384 -16.738  0.00  0.00    +0.022 S 
ATOM      4  O   UNL     1      43.283 -16.065 -16.165  0.00  0.00    -0.069 OA
ATOM      5  O   UNL     1      41.732 -17.778 -17.142  0.00  0.00    -0.069 OA
ATOM      6  O   UNL     1      40.811 -15.816 -15.829  0.00  0.00    -0.069 OA
ENDBRANCH   2   3
ENDBRANCH   1   2
BRANCH   1   7
ATOM      7  C   UNL     1      42.125 -12.974 -17.469  0.00  0.00    -0.084 C 
BRANCH   7   8
ATOM      8  N   UNL     1      42.177 -12.986 -16.011  0.00  0.00    +0.380 N 
ATOM      9  H   UNL     1      41.470 -12.352 -15.641  0.00  0.00    -0.089 HD
ATOM     10  H   UNL     1      43.101 -12.684 -15.702  0.00  0.00    -0.089 HD
ATOM     11  H   UNL     1      41.998 -13.932 -15.673  0.00  0.00    -0.089 HD
ENDBRANCH   7   8
ENDBRANCH   1   7
TORSDOF 4
ENDMDL
MODEL 2
REMARK VINA RESULT:      -4.6     15.275     15.789
REMARK  Name = 1646
REMARK  4 active torsions:
REMARK  status: ('A' for Active; 'I' for Inactive)
REMARK    1  A    between atoms: C_1  and  C_2
REMARK    2  A    between atoms: C_1  and  C_7
REMARK    3  A    between atoms: C_2  and  S_3
REMARK    4  A    between atoms: C_7  and  N_8
REMARK                            x       y       z     vdW  Elec       q    Type
REMARK                         _______ _______ _______ _____ _____    ______ ____
ROOT
ATOM      1  C   UNL     1      30.234 -24.044 -15.580  0.00  0.00    +0.002 C 
ENDROOT
BRANCH   1   2
ATOM      2  C   UNL     1      28.719 -24.170 -15.527  0.00  0.00    +0.156 C 
BRANCH   2   3
ATOM      3  S   UNL     1      27.935 -22.923 -16.498  0.00  0.00    +0.022 S 
ATOM      4  O   UNL     1      27.504 -23.872 -17.753  0.00  0.00    -0.069 OA
ATOM      5  O   UNL     1      28.939 -21.977 -16.951  0.00  0.00    -0.069 OA
ATOM      6  O   UNL     1      26.732 -22.485 -15.812  0.00  0.00    -0.069 OA
ENDBRANCH   2   3
ENDBRANCH   1   2
BRANCH   1   7
ATOM      7  C   UNL     1      30.817 -23.815 -14.188  0.00  0.00    -0.084 C 
BRANCH   7   8
ATOM      8  N   UNL     1      30.649 -25.008 -13.366  0.00  0.00    +0.380 N 
ATOM      9  H   UNL     1      29.666 -25.277 -13.354  0.00  0.00    -0.089 HD
ATOM     10  H   UNL     1      30.960 -24.812 -12.414  0.00  0.00    -0.089 HD
ATOM     11  H   UNL     1      31.206 -25.770 -13.755  0.00  0.00    -0.089 HD
ENDBRANCH   7   8
ENDBRANCH   1   7
TORSDOF 4
ENDMDL
MODEL 3
REMARK VINA RESULT:      -4.5     15.196     15.688
REMARK  Name = 1646
REMARK  4 active torsions:
REMARK  status: ('A' for Active; 'I' for Inactive)
REMARK    1  A    between atoms: C_1  and  C_2
REMARK    2  A    between atoms: C_1  and  C_7
REMARK    3  A    between atoms: C_2  and  S_3
REMARK    4  A    between atoms: C_7  and  N_8
REMARK                            x       y       z     vdW  Elec       q    Type
REMARK                         _______ _______ _______ _____ _____    ______ ____
ROOT
ATOM      1  C   UNL     1      30.370 -23.286 -15.019  0.00  0.00    +0.002 C 
ENDROOT
BRANCH   1   2
ATOM      2  C   UNL     1      29.158 -24.111 -15.426  0.00  0.00    +0.156 C 
BRANCH   2   3
ATOM      3  S   UNL     1      28.207 -23.290 -16.665  0.00  0.00    +0.022 S 
ATOM      4  O   UNL     1      27.005 -22.764 -15.696  0.00  0.00    -0.069 OA
ATOM      5  O   UNL     1      27.670 -24.280 -17.581  0.00  0.00    -0.069 OA
ATOM      6  O   UNL     1      28.956 -22.141 -17.143  0.00  0.00    -0.069 OA
ENDBRANCH   2   3
ENDBRANCH   1   2
BRANCH   1   7
ATOM      7  C   UNL     1      30.840 -23.656 -13.615  0.00  0.00    -0.084 C 
BRANCH   7   8
ATOM      8  N   UNL     1      30.326 -24.967 -13.237  0.00  0.00    +0.380 N 
ATOM      9  H   UNL     1      31.013 -25.448 -12.656  0.00  0.00    -0.089 HD
ATOM     10  H   UNL     1      30.145 -25.517 -14.077  0.00  0.00    -0.089 HD
ATOM     11  H   UNL     1      29.458 -24.853 -12.712  0.00  0.00    -0.089 HD
ENDBRANCH   7   8
ENDBRANCH   1   7
TORSDOF 4
ENDMDL
MODEL 4
REMARK VINA RESULT:      -4.5     15.568     15.903
REMARK  Name = 1646
REMARK  4 active torsions:
REMARK  status: ('A' for Active; 'I' for Inactive)
REMARK    1  A    between atoms: C_1  and  C_2
REMARK    2  A    between atoms: C_1  and  C_7
REMARK    3  A    between atoms: C_2  and  S_3
REMARK    4  A    between atoms: C_7  and  N_8
REMARK                            x       y       z     vdW  Elec       q    Type
REMARK                         _______ _______ _______ _____ _____    ______ ____
ROOT
ATOM      1  C   UNL     1      30.022 -23.316 -15.108  0.00  0.00    +0.002 C 
ENDROOT
BRANCH   1   2
ATOM      2  C   UNL     1      29.698 -22.793 -16.500  0.00  0.00    +0.156 C 
BRANCH   2   3
ATOM      3  S   UNL     1      27.968 -22.882 -16.835  0.00  0.00    +0.022 S 
ATOM      4  O   UNL     1      27.462 -23.055 -15.293  0.00  0.00    -0.069 OA
ATOM      5  O   UNL     1      27.690 -24.111 -17.557  0.00  0.00    -0.069 OA
ATOM      6  O   UNL     1      27.521 -21.592 -17.330  0.00  0.00    -0.069 OA
ENDBRANCH   2   3
ENDBRANCH   1   2
BRANCH   1   7
ATOM      7  C   UNL     1      30.232 -24.828 -15.123  0.00  0.00    -0.084 C 
BRANCH   7   8
ATOM      8  N   UNL     1      29.164 -25.495 -14.388  0.00  0.00    +0.380 N 
ATOM      9  H   UNL     1      29.129 -26.479 -14.657  0.00  0.00    -0.089 HD
ATOM     10  H   UNL     1      28.272 -25.051 -14.606  0.00  0.00    -0.089 HD
ATOM     11  H   UNL     1      29.345 -25.423 -13.386  0.00  0.00    -0.089 HD
ENDBRANCH   7   8
ENDBRANCH   1   7
TORSDOF 4
ENDMDL
MODEL 5
REMARK VINA RESULT:      -4.4     10.255     10.956
REMARK  Name = 1646
REMARK  4 active torsions:
REMARK  status: ('A' for Active; 'I' for Inactive)
REMARK    1  A    between atoms: C_1  and  C_2
REMARK    2  A    between atoms: C_1  and  C_7
REMARK    3  A    between atoms: C_2  and  S_3
REMARK    4  A    between atoms: C_7  and  N_8
REMARK                            x       y       z     vdW  Elec       q    Type
REMARK                         _______ _______ _______ _____ _____    ______ ____
ROOT
ATOM      1  C   UNL     1      38.073 -24.923 -13.680  0.00  0.00    +0.002 C 
ENDROOT
BRANCH   1   2
ATOM      2  C   UNL     1      38.838 -26.171 -14.096  0.00  0.00    +0.156 C 
BRANCH   2   3
ATOM      3  S   UNL     1      40.471 -25.775 -14.634  0.00  0.00    +0.022 S 
ATOM      4  O   UNL     1      41.249 -26.976 -13.850  0.00  0.00    -0.069 OA
ATOM      5  O   UNL     1      40.865 -24.505 -14.052  0.00  0.00    -0.069 OA
ATOM      6  O   UNL     1      40.563 -26.017 -16.063  0.00  0.00    -0.069 OA
ENDBRANCH   2   3
ENDBRANCH   1   2
BRANCH   1   7
ATOM      7  C   UNL     1      37.306 -24.329 -14.859  0.00  0.00    -0.084 C 
BRANCH   7   8
ATOM      8  N   UNL     1      38.225 -23.671 -15.781  0.00  0.00    +0.380 N 
ATOM      9  H   UNL     1      37.776 -23.569 -16.692  0.00  0.00    -0.089 HD
ATOM     10  H   UNL     1      39.070 -24.234 -15.879  0.00  0.00    -0.089 HD
ATOM     11  H   UNL     1      38.470 -22.750 -15.417  0.00  0.00    -0.089 HD
ENDBRANCH   7   8
ENDBRANCH   1   7
TORSDOF 4
ENDMDL
MODEL 6
REMARK VINA RESULT:      -4.4     11.449     12.021
REMARK  Name = 1646
REMARK  4 active torsions:
REMARK  status: ('A' for Active; 'I' for Inactive)
REMARK    1  A    between atoms: C_1  and  C_2
REMARK    2  A    between atoms: C_1  and  C_7
REMARK    3  A    between atoms: C_2  and  S_3
REMARK    4  A    between atoms: C_7  and  N_8
REMARK                            x       y       z     vdW  Elec       q    Type
REMARK                         _______ _______ _______ _____ _____    ______ ____
ROOT
ATOM      1  C   UNL     1      37.153 -26.170 -12.974  0.00  0.00    +0.002 C 
ENDROOT
BRANCH   1   2
ATOM      2  C   UNL     1      38.065 -25.059 -12.474  0.00  0.00    +0.156 C 
BRANCH   2   3
ATOM      3  S   UNL     1      37.137 -23.721 -11.795  0.00  0.00    +0.022 S 
ATOM      4  O   UNL     1      38.371 -22.665 -11.638  0.00  0.00    -0.069 OA
ATOM      5  O   UNL     1      36.671 -24.094 -10.471  0.00  0.00    -0.069 OA
ATOM      6  O   UNL     1      36.224 -23.223 -12.809  0.00  0.00    -0.069 OA
ENDBRANCH   2   3
ENDBRANCH   1   2
BRANCH   1   7
ATOM      7  C   UNL     1      37.388 -26.450 -14.456  0.00  0.00    -0.084 C 
BRANCH   7   8
ATOM      8  N   UNL     1      36.153 -26.904 -15.087  0.00  0.00    +0.380 N 
ATOM      9  H   UNL     1      36.278 -27.855 -15.432  0.00  0.00    -0.089 HD
ATOM     10  H   UNL     1      35.922 -26.287 -15.866  0.00  0.00    -0.089 HD
ATOM     11  H   UNL     1      35.397 -26.886 -14.403  0.00  0.00    -0.089 HD
ENDBRANCH   7   8
ENDBRANCH   1   7
TORSDOF 4
ENDMDL
MODEL 7
REMARK VINA RESULT:      -4.4     11.677     12.216
REMARK  Name = 1646
REMARK  4 active torsions:
REMARK  status: ('A' for Active; 'I' for Inactive)
REMARK    1  A    between atoms: C_1  and  C_2
REMARK    2  A    between atoms: C_1  and  C_7
REMARK    3  A    between atoms: C_2  and  S_3
REMARK    4  A    between atoms: C_7  and  N_8
REMARK                            x       y       z     vdW  Elec       q    Type
REMARK                         _______ _______ _______ _____ _____    ______ ____
ROOT
ATOM      1  C   UNL     1      35.926 -23.561 -13.639  0.00  0.00    +0.002 C 
ENDROOT
BRANCH   1   2
ATOM      2  C   UNL     1      35.103 -23.899 -12.404  0.00  0.00    +0.156 C 
BRANCH   2   3
ATOM      3  S   UNL     1      36.137 -24.252 -11.019  0.00  0.00    +0.022 S 
ATOM      4  O   UNL     1      36.761 -25.654 -11.572  0.00  0.00    -0.069 OA
ATOM      5  O   UNL     1      35.302 -24.535  -9.866  0.00  0.00    -0.069 OA
ATOM      6  O   UNL     1      37.198 -23.261 -10.963  0.00  0.00    -0.069 OA
ENDBRANCH   2   3
ENDBRANCH   1   2
BRANCH   1   7
ATOM      7  C   UNL     1      35.563 -24.473 -14.808  0.00  0.00    -0.084 C 
BRANCH   7   8
ATOM      8  N   UNL     1      35.823 -25.866 -14.463  0.00  0.00    +0.380 N 
ATOM      9  H   UNL     1      34.938 -26.347 -14.301  0.00  0.00    -0.089 HD
ATOM     10  H   UNL     1      36.392 -25.907 -13.618  0.00  0.00    -0.089 HD
ATOM     11  H   UNL     1      36.320 -26.319 -15.231  0.00  0.00    -0.089 HD
ENDBRANCH   7   8
ENDBRANCH   1   7
TORSDOF 4
ENDMDL
MODEL 8
REMARK VINA RESULT:      -4.4     10.811     11.311
REMARK  Name = 1646
REMARK  4 active torsions:
REMARK  status: ('A' for Active; 'I' for Inactive)
REMARK    1  A    between atoms: C_1  and  C_2
REMARK    2  A    between atoms: C_1  and  C_7
REMARK    3  A    between atoms: C_2  and  S_3
REMARK    4  A    between atoms: C_7  and  N_8
REMARK                            x       y       z     vdW  Elec       q    Type
REMARK                         _______ _______ _______ _____ _____    ______ ____
ROOT
ATOM      1  C   UNL     1      38.898 -25.402 -13.255  0.00  0.00    +0.002 C 
ENDROOT
BRANCH   1   2
ATOM      2  C   UNL     1      37.652 -25.401 -12.381  0.00  0.00    +0.156 C 
BRANCH   2   3
ATOM      3  S   UNL     1      37.361 -23.810 -11.678  0.00  0.00    +0.022 S 
ATOM      4  O   UNL     1      36.391 -23.232 -12.856  0.00  0.00    -0.069 OA
ATOM      5  O   UNL     1      38.602 -23.057 -11.684  0.00  0.00    -0.069 OA
ATOM      6  O   UNL     1      36.577 -23.971 -10.467  0.00  0.00    -0.069 OA
ENDBRANCH   2   3
ENDBRANCH   1   2
BRANCH   1   7
ATOM      7  C   UNL     1      38.537 -25.577 -14.728  0.00  0.00    -0.084 C 
BRANCH   7   8
ATOM      8  N   UNL     1      38.113 -24.304 -15.300  0.00  0.00    +0.380 N 
ATOM      9  H   UNL     1      38.795 -23.582 -15.068  0.00  0.00    -0.089 HD
ATOM     10  H   UNL     1      37.202 -24.046 -14.920  0.00  0.00    -0.089 HD
ATOM     11  H   UNL     1      38.044 -24.394 -16.315  0.00  0.00    -0.089 HD
ENDBRANCH   7   8
ENDBRANCH   1   7
TORSDOF 4
ENDMDL
MODEL 9
REMARK VINA RESULT:      -4.4      9.957     10.549
REMARK  Name = 1646
REMARK  4 active torsions:
REMARK  status: ('A' for Active; 'I' for Inactive)
REMARK    1  A    between atoms: C_1  and  C_2
REMARK    2  A    between atoms: C_1  and  C_7
REMARK    3  A    between atoms: C_2  and  S_3
REMARK    4  A    between atoms: C_7  and  N_8
REMARK                            x       y       z     vdW  Elec       q    Type
REMARK                         _______ _______ _______ _____ _____    ______ ____
ROOT
ATOM      1  C   UNL     1      33.420 -20.568 -20.246  0.00  0.00    +0.002 C 
ENDROOT
BRANCH   1   2
ATOM      2  C   UNL     1      34.515 -21.397 -19.591  0.00  0.00    +0.156 C 
BRANCH   2   3
ATOM      3  S   UNL     1      33.838 -22.648 -18.547  0.00  0.00    +0.022 S 
ATOM      4  O   UNL     1      33.971 -23.893 -19.594  0.00  0.00    -0.069 OA
ATOM      5  O   UNL     1      32.429 -22.370 -18.330  0.00  0.00    -0.069 OA
ATOM      6  O   UNL     1      34.747 -22.874 -17.438  0.00  0.00    -0.069 OA
ENDBRANCH   2   3
ENDBRANCH   1   2
BRANCH   1   7
ATOM      7  C   UNL     1      34.011 -19.418 -21.057  0.00  0.00    -0.084 C 
BRANCH   7   8
ATOM      8  N   UNL     1      35.405 -19.200 -20.685  0.00  0.00    +0.380 N 
ATOM      9  H   UNL     1      35.519 -19.360 -19.684  0.00  0.00    -0.089 HD
ATOM     10  H   UNL     1      35.671 -18.240 -20.908  0.00  0.00    -0.089 HD
ATOM     11  H   UNL     1      36.000 -19.847 -21.203  0.00  0.00    -0.089 HD
ENDBRANCH   7   8
ENDBRANCH   1   7
TORSDOF 4
ENDMDL
