MODEL 1
REMARK VINA RESULT:      -7.4      0.000      0.000
REMARK  Name = 5158928
REMARK  8 active torsions:
REMARK  status: ('A' for Active; 'I' for Inactive)
REMARK    1  A    between atoms: C_1  and  C_7
REMARK    2  A    between atoms: C_2  and  C_17
REMARK    3  A    between atoms: C_7  and  N_8
REMARK    4  A    between atoms: N_8  and  C_11
REMARK    5  A    between atoms: C_11  and  C_12
REMARK    6  A    between atoms: C_12  and  C_14
REMARK    7  A    between atoms: C_14  and  O_15
REMARK    8  A    between atoms: C_17  and  N_18
REMARK                            x       y       z     vdW  Elec       q    Type
REMARK                         _______ _______ _______ _____ _____    ______ ____
ROOT
ATOM      1  C   UNL     1      35.082 -20.043 -20.629  0.00  0.00    -0.044 C 
ATOM      2  C   UNL     1      34.043 -22.002 -18.953  0.00  0.00    -0.044 C 
ATOM      3  C   UNL     1      33.705 -20.174 -20.494  0.00  0.00    -0.007 C 
ATOM      4  C   UNL     1      35.945 -20.883 -19.934  0.00  0.00    -0.007 C 
ATOM      5  C   UNL     1      33.184 -21.156 -19.653  0.00  0.00    -0.007 C 
ATOM      6  C   UNL     1      35.424 -21.865 -19.093  0.00  0.00    -0.007 C 
ENDROOT
BRANCH   1   7
ATOM      7  C   UNL     1      35.643 -18.985 -21.535  0.00  0.00    -0.054 C 
BRANCH   7   8
ATOM      8  N   UNL     1      34.697 -18.599 -22.572  0.00  0.00    +0.387 N 
ATOM      9  H   UNL     1      34.514 -17.597 -22.500  0.00  0.00    -0.084 HD
ATOM     10  H   UNL     1      33.835 -19.128 -22.441  0.00  0.00    -0.084 HD
BRANCH   8  11
ATOM     11  C   UNL     1      35.229 -18.893 -23.897  0.00  0.00    -0.070 C 
BRANCH  11  12
ATOM     12  C   UNL     1      34.339 -18.278 -24.974  0.00  0.00    +0.086 C 
BRANCH  12  14
ATOM     13  O   UNL     1      34.178 -16.096 -26.050  0.00  0.00    -0.250 OA
ATOM     14  C   UNL     1      34.631 -16.810 -25.169  0.00  0.00    +0.312 C 
BRANCH  14  15
ATOM     15  O   UNL     1      35.485 -16.373 -24.209  0.00  0.00    -0.480 OA
ATOM     16  H   UNL     1      35.314 -15.568 -23.761  0.00  0.00    +0.295 HD
ENDBRANCH  14  15
ENDBRANCH  12  14
ENDBRANCH  11  12
ENDBRANCH   8  11
ENDBRANCH   7   8
ENDBRANCH   1   7
BRANCH   2  17
ATOM     17  C   UNL     1      33.485 -23.053 -18.054  0.00  0.00    -0.059 C 
BRANCH  17  18
ATOM     18  N   UNL     1      32.091 -22.774 -17.611  0.00  0.00    +0.383 N 
ATOM     19  H   UNL     1      31.976 -23.073 -16.643  0.00  0.00    -0.089 HD
ATOM     20  H   UNL     1      31.437 -23.283 -18.205  0.00  0.00    -0.089 HD
ATOM     21  H   UNL     1      31.907 -21.773 -17.682  0.00  0.00    -0.089 HD
ENDBRANCH  17  18
ENDBRANCH   2  17
TORSDOF 8
ENDMDL
MODEL 2
REMARK VINA RESULT:      -7.4      1.240      1.490
REMARK  Name = 5158928
REMARK  8 active torsions:
REMARK  status: ('A' for Active; 'I' for Inactive)
REMARK    1  A    between atoms: C_1  and  C_7
REMARK    2  A    between atoms: C_2  and  C_17
REMARK    3  A    between atoms: C_7  and  N_8
REMARK    4  A    between atoms: N_8  and  C_11
REMARK    5  A    between atoms: C_11  and  C_12
REMARK    6  A    between atoms: C_12  and  C_14
REMARK    7  A    between atoms: C_14  and  O_15
REMARK    8  A    between atoms: C_17  and  N_18
REMARK                            x       y       z     vdW  Elec       q    Type
REMARK                         _______ _______ _______ _____ _____    ______ ____
ROOT
ATOM      1  C   UNL     1      35.160 -19.198 -21.186  0.00  0.00    -0.044 C 
ATOM      2  C   UNL     1      34.291 -21.332 -19.631  0.00  0.00    -0.044 C 
ATOM      3  C   UNL     1      33.798 -19.423 -21.026  0.00  0.00    -0.007 C 
ATOM      4  C   UNL     1      36.092 -20.030 -20.576  0.00  0.00    -0.007 C 
ATOM      5  C   UNL     1      33.362 -20.493 -20.246  0.00  0.00    -0.007 C 
ATOM      6  C   UNL     1      35.657 -21.100 -19.796  0.00  0.00    -0.007 C 
ENDROOT
BRANCH   1   7
ATOM      7  C   UNL     1      35.629 -18.046 -22.027  0.00  0.00    -0.054 C 
BRANCH   7   8
ATOM      8  N   UNL     1      34.525 -17.204 -22.462  0.00  0.00    +0.387 N 
ATOM      9  H   UNL     1      34.030 -16.852 -21.641  0.00  0.00    -0.084 HD
ATOM     10  H   UNL     1      33.899 -17.760 -23.043  0.00  0.00    -0.084 HD
BRANCH   8  11
ATOM     11  C   UNL     1      35.009 -16.075 -23.247  0.00  0.00    -0.070 C 
BRANCH  11  12
ATOM     12  C   UNL     1      33.889 -15.517 -24.121  0.00  0.00    +0.086 C 
BRANCH  12  14
ATOM     13  O   UNL     1      33.475 -15.552 -26.524  0.00  0.00    -0.250 OA
ATOM     14  C   UNL     1      33.944 -16.073 -25.523  0.00  0.00    +0.312 C 
BRANCH  14  15
ATOM     15  O   UNL     1      34.604 -17.259 -25.528  0.00  0.00    -0.480 OA
ATOM     16  H   UNL     1      34.176 -18.034 -25.223  0.00  0.00    +0.295 HD
ENDBRANCH  14  15
ENDBRANCH  12  14
ENDBRANCH  11  12
ENDBRANCH   8  11
ENDBRANCH   7   8
ENDBRANCH   1   7
BRANCH   2  17
ATOM     17  C   UNL     1      33.824 -22.477 -18.797  0.00  0.00    -0.059 C 
BRANCH  17  18
ATOM     18  N   UNL     1      32.425 -22.322 -18.310  0.00  0.00    +0.383 N 
ATOM     19  H   UNL     1      31.865 -23.110 -18.633  0.00  0.00    -0.089 HD
ATOM     20  H   UNL     1      32.034 -21.453 -18.673  0.00  0.00    -0.089 HD
ATOM     21  H   UNL     1      32.421 -22.297 -17.291  0.00  0.00    -0.089 HD
ENDBRANCH  17  18
ENDBRANCH   2  17
TORSDOF 8
ENDMDL
MODEL 3
REMARK VINA RESULT:      -7.2      4.734      7.641
REMARK  Name = 5158928
REMARK  8 active torsions:
REMARK  status: ('A' for Active; 'I' for Inactive)
REMARK    1  A    between atoms: C_1  and  C_7
REMARK    2  A    between atoms: C_2  and  C_17
REMARK    3  A    between atoms: C_7  and  N_8
REMARK    4  A    between atoms: N_8  and  C_11
REMARK    5  A    between atoms: C_11  and  C_12
REMARK    6  A    between atoms: C_12  and  C_14
REMARK    7  A    between atoms: C_14  and  O_15
REMARK    8  A    between atoms: C_17  and  N_18
REMARK                            x       y       z     vdW  Elec       q    Type
REMARK                         _______ _______ _______ _____ _____    ______ ____
ROOT
ATOM      1  C   UNL     1      33.993 -21.947 -19.107  0.00  0.00    -0.044 C 
ATOM      2  C   UNL     1      34.867 -19.860 -20.721  0.00  0.00    -0.044 C 
ATOM      3  C   UNL     1      35.354 -21.769 -19.324  0.00  0.00    -0.007 C 
ATOM      4  C   UNL     1      33.064 -21.092 -19.688  0.00  0.00    -0.007 C 
ATOM      5  C   UNL     1      35.793 -20.722 -20.133  0.00  0.00    -0.007 C 
ATOM      6  C   UNL     1      33.503 -20.044 -20.497  0.00  0.00    -0.007 C 
ENDROOT
BRANCH   1   7
ATOM      7  C   UNL     1      33.521 -23.075 -18.236  0.00  0.00    -0.054 C 
BRANCH   7   8
ATOM      8  N   UNL     1      32.228 -22.792 -17.631  0.00  0.00    +0.387 N 
ATOM      9  H   UNL     1      31.489 -23.147 -18.240  0.00  0.00    -0.084 HD
ATOM     10  H   UNL     1      32.137 -21.784 -17.512  0.00  0.00    -0.084 HD
BRANCH   8  11
ATOM     11  C   UNL     1      32.115 -23.428 -16.323  0.00  0.00    -0.070 C 
BRANCH  11  12
ATOM     12  C   UNL     1      30.898 -22.889 -15.576  0.00  0.00    +0.086 C 
BRANCH  12  14
ATOM     13  O   UNL     1      29.147 -22.308 -17.170  0.00  0.00    -0.250 OA
ATOM     14  C   UNL     1      29.626 -23.089 -16.361  0.00  0.00    +0.312 C 
BRANCH  14  15
ATOM     15  O   UNL     1      29.066 -24.285 -16.045  0.00  0.00    -0.480 OA
ATOM     16  H   UNL     1      29.597 -25.056 -16.013  0.00  0.00    +0.295 HD
ENDBRANCH  14  15
ENDBRANCH  12  14
ENDBRANCH  11  12
ENDBRANCH   8  11
ENDBRANCH   7   8
ENDBRANCH   1   7
BRANCH   2  17
ATOM     17  C   UNL     1      35.337 -18.739 -21.586  0.00  0.00    -0.059 C 
BRANCH  17  18
ATOM     18  N   UNL     1      35.307 -17.415 -20.907  0.00  0.00    +0.383 N 
ATOM     19  H   UNL     1      35.443 -16.676 -21.597  0.00  0.00    -0.089 HD
ATOM     20  H   UNL     1      36.052 -17.372 -20.212  0.00  0.00    -0.089 HD
ATOM     21  H   UNL     1      34.405 -17.289 -20.447  0.00  0.00    -0.089 HD
ENDBRANCH  17  18
ENDBRANCH   2  17
TORSDOF 8
ENDMDL
MODEL 4
REMARK VINA RESULT:      -7.2      2.311      3.035
REMARK  Name = 5158928
REMARK  8 active torsions:
REMARK  status: ('A' for Active; 'I' for Inactive)
REMARK    1  A    between atoms: C_1  and  C_7
REMARK    2  A    between atoms: C_2  and  C_17
REMARK    3  A    between atoms: C_7  and  N_8
REMARK    4  A    between atoms: N_8  and  C_11
REMARK    5  A    between atoms: C_11  and  C_12
REMARK    6  A    between atoms: C_12  and  C_14
REMARK    7  A    between atoms: C_14  and  O_15
REMARK    8  A    between atoms: C_17  and  N_18
REMARK                            x       y       z     vdW  Elec       q    Type
REMARK                         _______ _______ _______ _____ _____    ______ ____
ROOT
ATOM      1  C   UNL     1      35.203 -19.277 -21.233  0.00  0.00    -0.044 C 
ATOM      2  C   UNL     1      34.407 -21.370 -19.586  0.00  0.00    -0.044 C 
ATOM      3  C   UNL     1      36.164 -20.073 -20.619  0.00  0.00    -0.007 C 
ATOM      4  C   UNL     1      33.849 -19.517 -21.031  0.00  0.00    -0.007 C 
ATOM      5  C   UNL     1      35.764 -21.123 -19.793  0.00  0.00    -0.007 C 
ATOM      6  C   UNL     1      33.450 -20.567 -20.205  0.00  0.00    -0.007 C 
ENDROOT
BRANCH   1   7
ATOM      7  C   UNL     1      35.633 -18.146 -22.121  0.00  0.00    -0.054 C 
BRANCH   7   8
ATOM      8  N   UNL     1      34.517 -17.289 -22.491  0.00  0.00    +0.387 N 
ATOM      9  H   UNL     1      33.996 -17.037 -21.650  0.00  0.00    -0.084 HD
ATOM     10  H   UNL     1      33.917 -17.796 -23.142  0.00  0.00    -0.084 HD
BRANCH   8  11
ATOM     11  C   UNL     1      34.988 -16.072 -23.143  0.00  0.00    -0.070 C 
BRANCH  11  12
ATOM     12  C   UNL     1      34.450 -14.841 -22.419  0.00  0.00    +0.086 C 
BRANCH  12  14
ATOM     13  O   UNL     1      34.884 -15.333 -20.071  0.00  0.00    -0.250 OA
ATOM     14  C   UNL     1      34.095 -15.146 -20.985  0.00  0.00    +0.312 C 
BRANCH  14  15
ATOM     15  O   UNL     1      32.746 -15.185 -20.836  0.00  0.00    -0.480 OA
ATOM     16  H   UNL     1      32.192 -14.837 -21.506  0.00  0.00    +0.295 HD
ENDBRANCH  14  15
ENDBRANCH  12  14
ENDBRANCH  11  12
ENDBRANCH   8  11
ENDBRANCH   7   8
ENDBRANCH   1   7
BRANCH   2  17
ATOM     17  C   UNL     1      33.981 -22.493 -18.702  0.00  0.00    -0.059 C 
BRANCH  17  18
ATOM     18  N   UNL     1      32.550 -22.416 -18.297  0.00  0.00    +0.383 N 
ATOM     19  H   UNL     1      31.963 -22.389 -19.130  0.00  0.00    -0.089 HD
ATOM     20  H   UNL     1      32.398 -21.573 -17.744  0.00  0.00    -0.089 HD
ATOM     21  H   UNL     1      32.310 -23.236 -17.739  0.00  0.00    -0.089 HD
ENDBRANCH  17  18
ENDBRANCH   2  17
TORSDOF 8
ENDMDL
MODEL 5
REMARK VINA RESULT:      -6.9      4.929      7.705
REMARK  Name = 5158928
REMARK  8 active torsions:
REMARK  status: ('A' for Active; 'I' for Inactive)
REMARK    1  A    between atoms: C_1  and  C_7
REMARK    2  A    between atoms: C_2  and  C_17
REMARK    3  A    between atoms: C_7  and  N_8
REMARK    4  A    between atoms: N_8  and  C_11
REMARK    5  A    between atoms: C_11  and  C_12
REMARK    6  A    between atoms: C_12  and  C_14
REMARK    7  A    between atoms: C_14  and  O_15
REMARK    8  A    between atoms: C_17  and  N_18
REMARK                            x       y       z     vdW  Elec       q    Type
REMARK                         _______ _______ _______ _____ _____    ______ ____
ROOT
ATOM      1  C   UNL     1      34.339 -21.410 -19.676  0.00  0.00    -0.044 C 
ATOM      2  C   UNL     1      35.124 -19.144 -21.082  0.00  0.00    -0.044 C 
ATOM      3  C   UNL     1      33.376 -20.594 -20.258  0.00  0.00    -0.007 C 
ATOM      4  C   UNL     1      35.691 -21.105 -19.790  0.00  0.00    -0.007 C 
ATOM      5  C   UNL     1      33.770 -19.458 -20.964  0.00  0.00    -0.007 C 
ATOM      6  C   UNL     1      36.084 -19.968 -20.496  0.00  0.00    -0.007 C 
ENDROOT
BRANCH   1   7
ATOM      7  C   UNL     1      33.915 -22.633 -18.916  0.00  0.00    -0.054 C 
BRANCH   7   8
ATOM      8  N   UNL     1      32.623 -22.452 -18.271  0.00  0.00    +0.387 N 
ATOM      9  H   UNL     1      31.890 -22.812 -18.884  0.00  0.00    -0.084 HD
ATOM     10  H   UNL     1      32.482 -21.458 -18.094  0.00  0.00    -0.084 HD
BRANCH   8  11
ATOM     11  C   UNL     1      32.573 -23.164 -16.999  0.00  0.00    -0.070 C 
BRANCH  11  12
ATOM     12  C   UNL     1      31.214 -22.965 -16.334  0.00  0.00    +0.086 C 
BRANCH  12  14
ATOM     13  O   UNL     1      30.401 -23.208 -14.047  0.00  0.00    -0.250 OA
ATOM     14  C   UNL     1      31.317 -23.000 -14.829  0.00  0.00    +0.312 C 
BRANCH  14  15
ATOM     15  O   UNL     1      32.598 -22.764 -14.444  0.00  0.00    -0.480 OA
ATOM     16  H   UNL     1      32.960 -23.226 -13.714  0.00  0.00    +0.295 HD
ENDBRANCH  14  15
ENDBRANCH  12  14
ENDBRANCH  11  12
ENDBRANCH   8  11
ENDBRANCH   7   8
ENDBRANCH   1   7
BRANCH   2  17
ATOM     17  C   UNL     1      35.544 -17.929 -21.837  0.00  0.00    -0.059 C 
BRANCH  17  18
ATOM     18  N   UNL     1      35.942 -18.214 -23.244  0.00  0.00    +0.383 N 
ATOM     19  H   UNL     1      35.330 -18.931 -23.631  0.00  0.00    -0.089 HD
ATOM     20  H   UNL     1      36.907 -18.543 -23.264  0.00  0.00    -0.089 HD
ATOM     21  H   UNL     1      35.862 -17.363 -23.799  0.00  0.00    -0.089 HD
ENDBRANCH  17  18
ENDBRANCH   2  17
TORSDOF 8
ENDMDL
MODEL 6
REMARK VINA RESULT:      -6.8      3.783      6.885
REMARK  Name = 5158928
REMARK  8 active torsions:
REMARK  status: ('A' for Active; 'I' for Inactive)
REMARK    1  A    between atoms: C_1  and  C_7
REMARK    2  A    between atoms: C_2  and  C_17
REMARK    3  A    between atoms: C_7  and  N_8
REMARK    4  A    between atoms: N_8  and  C_11
REMARK    5  A    between atoms: C_11  and  C_12
REMARK    6  A    between atoms: C_12  and  C_14
REMARK    7  A    between atoms: C_14  and  O_15
REMARK    8  A    between atoms: C_17  and  N_18
REMARK                            x       y       z     vdW  Elec       q    Type
REMARK                         _______ _______ _______ _____ _____    ______ ____
ROOT
ATOM      1  C   UNL     1      35.517 -17.872 -21.717  0.00  0.00    -0.044 C 
ATOM      2  C   UNL     1      34.217 -15.763 -22.976  0.00  0.00    -0.044 C 
ATOM      3  C   UNL     1      35.459 -17.830 -23.105  0.00  0.00    -0.007 C 
ATOM      4  C   UNL     1      34.932 -16.869 -20.952  0.00  0.00    -0.007 C 
ATOM      5  C   UNL     1      34.807 -16.772 -23.737  0.00  0.00    -0.007 C 
ATOM      6  C   UNL     1      34.280 -15.811 -21.584  0.00  0.00    -0.007 C 
ENDROOT
BRANCH   1   7
ATOM      7  C   UNL     1      36.219 -19.012 -21.037  0.00  0.00    -0.054 C 
BRANCH   7   8
ATOM      8  N   UNL     1      35.284 -19.906 -20.369  0.00  0.00    +0.387 N 
ATOM      9  H   UNL     1      34.461 -20.031 -20.960  0.00  0.00    -0.084 HD
ATOM     10  H   UNL     1      35.021 -19.494 -19.474  0.00  0.00    -0.084 HD
BRANCH   8  11
ATOM     11  C   UNL     1      35.896 -21.206 -20.120  0.00  0.00    -0.070 C 
BRANCH  11  12
ATOM     12  C   UNL     1      35.234 -21.883 -18.923  0.00  0.00    +0.086 C 
BRANCH  12  14
ATOM     13  O   UNL     1      32.983 -21.850 -19.859  0.00  0.00    -0.250 OA
ATOM     14  C   UNL     1      33.878 -22.442 -19.275  0.00  0.00    +0.312 C 
BRANCH  14  15
ATOM     15  O   UNL     1      33.779 -23.727 -18.848  0.00  0.00    -0.480 OA
ATOM     16  H   UNL     1      33.208 -23.942 -18.138  0.00  0.00    +0.295 HD
ENDBRANCH  14  15
ENDBRANCH  12  14
ENDBRANCH  11  12
ENDBRANCH   8  11
ENDBRANCH   7   8
ENDBRANCH   1   7
BRANCH   2  17
ATOM     17  C   UNL     1      33.520 -14.631 -23.653  0.00  0.00    -0.059 C 
BRANCH  17  18
ATOM     18  N   UNL     1      34.178 -13.314 -23.431  0.00  0.00    +0.383 N 
ATOM     19  H   UNL     1      34.387 -12.883 -24.332  0.00  0.00    -0.089 HD
ATOM     20  H   UNL     1      35.043 -13.450 -22.909  0.00  0.00    -0.089 HD
ATOM     21  H   UNL     1      33.553 -12.707 -22.901  0.00  0.00    -0.089 HD
ENDBRANCH  17  18
ENDBRANCH   2  17
TORSDOF 8
ENDMDL
MODEL 7
REMARK VINA RESULT:      -6.6      5.033      7.606
REMARK  Name = 5158928
REMARK  8 active torsions:
REMARK  status: ('A' for Active; 'I' for Inactive)
REMARK    1  A    between atoms: C_1  and  C_7
REMARK    2  A    between atoms: C_2  and  C_17
REMARK    3  A    between atoms: C_7  and  N_8
REMARK    4  A    between atoms: N_8  and  C_11
REMARK    5  A    between atoms: C_11  and  C_12
REMARK    6  A    between atoms: C_12  and  C_14
REMARK    7  A    between atoms: C_14  and  O_15
REMARK    8  A    between atoms: C_17  and  N_18
REMARK                            x       y       z     vdW  Elec       q    Type
REMARK                         _______ _______ _______ _____ _____    ______ ____
ROOT
ATOM      1  C   UNL     1      34.331 -21.351 -19.676  0.00  0.00    -0.044 C 
ATOM      2  C   UNL     1      34.555 -19.060 -21.235  0.00  0.00    -0.044 C 
ATOM      3  C   UNL     1      33.187 -20.641 -20.026  0.00  0.00    -0.007 C 
ATOM      4  C   UNL     1      35.585 -20.926 -20.099  0.00  0.00    -0.007 C 
ATOM      5  C   UNL     1      33.300 -19.493 -20.808  0.00  0.00    -0.007 C 
ATOM      6  C   UNL     1      35.698 -19.777 -20.881  0.00  0.00    -0.007 C 
ENDROOT
BRANCH   1   7
ATOM      7  C   UNL     1      34.209 -22.587 -18.834  0.00  0.00    -0.054 C 
BRANCH   7   8
ATOM      8  N   UNL     1      32.868 -22.748 -18.293  0.00  0.00    +0.387 N 
ATOM      9  H   UNL     1      32.340 -23.385 -18.892  0.00  0.00    -0.084 HD
ATOM     10  H   UNL     1      32.417 -21.834 -18.261  0.00  0.00    -0.084 HD
BRANCH   8  11
ATOM     11  C   UNL     1      32.914 -23.294 -16.942  0.00  0.00    -0.070 C 
BRANCH  11  12
ATOM     12  C   UNL     1      34.300 -23.093 -16.336  0.00  0.00    +0.086 C 
BRANCH  12  14
ATOM     13  O   UNL     1      35.311 -25.215 -15.687  0.00  0.00    -0.250 OA
ATOM     14  C   UNL     1      34.669 -24.216 -15.399  0.00  0.00    +0.312 C 
BRANCH  14  15
ATOM     15  O   UNL     1      34.184 -23.964 -14.156  0.00  0.00    -0.480 OA
ATOM     16  H   UNL     1      33.535 -24.528 -13.784  0.00  0.00    +0.295 HD
ENDBRANCH  14  15
ENDBRANCH  12  14
ENDBRANCH  11  12
ENDBRANCH   8  11
ENDBRANCH   7   8
ENDBRANCH   1   7
BRANCH   2  17
ATOM     17  C   UNL     1      34.675 -17.831 -22.071  0.00  0.00    -0.059 C 
BRANCH  17  18
ATOM     18  N   UNL     1      34.656 -16.571 -21.277  0.00  0.00    +0.383 N 
ATOM     19  H   UNL     1      34.021 -16.678 -20.486  0.00  0.00    -0.089 HD
ATOM     20  H   UNL     1      34.340 -15.802 -21.867  0.00  0.00    -0.089 HD
ATOM     21  H   UNL     1      35.596 -16.372 -20.934  0.00  0.00    -0.089 HD
ENDBRANCH  17  18
ENDBRANCH   2  17
TORSDOF 8
ENDMDL
MODEL 8
REMARK VINA RESULT:      -6.6      3.772      6.992
REMARK  Name = 5158928
REMARK  8 active torsions:
REMARK  status: ('A' for Active; 'I' for Inactive)
REMARK    1  A    between atoms: C_1  and  C_7
REMARK    2  A    between atoms: C_2  and  C_17
REMARK    3  A    between atoms: C_7  and  N_8
REMARK    4  A    between atoms: N_8  and  C_11
REMARK    5  A    between atoms: C_11  and  C_12
REMARK    6  A    between atoms: C_12  and  C_14
REMARK    7  A    between atoms: C_14  and  O_15
REMARK    8  A    between atoms: C_17  and  N_18
REMARK                            x       y       z     vdW  Elec       q    Type
REMARK                         _______ _______ _______ _____ _____    ______ ____
ROOT
ATOM      1  C   UNL     1      35.295 -17.482 -22.145  0.00  0.00    -0.044 C 
ATOM      2  C   UNL     1      34.067 -15.253 -23.264  0.00  0.00    -0.044 C 
ATOM      3  C   UNL     1      34.858 -16.451 -21.321  0.00  0.00    -0.007 C 
ATOM      4  C   UNL     1      35.124 -17.410 -23.523  0.00  0.00    -0.007 C 
ATOM      5  C   UNL     1      34.242 -15.333 -21.883  0.00  0.00    -0.007 C 
ATOM      6  C   UNL     1      34.508 -16.292 -24.084  0.00  0.00    -0.007 C 
ENDROOT
BRANCH   1   7
ATOM      7  C   UNL     1      35.958 -18.685 -21.540  0.00  0.00    -0.054 C 
BRANCH   7   8
ATOM      8  N   UNL     1      35.170 -19.255 -20.457  0.00  0.00    +0.387 N 
ATOM      9  H   UNL     1      34.771 -18.498 -19.901  0.00  0.00    -0.084 HD
ATOM     10  H   UNL     1      35.778 -19.837 -19.882  0.00  0.00    -0.084 HD
BRANCH   8  11
ATOM     11  C   UNL     1      34.090 -20.083 -20.981  0.00  0.00    -0.070 C 
BRANCH  11  12
ATOM     12  C   UNL     1      33.507 -20.955 -19.872  0.00  0.00    +0.086 C 
BRANCH  12  14
ATOM     13  O   UNL     1      35.629 -21.741 -18.965  0.00  0.00    -0.250 OA
ATOM     14  C   UNL     1      34.504 -21.975 -19.379  0.00  0.00    +0.312 C 
BRANCH  14  15
ATOM     15  O   UNL     1      33.972 -23.221 -19.456  0.00  0.00    -0.480 OA
ATOM     16  H   UNL     1      33.044 -23.339 -19.400  0.00  0.00    +0.295 HD
ENDBRANCH  14  15
ENDBRANCH  12  14
ENDBRANCH  11  12
ENDBRANCH   8  11
ENDBRANCH   7   8
ENDBRANCH   1   7
BRANCH   2  17
ATOM     17  C   UNL     1      33.408 -14.057 -23.864  0.00  0.00    -0.059 C 
BRANCH  17  18
ATOM     18  N   UNL     1      34.185 -12.800 -23.681  0.00  0.00    +0.383 N 
ATOM     19  H   UNL     1      33.543 -12.028 -23.498  0.00  0.00    -0.089 HD
ATOM     20  H   UNL     1      34.721 -12.605 -24.526  0.00  0.00    -0.089 HD
ATOM     21  H   UNL     1      34.822 -12.906 -22.891  0.00  0.00    -0.089 HD
ENDBRANCH  17  18
ENDBRANCH   2  17
TORSDOF 8
ENDMDL
MODEL 9
REMARK VINA RESULT:      -6.6      3.111      4.654
REMARK  Name = 5158928
REMARK  8 active torsions:
REMARK  status: ('A' for Active; 'I' for Inactive)
REMARK    1  A    between atoms: C_1  and  C_7
REMARK    2  A    between atoms: C_2  and  C_17
REMARK    3  A    between atoms: C_7  and  N_8
REMARK    4  A    between atoms: N_8  and  C_11
REMARK    5  A    between atoms: C_11  and  C_12
REMARK    6  A    between atoms: C_12  and  C_14
REMARK    7  A    between atoms: C_14  and  O_15
REMARK    8  A    between atoms: C_17  and  N_18
REMARK                            x       y       z     vdW  Elec       q    Type
REMARK                         _______ _______ _______ _____ _____    ______ ____
ROOT
ATOM      1  C   UNL     1      34.908 -16.969 -23.316  0.00  0.00    -0.044 C 
ATOM      2  C   UNL     1      35.033 -19.081 -21.513  0.00  0.00    -0.044 C 
ATOM      3  C   UNL     1      35.062 -16.708 -21.959  0.00  0.00    -0.007 C 
ATOM      4  C   UNL     1      34.816 -18.276 -23.780  0.00  0.00    -0.007 C 
ATOM      5  C   UNL     1      35.125 -17.767 -21.055  0.00  0.00    -0.007 C 
ATOM      6  C   UNL     1      34.879 -19.335 -22.876  0.00  0.00    -0.007 C 
ENDROOT
BRANCH   1   7
ATOM      7  C   UNL     1      34.840 -15.828 -24.289  0.00  0.00    -0.054 C 
BRANCH   7   8
ATOM      8  N   UNL     1      33.467 -15.446 -24.585  0.00  0.00    +0.387 N 
ATOM      9  H   UNL     1      32.857 -15.786 -23.839  0.00  0.00    -0.084 HD
ATOM     10  H   UNL     1      33.199 -15.857 -25.478  0.00  0.00    -0.084 HD
BRANCH   8  11
ATOM     11  C   UNL     1      33.339 -13.996 -24.681  0.00  0.00    -0.070 C 
BRANCH  11  12
ATOM     12  C   UNL     1      33.521 -13.356 -23.308  0.00  0.00    +0.086 C 
BRANCH  12  14
ATOM     13  O   UNL     1      32.213 -14.798 -21.839  0.00  0.00    -0.250 OA
ATOM     14  C   UNL     1      32.393 -13.712 -22.371  0.00  0.00    +0.312 C 
BRANCH  14  15
ATOM     15  O   UNL     1      31.582 -12.639 -22.188  0.00  0.00    -0.480 OA
ATOM     16  H   UNL     1      31.953 -11.798 -22.008  0.00  0.00    +0.295 HD
ENDBRANCH  14  15
ENDBRANCH  12  14
ENDBRANCH  11  12
ENDBRANCH   8  11
ENDBRANCH   7   8
ENDBRANCH   1   7
BRANCH   2  17
ATOM     17  C   UNL     1      35.101 -20.214 -20.546  0.00  0.00    -0.059 C 
BRANCH  17  18
ATOM     18  N   UNL     1      36.406 -20.308 -19.835  0.00  0.00    +0.383 N 
ATOM     19  H   UNL     1      36.763 -19.370 -19.656  0.00  0.00    -0.089 HD
ATOM     20  H   UNL     1      37.071 -20.822 -20.413  0.00  0.00    -0.089 HD
ATOM     21  H   UNL     1      36.277 -20.798 -18.950  0.00  0.00    -0.089 HD
ENDBRANCH  17  18
ENDBRANCH   2  17
TORSDOF 8
ENDMDL
