MODEL 1
REMARK VINA RESULT:     -10.1      0.000      0.000
REMARK  Name = 449471
REMARK  15 active torsions:
REMARK  status: ('A' for Active; 'I' for Inactive)
REMARK    1  A    between atoms: CA_1  and  N_3
REMARK    2  A    between atoms: CA_1  and  C_19
REMARK    3  A    between atoms: CA_1  and  CB_26
REMARK    4  A    between atoms: C_4  and  C_6
REMARK    5  A    between atoms: C_6  and  C_7
REMARK    6  A    between atoms: C_7  and  CA_8
REMARK    7  A    between atoms: CA_8  and  N_9
REMARK    8  A    between atoms: CA_8  and  C_14
REMARK    9  A    between atoms: C_14  and  O_15
REMARK   10  A    between atoms: N_18  and  CA_21
REMARK   11  A    between atoms: CA_21  and  C_23
REMARK   12  A    between atoms: C_23  and  O_24
REMARK   13  A    between atoms: CB_26  and  SG_27
REMARK   14  A    between atoms: SG_27  and  C_28
REMARK   15  A    between atoms: C_28  and  C_29
REMARK                            x       y       z     vdW  Elec       q    Type
REMARK                         _______ _______ _______ _____ _____    ______ ____
ROOT
ATOM      1  CA  UNL     1      36.884 -23.567 -15.343  0.00  0.00    +0.159 C 
ENDROOT
BRANCH   1   3
ATOM      2  O   UNL     1      34.422 -24.985 -14.838  0.00  0.00    -0.275 OA
ATOM      3  N   UNL     1      35.548 -23.017 -15.344  0.00  0.00    -0.298 N 
ATOM      4  C   UNL     1      34.420 -23.784 -15.088  0.00  0.00    +0.223 C 
ATOM      5  H   UNL     1      35.433 -22.058 -15.534  0.00  0.00    +0.150 HD
BRANCH   4   6
ATOM      6  C   UNL     1      33.151 -22.951 -15.165  0.00  0.00    +0.083 C 
BRANCH   6   7
ATOM      7  C   UNL     1      32.060 -23.625 -16.000  0.00  0.00    -0.001 C 
BRANCH   7   8
ATOM      8  CA  UNL     1      30.792 -23.923 -15.193  0.00  0.00    +0.036 C 
BRANCH   8   9
ATOM      9  N   UNL     1      30.027 -22.687 -15.010  0.00  0.00    +0.389 N 
ATOM     10  H1  UNL     1      29.176 -22.729 -15.571  0.00  0.00    -0.088 HD
ATOM     11  H2  UNL     1      30.591 -21.891 -15.305  0.00  0.00    -0.088 HD
ATOM     12  H3  UNL     1      29.780 -22.584 -14.025  0.00  0.00    -0.088 HD
ENDBRANCH   8   9
BRANCH   8  14
ATOM     13  OXT UNL     1      30.856 -23.862 -12.757  0.00  0.00    -0.253 OA
ATOM     14  C   UNL     1      31.130 -24.436 -13.804  0.00  0.00    +0.293 C 
BRANCH  14  15
ATOM     15  O   UNL     1      31.807 -25.612 -13.840  0.00  0.00    -0.482 OA
ATOM     16  H   UNL     1      32.132 -25.941 -14.654  0.00  0.00    +0.295 HD
ENDBRANCH  14  15
ENDBRANCH   8  14
ENDBRANCH   7   8
ENDBRANCH   6   7
ENDBRANCH   4   6
ENDBRANCH   1   3
BRANCH   1  19
ATOM     17  O   UNL     1      38.390 -24.327 -13.598  0.00  0.00    -0.273 OA
ATOM     18  N   UNL     1      36.400 -23.303 -12.985  0.00  0.00    -0.294 N 
ATOM     19  C   ACE A   1      37.331 -23.777 -13.898  0.00  0.00    +0.242 C 
ATOM     20  H   UNL     1      35.580 -22.877 -13.325  0.00  0.00    +0.150 HD
BRANCH  18  21
ATOM     21  CA  UNL     1      36.584 -23.409 -11.557  0.00  0.00    +0.200 C 
BRANCH  21  23
ATOM     22  OXT UNL     1      35.510 -24.491  -9.693  0.00  0.00    -0.248 OA
ATOM     23  C   UNL     1      35.605 -24.353 -10.907  0.00  0.00    +0.334 C 
BRANCH  23  24
ATOM     24  O   UNL     1      34.841 -25.034 -11.793  0.00  0.00    -0.479 OA
ATOM     25  H   UNL     1      33.915 -25.091 -11.668  0.00  0.00    +0.295 HD
ENDBRANCH  23  24
ENDBRANCH  21  23
ENDBRANCH  18  21
ENDBRANCH   1  19
BRANCH   1  26
ATOM     26  CB  UNL     1      37.861 -22.725 -16.165  0.00  0.00    +0.087 C 
BRANCH  26  27
ATOM     27  SG  UNL     1      37.113 -21.227 -16.887  0.00  0.00    -0.133 S 
BRANCH  27  28
ATOM     28  C   UNL     1      36.909 -21.832 -18.577  0.00  0.00    +0.084 C 
BRANCH  28  29
ATOM     29  C   UNL     1      35.588 -21.427 -19.170  0.00  0.00    -0.011 C 
ATOM     30  C   UNL     1      35.484 -20.408 -20.131  0.00  0.00    -0.003 C 
ATOM     31  C   UNL     1      34.210 -20.074 -20.650  0.00  0.00    -0.000 C 
ATOM     32  C   UNL     1      34.453 -22.107 -18.727  0.00  0.00    -0.003 C 
ATOM     33  C   UNL     1      36.616 -19.713 -20.588  0.00  0.00    -0.000 C 
ATOM     34  C   UNL     1      33.079 -20.769 -20.194  0.00  0.00    -0.000 C 
ATOM     35  C   UNL     1      33.201 -21.779 -19.239  0.00  0.00    -0.000 C 
ATOM     36  C   UNL     1      34.106 -19.055 -21.611  0.00  0.00    -0.000 C 
ATOM     37  C   UNL     1      36.494 -18.704 -21.542  0.00  0.00    -0.000 C 
ATOM     38  C   UNL     1      35.241 -18.375 -22.053  0.00  0.00    -0.000 C 
ENDBRANCH  28  29
ENDBRANCH  27  28
ENDBRANCH  26  27
ENDBRANCH   1  26
TORSDOF 15
ENDMDL
MODEL 2
REMARK VINA RESULT:      -9.9      1.794      4.829
REMARK  Name = 449471
REMARK  15 active torsions:
REMARK  status: ('A' for Active; 'I' for Inactive)
REMARK    1  A    between atoms: CA_1  and  N_3
REMARK    2  A    between atoms: CA_1  and  C_19
REMARK    3  A    between atoms: CA_1  and  CB_26
REMARK    4  A    between atoms: C_4  and  C_6
REMARK    5  A    between atoms: C_6  and  C_7
REMARK    6  A    between atoms: C_7  and  CA_8
REMARK    7  A    between atoms: CA_8  and  N_9
REMARK    8  A    between atoms: CA_8  and  C_14
REMARK    9  A    between atoms: C_14  and  O_15
REMARK   10  A    between atoms: N_18  and  CA_21
REMARK   11  A    between atoms: CA_21  and  C_23
REMARK   12  A    between atoms: C_23  and  O_24
REMARK   13  A    between atoms: CB_26  and  SG_27
REMARK   14  A    between atoms: SG_27  and  C_28
REMARK   15  A    between atoms: C_28  and  C_29
REMARK                            x       y       z     vdW  Elec       q    Type
REMARK                         _______ _______ _______ _____ _____    ______ ____
ROOT
ATOM      1  CA  UNL     1      35.975 -23.016 -15.057  0.00  0.00    +0.159 C 
ENDROOT
BRANCH   1   3
ATOM      2  O   UNL     1      37.852 -22.559 -12.913  0.00  0.00    -0.275 OA
ATOM      3  N   UNL     1      36.416 -23.973 -14.070  0.00  0.00    -0.298 N 
ATOM      4  C   UNL     1      37.327 -23.658 -13.072  0.00  0.00    +0.223 C 
ATOM      5  H   UNL     1      36.056 -24.888 -14.106  0.00  0.00    +0.150 HD
BRANCH   4   6
ATOM      6  C   UNL     1      37.618 -24.855 -12.182  0.00  0.00    +0.083 C 
BRANCH   6   7
ATOM      7  C   UNL     1      38.821 -25.666 -12.669  0.00  0.00    -0.001 C 
BRANCH   7   8
ATOM      8  CA  UNL     1      38.841 -25.846 -14.190  0.00  0.00    +0.036 C 
BRANCH   8   9
ATOM      9  N   UNL     1      38.035 -27.014 -14.555  0.00  0.00    +0.389 N 
ATOM     10  H1  UNL     1      38.568 -27.611 -15.188  0.00  0.00    -0.088 HD
ATOM     11  H2  UNL     1      37.180 -26.706 -15.018  0.00  0.00    -0.088 HD
ATOM     12  H3  UNL     1      37.796 -27.538 -13.713  0.00  0.00    -0.088 HD
ENDBRANCH   8   9
BRANCH   8  14
ATOM     13  OXT UNL     1      41.184 -26.492 -14.001  0.00  0.00    -0.253 OA
ATOM     14  C   UNL     1      40.248 -26.114 -14.695  0.00  0.00    +0.293 C 
BRANCH  14  15
ATOM     15  O   UNL     1      40.375 -25.861 -16.024  0.00  0.00    -0.482 OA
ATOM     16  H   UNL     1      40.986 -25.216 -16.321  0.00  0.00    +0.295 HD
ENDBRANCH  14  15
ENDBRANCH   8  14
ENDBRANCH   7   8
ENDBRANCH   6   7
ENDBRANCH   4   6
ENDBRANCH   1   3
BRANCH   1  19
ATOM     17  O   UNL     1      34.351 -23.868 -16.646  0.00  0.00    -0.273 OA
ATOM     18  N   UNL     1      33.606 -23.143 -14.572  0.00  0.00    -0.294 N 
ATOM     19  C   ACE A   1      34.575 -23.403 -15.530  0.00  0.00    +0.242 C 
ATOM     20  H   UNL     1      33.887 -22.768 -13.706  0.00  0.00    +0.150 HD
BRANCH  18  21
ATOM     21  CA  UNL     1      32.203 -23.401 -14.793  0.00  0.00    +0.200 C 
BRANCH  21  23
ATOM     22  OXT UNL     1      30.714 -25.272 -14.509  0.00  0.00    -0.248 OA
ATOM     23  C   UNL     1      31.736 -24.690 -14.166  0.00  0.00    +0.334 C 
BRANCH  23  24
ATOM     24  O   UNL     1      32.554 -25.142 -13.188  0.00  0.00    -0.479 OA
ATOM     25  H   UNL     1      32.992 -25.964 -13.285  0.00  0.00    +0.295 HD
ENDBRANCH  23  24
ENDBRANCH  21  23
ENDBRANCH  18  21
ENDBRANCH   1  19
BRANCH   1  26
ATOM     26  CB  UNL     1      36.979 -22.852 -16.200  0.00  0.00    +0.087 C 
BRANCH  26  27
ATOM     27  SG  UNL     1      36.869 -21.242 -17.048  0.00  0.00    -0.133 S 
BRANCH  27  28
ATOM     28  C   UNL     1      36.636 -21.855 -18.731  0.00  0.00    +0.084 C 
BRANCH  28  29
ATOM     29  C   UNL     1      35.399 -21.293 -19.374  0.00  0.00    -0.011 C 
ATOM     30  C   UNL     1      35.455 -20.247 -20.310  0.00  0.00    -0.003 C 
ATOM     31  C   UNL     1      34.253 -19.762 -20.879  0.00  0.00    -0.000 C 
ATOM     32  C   UNL     1      34.175 -21.852 -19.005  0.00  0.00    -0.003 C 
ATOM     33  C   UNL     1      36.678 -19.671 -20.693  0.00  0.00    -0.000 C 
ATOM     34  C   UNL     1      33.031 -20.338 -20.497  0.00  0.00    -0.000 C 
ATOM     35  C   UNL     1      32.994 -21.376 -19.566  0.00  0.00    -0.000 C 
ATOM     36  C   UNL     1      34.310 -18.716 -21.814  0.00  0.00    -0.000 C 
ATOM     37  C   UNL     1      36.715 -18.633 -21.623  0.00  0.00    -0.000 C 
ATOM     38  C   UNL     1      35.533 -18.156 -22.183  0.00  0.00    -0.000 C 
ENDBRANCH  28  29
ENDBRANCH  27  28
ENDBRANCH  26  27
ENDBRANCH   1  26
TORSDOF 15
ENDMDL
MODEL 3
REMARK VINA RESULT:      -9.7      2.060      2.752
REMARK  Name = 449471
REMARK  15 active torsions:
REMARK  status: ('A' for Active; 'I' for Inactive)
REMARK    1  A    between atoms: CA_1  and  N_3
REMARK    2  A    between atoms: CA_1  and  C_19
REMARK    3  A    between atoms: CA_1  and  CB_26
REMARK    4  A    between atoms: C_4  and  C_6
REMARK    5  A    between atoms: C_6  and  C_7
REMARK    6  A    between atoms: C_7  and  CA_8
REMARK    7  A    between atoms: CA_8  and  N_9
REMARK    8  A    between atoms: CA_8  and  C_14
REMARK    9  A    between atoms: C_14  and  O_15
REMARK   10  A    between atoms: N_18  and  CA_21
REMARK   11  A    between atoms: CA_21  and  C_23
REMARK   12  A    between atoms: C_23  and  O_24
REMARK   13  A    between atoms: CB_26  and  SG_27
REMARK   14  A    between atoms: SG_27  and  C_28
REMARK   15  A    between atoms: C_28  and  C_29
REMARK                            x       y       z     vdW  Elec       q    Type
REMARK                         _______ _______ _______ _____ _____    ______ ____
ROOT
ATOM      1  CA  UNL     1      34.356 -23.873 -14.742  0.00  0.00    +0.159 C 
ENDROOT
BRANCH   1   3
ATOM      2  O   UNL     1      31.958 -25.331 -14.069  0.00  0.00    -0.275 OA
ATOM      3  N   UNL     1      33.063 -23.317 -14.420  0.00  0.00    -0.298 N 
ATOM      4  C   UNL     1      31.963 -24.104 -14.108  0.00  0.00    +0.223 C 
ATOM      5  H   UNL     1      32.956 -22.339 -14.422  0.00  0.00    +0.150 HD
BRANCH   4   6
ATOM      6  C   UNL     1      30.734 -23.256 -13.822  0.00  0.00    +0.083 C 
BRANCH   6   7
ATOM      7  C   UNL     1      30.065 -22.749 -15.101  0.00  0.00    -0.001 C 
BRANCH   7   8
ATOM      8  CA  UNL     1      28.905 -23.639 -15.559  0.00  0.00    +0.036 C 
BRANCH   8   9
ATOM      9  N   UNL     1      29.431 -24.923 -16.031  0.00  0.00    +0.389 N 
ATOM     10  H1  UNL     1      30.181 -25.231 -15.412  0.00  0.00    -0.088 HD
ATOM     11  H2  UNL     1      29.793 -24.815 -16.978  0.00  0.00    -0.088 HD
ATOM     12  H3  UNL     1      28.683 -25.617 -16.030  0.00  0.00    -0.088 HD
ENDBRANCH   8   9
BRANCH   8  14
ATOM     13  OXT UNL     1      28.014 -21.815 -16.908  0.00  0.00    -0.253 OA
ATOM     14  C   UNL     1      28.161 -23.018 -16.728  0.00  0.00    +0.293 C 
BRANCH  14  15
ATOM     15  O   UNL     1      27.640 -23.954 -17.563  0.00  0.00    -0.482 OA
ATOM     16  H   UNL     1      27.749 -24.864 -17.372  0.00  0.00    +0.295 HD
ENDBRANCH  14  15
ENDBRANCH   8  14
ENDBRANCH   7   8
ENDBRANCH   6   7
ENDBRANCH   4   6
ENDBRANCH   1   3
BRANCH   1  19
ATOM     17  O   UNL     1      34.945 -24.715 -12.543  0.00  0.00    -0.273 OA
ATOM     18  N   UNL     1      36.238 -23.029 -13.475  0.00  0.00    -0.294 N 
ATOM     19  C   ACE A   1      35.195 -23.944 -13.468  0.00  0.00    +0.242 C 
ATOM     20  H   UNL     1      36.356 -22.453 -14.265  0.00  0.00    +0.150 HD
BRANCH  18  21
ATOM     21  CA  UNL     1      37.157 -22.887 -12.370  0.00  0.00    +0.200 C 
BRANCH  21  23
ATOM     22  OXT UNL     1      39.067 -24.226 -12.969  0.00  0.00    -0.248 OA
ATOM     23  C   UNL     1      38.100 -24.056 -12.236  0.00  0.00    +0.334 C 
BRANCH  23  24
ATOM     24  O   UNL     1      37.773 -24.901 -11.230  0.00  0.00    -0.479 OA
ATOM     25  H   UNL     1      37.342 -25.710 -11.419  0.00  0.00    +0.295 HD
ENDBRANCH  23  24
ENDBRANCH  21  23
ENDBRANCH  18  21
ENDBRANCH   1  19
BRANCH   1  26
ATOM     26  CB  UNL     1      35.045 -23.123 -15.883  0.00  0.00    +0.087 C 
BRANCH  26  27
ATOM     27  SG  UNL     1      34.090 -23.111 -17.436  0.00  0.00    -0.133 S 
BRANCH  27  28
ATOM     28  C   UNL     1      35.272 -22.201 -18.456  0.00  0.00    +0.084 C 
BRANCH  28  29
ATOM     29  C   UNL     1      34.591 -21.267 -19.418  0.00  0.00    -0.011 C 
ATOM     30  C   UNL     1      35.314 -20.373 -20.225  0.00  0.00    -0.003 C 
ATOM     31  C   UNL     1      34.613 -19.519 -21.111  0.00  0.00    -0.000 C 
ATOM     32  C   UNL     1      33.199 -21.319 -19.483  0.00  0.00    -0.003 C 
ATOM     33  C   UNL     1      36.716 -20.307 -20.172  0.00  0.00    -0.000 C 
ATOM     34  C   UNL     1      33.212 -19.586 -21.163  0.00  0.00    -0.000 C 
ATOM     35  C   UNL     1      32.511 -20.480 -20.355  0.00  0.00    -0.000 C 
ATOM     36  C   UNL     1      35.336 -18.625 -21.917  0.00  0.00    -0.000 C 
ATOM     37  C   UNL     1      37.417 -19.412 -20.981  0.00  0.00    -0.000 C 
ATOM     38  C   UNL     1      36.728 -18.572 -21.852  0.00  0.00    -0.000 C 
ENDBRANCH  28  29
ENDBRANCH  27  28
ENDBRANCH  26  27
ENDBRANCH   1  26
TORSDOF 15
ENDMDL
MODEL 4
REMARK VINA RESULT:      -9.7      2.577      5.343
REMARK  Name = 449471
REMARK  15 active torsions:
REMARK  status: ('A' for Active; 'I' for Inactive)
REMARK    1  A    between atoms: CA_1  and  N_3
REMARK    2  A    between atoms: CA_1  and  C_19
REMARK    3  A    between atoms: CA_1  and  CB_26
REMARK    4  A    between atoms: C_4  and  C_6
REMARK    5  A    between atoms: C_6  and  C_7
REMARK    6  A    between atoms: C_7  and  CA_8
REMARK    7  A    between atoms: CA_8  and  N_9
REMARK    8  A    between atoms: CA_8  and  C_14
REMARK    9  A    between atoms: C_14  and  O_15
REMARK   10  A    between atoms: N_18  and  CA_21
REMARK   11  A    between atoms: CA_21  and  C_23
REMARK   12  A    between atoms: C_23  and  O_24
REMARK   13  A    between atoms: CB_26  and  SG_27
REMARK   14  A    between atoms: SG_27  and  C_28
REMARK   15  A    between atoms: C_28  and  C_29
REMARK                            x       y       z     vdW  Elec       q    Type
REMARK                         _______ _______ _______ _____ _____    ______ ____
ROOT
ATOM      1  CA  UNL     1      35.157 -21.729 -18.595  0.00  0.00    +0.159 C 
ENDROOT
BRANCH   1   3
ATOM      2  O   UNL     1      37.352 -20.585 -17.111  0.00  0.00    -0.275 OA
ATOM      3  N   UNL     1      36.026 -22.411 -17.665  0.00  0.00    -0.298 N 
ATOM      4  C   UNL     1      37.060 -21.772 -16.996  0.00  0.00    +0.223 C 
ATOM      5  H   UNL     1      35.879 -23.370 -17.497  0.00  0.00    +0.150 HD
BRANCH   4   6
ATOM      6  C   UNL     1      37.816 -22.730 -16.090  0.00  0.00    +0.083 C 
BRANCH   6   7
ATOM      7  C   UNL     1      37.016 -23.107 -14.842  0.00  0.00    -0.001 C 
BRANCH   7   8
ATOM      8  CA  UNL     1      37.073 -24.606 -14.528  0.00  0.00    +0.036 C 
BRANCH   8   9
ATOM      9  N   UNL     1      38.314 -25.171 -15.064  0.00  0.00    +0.389 N 
ATOM     10  H1  UNL     1      38.998 -24.426 -15.196  0.00  0.00    -0.088 HD
ATOM     11  H2  UNL     1      38.123 -25.620 -15.959  0.00  0.00    -0.088 HD
ATOM     12  H3  UNL     1      38.683 -25.860 -14.409  0.00  0.00    -0.088 HD
ENDBRANCH   8   9
BRANCH   8  14
ATOM     13  OXT UNL     1      35.000 -24.826 -15.790  0.00  0.00    -0.253 OA
ATOM     14  C   UNL     1      35.931 -25.353 -15.194  0.00  0.00    +0.293 C 
BRANCH  14  15
ATOM     15  O   UNL     1      36.034 -26.698 -15.037  0.00  0.00    -0.482 OA
ATOM     16  H   UNL     1      35.683 -27.274 -15.687  0.00  0.00    +0.295 HD
ENDBRANCH  14  15
ENDBRANCH   8  14
ENDBRANCH   7   8
ENDBRANCH   6   7
ENDBRANCH   4   6
ENDBRANCH   1   3
BRANCH   1  19
ATOM     17  O   UNL     1      33.005 -22.412 -19.486  0.00  0.00    -0.273 OA
ATOM     18  N   UNL     1      33.463 -22.816 -17.248  0.00  0.00    -0.294 N 
ATOM     19  C   ACE A   1      33.765 -22.355 -18.521  0.00  0.00    +0.242 C 
ATOM     20  H   UNL     1      34.141 -22.723 -16.539  0.00  0.00    +0.150 HD
BRANCH  18  21
ATOM     21  CA  UNL     1      32.196 -23.425 -16.920  0.00  0.00    +0.200 C 
BRANCH  21  23
ATOM     22  OXT UNL     1      30.630 -22.790 -15.204  0.00  0.00    -0.248 OA
ATOM     23  C   UNL     1      31.762 -23.151 -15.502  0.00  0.00    +0.334 C 
BRANCH  23  24
ATOM     24  O   UNL     1      32.744 -23.342 -14.590  0.00  0.00    -0.479 OA
ATOM     25  H   UNL     1      32.770 -22.819 -13.813  0.00  0.00    +0.295 HD
ENDBRANCH  23  24
ENDBRANCH  21  23
ENDBRANCH  18  21
ENDBRANCH   1  19
BRANCH   1  26
ATOM     26  CB  UNL     1      35.732 -21.694 -20.012  0.00  0.00    +0.087 C 
BRANCH  26  27
ATOM     27  SG  UNL     1      36.193 -20.022 -20.575  0.00  0.00    -0.133 S 
BRANCH  27  28
ATOM     28  C   UNL     1      34.553 -19.465 -21.090  0.00  0.00    +0.084 C 
BRANCH  28  29
ATOM     29  C   UNL     1      34.607 -18.600 -22.318  0.00  0.00    -0.011 C 
ATOM     30  C   UNL     1      34.552 -17.199 -22.245  0.00  0.00    -0.003 C 
ATOM     31  C   UNL     1      34.608 -16.440 -23.439  0.00  0.00    -0.000 C 
ATOM     32  C   UNL     1      34.715 -19.244 -23.551  0.00  0.00    -0.003 C 
ATOM     33  C   UNL     1      34.443 -16.533 -21.013  0.00  0.00    -0.000 C 
ATOM     34  C   UNL     1      34.717 -17.106 -24.670  0.00  0.00    -0.000 C 
ATOM     35  C   UNL     1      34.771 -18.498 -24.724  0.00  0.00    -0.000 C 
ATOM     36  C   UNL     1      34.552 -15.039 -23.365  0.00  0.00    -0.000 C 
ATOM     37  C   UNL     1      34.389 -15.140 -20.959  0.00  0.00    -0.000 C 
ATOM     38  C   UNL     1      34.443 -14.394 -22.133  0.00  0.00    -0.000 C 
ENDBRANCH  28  29
ENDBRANCH  27  28
ENDBRANCH  26  27
ENDBRANCH   1  26
TORSDOF 15
ENDMDL
MODEL 5
REMARK VINA RESULT:      -9.6      2.257      5.772
REMARK  Name = 449471
REMARK  15 active torsions:
REMARK  status: ('A' for Active; 'I' for Inactive)
REMARK    1  A    between atoms: CA_1  and  N_3
REMARK    2  A    between atoms: CA_1  and  C_19
REMARK    3  A    between atoms: CA_1  and  CB_26
REMARK    4  A    between atoms: C_4  and  C_6
REMARK    5  A    between atoms: C_6  and  C_7
REMARK    6  A    between atoms: C_7  and  CA_8
REMARK    7  A    between atoms: CA_8  and  N_9
REMARK    8  A    between atoms: CA_8  and  C_14
REMARK    9  A    between atoms: C_14  and  O_15
REMARK   10  A    between atoms: N_18  and  CA_21
REMARK   11  A    between atoms: CA_21  and  C_23
REMARK   12  A    between atoms: C_23  and  O_24
REMARK   13  A    between atoms: CB_26  and  SG_27
REMARK   14  A    between atoms: SG_27  and  C_28
REMARK   15  A    between atoms: C_28  and  C_29
REMARK                            x       y       z     vdW  Elec       q    Type
REMARK                         _______ _______ _______ _____ _____    ______ ____
ROOT
ATOM      1  CA  UNL     1      33.015 -23.786 -14.453  0.00  0.00    +0.159 C 
ENDROOT
BRANCH   1   3
ATOM      2  O   UNL     1      35.704 -23.331 -13.509  0.00  0.00    -0.275 OA
ATOM      3  N   UNL     1      34.066 -24.768 -14.315  0.00  0.00    -0.298 N 
ATOM      4  C   UNL     1      35.334 -24.451 -13.850  0.00  0.00    +0.223 C 
ATOM      5  H   UNL     1      33.874 -25.701 -14.562  0.00  0.00    +0.150 HD
BRANCH   4   6
ATOM      6  C   UNL     1      36.237 -25.672 -13.817  0.00  0.00    +0.083 C 
BRANCH   6   7
ATOM      7  C   UNL     1      37.227 -25.698 -14.985  0.00  0.00    -0.001 C 
BRANCH   7   8
ATOM      8  CA  UNL     1      38.482 -24.861 -14.719  0.00  0.00    +0.036 C 
BRANCH   8   9
ATOM      9  N   UNL     1      38.624 -23.845 -15.765  0.00  0.00    +0.389 N 
ATOM     10  H1  UNL     1      38.153 -22.989 -15.474  0.00  0.00    -0.088 HD
ATOM     11  H2  UNL     1      38.205 -24.187 -16.629  0.00  0.00    -0.088 HD
ATOM     12  H3  UNL     1      39.614 -23.653 -15.919  0.00  0.00    -0.088 HD
ENDBRANCH   8   9
BRANCH   8  14
ATOM     13  OXT UNL     1      40.257 -26.257 -13.802  0.00  0.00    -0.253 OA
ATOM     14  C   UNL     1      39.736 -25.716 -14.769  0.00  0.00    +0.293 C 
BRANCH  14  15
ATOM     15  O   UNL     1      40.251 -25.802 -16.023  0.00  0.00    -0.482 OA
ATOM     16  H   UNL     1      39.884 -26.405 -16.639  0.00  0.00    +0.295 HD
ENDBRANCH  14  15
ENDBRANCH   8  14
ENDBRANCH   7   8
ENDBRANCH   6   7
ENDBRANCH   4   6
ENDBRANCH   1   3
BRANCH   1  19
ATOM     17  O   UNL     1      31.470 -25.572 -13.895  0.00  0.00    -0.273 OA
ATOM     18  N   UNL     1      30.722 -23.826 -15.227  0.00  0.00    -0.294 N 
ATOM     19  C   ACE A   1      31.667 -24.504 -14.471  0.00  0.00    +0.242 C 
ATOM     20  H   UNL     1      30.977 -22.975 -15.651  0.00  0.00    +0.150 HD
BRANCH  18  21
ATOM     21  CA  UNL     1      29.377 -24.318 -15.416  0.00  0.00    +0.200 C 
BRANCH  21  23
ATOM     22  OXT UNL     1      27.900 -24.365 -17.317  0.00  0.00    -0.248 OA
ATOM     23  C   UNL     1      28.708 -23.743 -16.639  0.00  0.00    +0.334 C 
BRANCH  23  24
ATOM     24  O   UNL     1      29.087 -22.473 -16.915  0.00  0.00    -0.479 OA
ATOM     25  H   UNL     1      28.538 -21.756 -16.670  0.00  0.00    +0.295 HD
ENDBRANCH  23  24
ENDBRANCH  21  23
ENDBRANCH  18  21
ENDBRANCH   1  19
BRANCH   1  26
ATOM     26  CB  UNL     1      33.230 -22.867 -15.657  0.00  0.00    +0.087 C 
BRANCH  26  27
ATOM     27  SG  UNL     1      33.649 -23.756 -17.193  0.00  0.00    -0.133 S 
BRANCH  27  28
ATOM     28  C   UNL     1      33.193 -22.461 -18.369  0.00  0.00    +0.084 C 
BRANCH  28  29
ATOM     29  C   UNL     1      34.397 -21.772 -18.949  0.00  0.00    -0.011 C 
ATOM     30  C   UNL     1      34.282 -20.777 -19.933  0.00  0.00    -0.003 C 
ATOM     31  C   UNL     1      35.455 -20.165 -20.439  0.00  0.00    -0.000 C 
ATOM     32  C   UNL     1      35.649 -22.158 -18.469  0.00  0.00    -0.003 C 
ATOM     33  C   UNL     1      33.030 -20.375 -20.428  0.00  0.00    -0.000 C 
ATOM     34  C   UNL     1      36.706 -20.566 -19.944  0.00  0.00    -0.000 C 
ATOM     35  C   UNL     1      36.801 -21.556 -18.966  0.00  0.00    -0.000 C 
ATOM     36  C   UNL     1      35.340 -19.171 -21.423  0.00  0.00    -0.000 C 
ATOM     37  C   UNL     1      32.936 -19.386 -21.406  0.00  0.00    -0.000 C 
ATOM     38  C   UNL     1      34.088 -18.785 -21.904  0.00  0.00    -0.000 C 
ENDBRANCH  28  29
ENDBRANCH  27  28
ENDBRANCH  26  27
ENDBRANCH   1  26
TORSDOF 15
ENDMDL
MODEL 6
REMARK VINA RESULT:      -9.4      9.795     12.985
REMARK  Name = 449471
REMARK  15 active torsions:
REMARK  status: ('A' for Active; 'I' for Inactive)
REMARK    1  A    between atoms: CA_1  and  N_3
REMARK    2  A    between atoms: CA_1  and  C_19
REMARK    3  A    between atoms: CA_1  and  CB_26
REMARK    4  A    between atoms: C_4  and  C_6
REMARK    5  A    between atoms: C_6  and  C_7
REMARK    6  A    between atoms: C_7  and  CA_8
REMARK    7  A    between atoms: CA_8  and  N_9
REMARK    8  A    between atoms: CA_8  and  C_14
REMARK    9  A    between atoms: C_14  and  O_15
REMARK   10  A    between atoms: N_18  and  CA_21
REMARK   11  A    between atoms: CA_21  and  C_23
REMARK   12  A    between atoms: C_23  and  O_24
REMARK   13  A    between atoms: CB_26  and  SG_27
REMARK   14  A    between atoms: SG_27  and  C_28
REMARK   15  A    between atoms: C_28  and  C_29
REMARK                            x       y       z     vdW  Elec       q    Type
REMARK                         _______ _______ _______ _____ _____    ______ ____
ROOT
ATOM      1  CA  UNL     1      33.183 -13.587 -22.458  0.00  0.00    +0.159 C 
ENDROOT
BRANCH   1   3
ATOM      2  O   UNL     1      32.351 -12.873 -19.788  0.00  0.00    -0.275 OA
ATOM      3  N   UNL     1      32.167 -12.629 -22.091  0.00  0.00    -0.298 N 
ATOM      4  C   UNL     1      31.836 -12.352 -20.773  0.00  0.00    +0.223 C 
ATOM      5  H   UNL     1      31.689 -12.151 -22.807  0.00  0.00    +0.150 HD
BRANCH   4   6
ATOM      6  C   UNL     1      30.730 -11.313 -20.682  0.00  0.00    +0.083 C 
BRANCH   6   7
ATOM      7  C   UNL     1      31.148 -10.084 -19.871  0.00  0.00    -0.001 C 
BRANCH   7   8
ATOM      8  CA  UNL     1      32.381  -9.382 -20.450  0.00  0.00    +0.036 C 
BRANCH   8   9
ATOM      9  N   UNL     1      32.672  -8.179 -19.665  0.00  0.00    +0.389 N 
ATOM     10  H1  UNL     1      33.421  -8.379 -19.002  0.00  0.00    -0.088 HD
ATOM     11  H2  UNL     1      31.835  -7.894 -19.157  0.00  0.00    -0.088 HD
ATOM     12  H3  UNL     1      32.963  -7.428 -20.291  0.00  0.00    -0.088 HD
ENDBRANCH   8   9
BRANCH   8  14
ATOM     13  OXT UNL     1      31.334  -8.057 -22.208  0.00  0.00    -0.253 OA
ATOM     14  C   UNL     1      32.135  -8.922 -21.876  0.00  0.00    +0.293 C 
BRANCH  14  15
ATOM     15  O   UNL     1      32.894  -9.601 -22.774  0.00  0.00    -0.482 OA
ATOM     16  H   UNL     1      32.777  -9.454 -23.692  0.00  0.00    +0.295 HD
ENDBRANCH  14  15
ENDBRANCH   8  14
ENDBRANCH   7   8
ENDBRANCH   6   7
ENDBRANCH   4   6
ENDBRANCH   1   3
BRANCH   1  19
ATOM     17  O   UNL     1      33.586 -14.289 -24.745  0.00  0.00    -0.273 OA
ATOM     18  N   UNL     1      33.884 -12.054 -24.196  0.00  0.00    -0.294 N 
ATOM     19  C   ACE A   1      33.559 -13.375 -23.923  0.00  0.00    +0.242 C 
ATOM     20  H   UNL     1      33.831 -11.394 -23.467  0.00  0.00    +0.150 HD
BRANCH  18  21
ATOM     21  CA  UNL     1      34.296 -11.608 -25.506  0.00  0.00    +0.200 C 
BRANCH  21  23
ATOM     22  OXT UNL     1      35.804  -9.984 -26.448  0.00  0.00    -0.248 OA
ATOM     23  C   UNL     1      35.250 -10.442 -25.456  0.00  0.00    +0.334 C 
BRANCH  23  24
ATOM     24  O   UNL     1      35.438  -9.951 -24.209  0.00  0.00    -0.479 OA
ATOM     25  H   UNL     1      34.903  -9.249 -23.896  0.00  0.00    +0.295 HD
ENDBRANCH  23  24
ENDBRANCH  21  23
ENDBRANCH  18  21
ENDBRANCH   1  19
BRANCH   1  26
ATOM     26  CB  UNL     1      32.770 -15.025 -22.139  0.00  0.00    +0.087 C 
BRANCH  26  27
ATOM     27  SG  UNL     1      33.981 -15.928 -21.117  0.00  0.00    -0.133 S 
BRANCH  27  28
ATOM     28  C   UNL     1      34.145 -17.398 -22.155  0.00  0.00    +0.084 C 
BRANCH  28  29
ATOM     29  C   UNL     1      35.028 -18.440 -21.527  0.00  0.00    -0.011 C 
ATOM     30  C   UNL     1      34.503 -19.522 -20.801  0.00  0.00    -0.003 C 
ATOM     31  C   UNL     1      35.389 -20.470 -20.234  0.00  0.00    -0.000 C 
ATOM     32  C   UNL     1      36.406 -18.295 -21.692  0.00  0.00    -0.003 C 
ATOM     33  C   UNL     1      33.119 -19.684 -20.625  0.00  0.00    -0.000 C 
ATOM     34  C   UNL     1      36.772 -20.308 -20.411  0.00  0.00    -0.000 C 
ATOM     35  C   UNL     1      37.276 -19.228 -21.135  0.00  0.00    -0.000 C 
ATOM     36  C   UNL     1      34.864 -21.551 -19.508  0.00  0.00    -0.000 C 
ATOM     37  C   UNL     1      32.615 -20.764 -19.900  0.00  0.00    -0.000 C 
ATOM     38  C   UNL     1      33.486 -21.696 -19.343  0.00  0.00    -0.000 C 
ENDBRANCH  28  29
ENDBRANCH  27  28
ENDBRANCH  26  27
ENDBRANCH   1  26
TORSDOF 15
ENDMDL
MODEL 7
REMARK VINA RESULT:      -9.3      2.959      4.597
REMARK  Name = 449471
REMARK  15 active torsions:
REMARK  status: ('A' for Active; 'I' for Inactive)
REMARK    1  A    between atoms: CA_1  and  N_3
REMARK    2  A    between atoms: CA_1  and  C_19
REMARK    3  A    between atoms: CA_1  and  CB_26
REMARK    4  A    between atoms: C_4  and  C_6
REMARK    5  A    between atoms: C_6  and  C_7
REMARK    6  A    between atoms: C_7  and  CA_8
REMARK    7  A    between atoms: CA_8  and  N_9
REMARK    8  A    between atoms: CA_8  and  C_14
REMARK    9  A    between atoms: C_14  and  O_15
REMARK   10  A    between atoms: N_18  and  CA_21
REMARK   11  A    between atoms: CA_21  and  C_23
REMARK   12  A    between atoms: C_23  and  O_24
REMARK   13  A    between atoms: CB_26  and  SG_27
REMARK   14  A    between atoms: SG_27  and  C_28
REMARK   15  A    between atoms: C_28  and  C_29
REMARK                            x       y       z     vdW  Elec       q    Type
REMARK                         _______ _______ _______ _____ _____    ______ ____
ROOT
ATOM      1  CA  UNL     1      34.982 -22.163 -19.186  0.00  0.00    +0.159 C 
ENDROOT
BRANCH   1   3
ATOM      2  O   UNL     1      33.739 -24.073 -17.415  0.00  0.00    -0.275 OA
ATOM      3  N   UNL     1      33.711 -22.026 -18.513  0.00  0.00    -0.298 N 
ATOM      4  C   UNL     1      33.195 -23.004 -17.676  0.00  0.00    +0.223 C 
ATOM      5  H   UNL     1      33.189 -21.203 -18.653  0.00  0.00    +0.150 HD
BRANCH   4   6
ATOM      6  C   UNL     1      31.842 -22.600 -17.113  0.00  0.00    +0.083 C 
BRANCH   6   7
ATOM      7  C   UNL     1      31.153 -23.747 -16.370  0.00  0.00    -0.001 C 
BRANCH   7   8
ATOM      8  CA  UNL     1      29.823 -23.329 -15.733  0.00  0.00    +0.036 C 
BRANCH   8   9
ATOM      9  N   UNL     1      29.388 -24.361 -14.788  0.00  0.00    +0.389 N 
ATOM     10  H1  UNL     1      28.551 -24.041 -14.299  0.00  0.00    -0.088 HD
ATOM     11  H2  UNL     1      30.130 -24.538 -14.113  0.00  0.00    -0.088 HD
ATOM     12  H3  UNL     1      29.177 -25.220 -15.297  0.00  0.00    -0.088 HD
ENDBRANCH   8   9
BRANCH   8  14
ATOM     13  OXT UNL     1      28.196 -24.146 -17.354  0.00  0.00    -0.253 OA
ATOM     14  C   UNL     1      28.727 -23.205 -16.777  0.00  0.00    +0.293 C 
BRANCH  14  15
ATOM     15  O   UNL     1      28.404 -21.911 -17.032  0.00  0.00    -0.482 OA
ATOM     16  H   UNL     1      27.827 -21.703 -17.741  0.00  0.00    +0.295 HD
ENDBRANCH  14  15
ENDBRANCH   8  14
ENDBRANCH   7   8
ENDBRANCH   6   7
ENDBRANCH   4   6
ENDBRANCH   1   3
BRANCH   1  19
ATOM     17  O   UNL     1      36.826 -20.723 -18.541  0.00  0.00    -0.273 OA
ATOM     18  N   UNL     1      36.174 -22.416 -17.094  0.00  0.00    -0.294 N 
ATOM     19  C   ACE A   1      36.089 -21.666 -18.258  0.00  0.00    +0.242 C 
ATOM     20  H   UNL     1      35.536 -23.154 -16.959  0.00  0.00    +0.150 HD
BRANCH  18  21
ATOM     21  CA  UNL     1      37.160 -22.156 -16.070  0.00  0.00    +0.200 C 
BRANCH  21  23
ATOM     22  OXT UNL     1      37.816 -23.204 -14.004  0.00  0.00    -0.248 OA
ATOM     23  C   UNL     1      37.352 -23.321 -15.132  0.00  0.00    +0.334 C 
BRANCH  23  24
ATOM     24  O   UNL     1      36.964 -24.507 -15.656  0.00  0.00    -0.479 OA
ATOM     25  H   UNL     1      37.317 -24.797 -16.473  0.00  0.00    +0.295 HD
ENDBRANCH  23  24
ENDBRANCH  21  23
ENDBRANCH  18  21
ENDBRANCH   1  19
BRANCH   1  26
ATOM     26  CB  UNL     1      34.990 -21.486 -20.558  0.00  0.00    +0.087 C 
BRANCH  26  27
ATOM     27  SG  UNL     1      33.914 -20.017 -20.659  0.00  0.00    -0.133 S 
BRANCH  27  28
ATOM     28  C   UNL     1      35.173 -18.811 -21.132  0.00  0.00    +0.084 C 
BRANCH  28  29
ATOM     29  C   UNL     1      34.875 -18.169 -22.458  0.00  0.00    -0.011 C 
ATOM     30  C   UNL     1      34.623 -16.792 -22.579  0.00  0.00    -0.003 C 
ATOM     31  C   UNL     1      34.348 -16.249 -23.857  0.00  0.00    -0.000 C 
ATOM     32  C   UNL     1      34.856 -18.997 -23.581  0.00  0.00    -0.003 C 
ATOM     33  C   UNL     1      34.638 -15.943 -21.461  0.00  0.00    -0.000 C 
ATOM     34  C   UNL     1      34.334 -17.097 -24.975  0.00  0.00    -0.000 C 
ATOM     35  C   UNL     1      34.587 -18.462 -24.837  0.00  0.00    -0.000 C 
ATOM     36  C   UNL     1      34.096 -14.873 -23.978  0.00  0.00    -0.000 C 
ATOM     37  C   UNL     1      34.385 -14.579 -21.599  0.00  0.00    -0.000 C 
ATOM     38  C   UNL     1      34.114 -14.044 -22.856  0.00  0.00    -0.000 C 
ENDBRANCH  28  29
ENDBRANCH  27  28
ENDBRANCH  26  27
ENDBRANCH   1  26
TORSDOF 15
ENDMDL
MODEL 8
REMARK VINA RESULT:      -9.2      8.889     12.108
REMARK  Name = 449471
REMARK  15 active torsions:
REMARK  status: ('A' for Active; 'I' for Inactive)
REMARK    1  A    between atoms: CA_1  and  N_3
REMARK    2  A    between atoms: CA_1  and  C_19
REMARK    3  A    between atoms: CA_1  and  CB_26
REMARK    4  A    between atoms: C_4  and  C_6
REMARK    5  A    between atoms: C_6  and  C_7
REMARK    6  A    between atoms: C_7  and  CA_8
REMARK    7  A    between atoms: CA_8  and  N_9
REMARK    8  A    between atoms: CA_8  and  C_14
REMARK    9  A    between atoms: C_14  and  O_15
REMARK   10  A    between atoms: N_18  and  CA_21
REMARK   11  A    between atoms: CA_21  and  C_23
REMARK   12  A    between atoms: C_23  and  O_24
REMARK   13  A    between atoms: CB_26  and  SG_27
REMARK   14  A    between atoms: SG_27  and  C_28
REMARK   15  A    between atoms: C_28  and  C_29
REMARK                            x       y       z     vdW  Elec       q    Type
REMARK                         _______ _______ _______ _____ _____    ______ ____
ROOT
ATOM      1  CA  UNL     1      33.821 -15.789 -23.081  0.00  0.00    +0.159 C 
ENDROOT
BRANCH   1   3
ATOM      2  O   UNL     1      33.392 -17.652 -20.919  0.00  0.00    -0.275 OA
ATOM      3  N   UNL     1      34.741 -16.797 -22.606  0.00  0.00    -0.298 N 
ATOM      4  C   UNL     1      34.442 -17.651 -21.554  0.00  0.00    +0.223 C 
ATOM      5  H   UNL     1      35.616 -16.882 -23.048  0.00  0.00    +0.150 HD
BRANCH   4   6
ATOM      6  C   UNL     1      35.592 -18.601 -21.263  0.00  0.00    +0.083 C 
BRANCH   6   7
ATOM      7  C   UNL     1      35.165 -20.069 -21.317  0.00  0.00    -0.001 C 
BRANCH   7   8
ATOM      8  CA  UNL     1      34.880 -20.657 -19.931  0.00  0.00    +0.036 C 
BRANCH   8   9
ATOM      9  N   UNL     1      35.752 -21.812 -19.700  0.00  0.00    +0.389 N 
ATOM     10  H1  UNL     1      36.098 -21.789 -18.740  0.00  0.00    -0.088 HD
ATOM     11  H2  UNL     1      36.539 -21.777 -20.346  0.00  0.00    -0.088 HD
ATOM     12  H3  UNL     1      35.223 -22.671 -19.851  0.00  0.00    -0.088 HD
ENDBRANCH   8   9
BRANCH   8  14
ATOM     13  OXT UNL     1      33.130 -22.297 -19.498  0.00  0.00    -0.253 OA
ATOM     14  C   UNL     1      33.451 -21.163 -19.829  0.00  0.00    +0.293 C 
BRANCH  14  15
ATOM     15  O   UNL     1      32.543 -20.214 -20.176  0.00  0.00    -0.482 OA
ATOM     16  H   UNL     1      32.687 -19.319 -19.939  0.00  0.00    +0.295 HD
ENDBRANCH  14  15
ENDBRANCH   8  14
ENDBRANCH   7   8
ENDBRANCH   6   7
ENDBRANCH   4   6
ENDBRANCH   1   3
BRANCH   1  19
ATOM     17  O   UNL     1      34.634 -16.456 -25.268  0.00  0.00    -0.273 OA
ATOM     18  N   UNL     1      33.058 -14.759 -25.134  0.00  0.00    -0.294 N 
ATOM     19  C   ACE A   1      33.894 -15.731 -24.605  0.00  0.00    +0.242 C 
ATOM     20  H   UNL     1      32.503 -14.227 -24.519  0.00  0.00    +0.150 HD
BRANCH  18  21
ATOM     21  CA  UNL     1      32.969 -14.495 -26.551  0.00  0.00    +0.200 C 
BRANCH  21  23
ATOM     22  OXT UNL     1      33.547 -12.171 -26.297  0.00  0.00    -0.248 OA
ATOM     23  C   UNL     1      33.637 -13.204 -26.951  0.00  0.00    +0.334 C 
BRANCH  23  24
ATOM     24  O   UNL     1      34.344 -13.295 -28.101  0.00  0.00    -0.479 OA
ATOM     25  H   UNL     1      35.166 -12.854 -28.183  0.00  0.00    +0.295 HD
ENDBRANCH  23  24
ENDBRANCH  21  23
ENDBRANCH  18  21
ENDBRANCH   1  19
BRANCH   1  26
ATOM     26  CB  UNL     1      34.047 -14.433 -22.410  0.00  0.00    +0.087 C 
BRANCH  26  27
ATOM     27  SG  UNL     1      32.776 -14.004 -21.175  0.00  0.00    -0.133 S 
BRANCH  27  28
ATOM     28  C   UNL     1      32.009 -12.630 -22.064  0.00  0.00    +0.084 C 
BRANCH  28  29
ATOM     29  C   UNL     1      31.905 -11.393 -21.215  0.00  0.00    -0.011 C 
ATOM     30  C   UNL     1      32.126 -10.110 -21.741  0.00  0.00    -0.003 C 
ATOM     31  C   UNL     1      32.012  -8.984 -20.890  0.00  0.00    -0.000 C 
ATOM     32  C   UNL     1      31.577 -11.565 -19.870  0.00  0.00    -0.003 C 
ATOM     33  C   UNL     1      32.457  -9.918 -23.093  0.00  0.00    -0.000 C 
ATOM     34  C   UNL     1      31.681  -9.176 -19.539  0.00  0.00    -0.000 C 
ATOM     35  C   UNL     1      31.465 -10.458 -19.034  0.00  0.00    -0.000 C 
ATOM     36  C   UNL     1      32.234  -7.701 -21.415  0.00  0.00    -0.000 C 
ATOM     37  C   UNL     1      32.673  -8.636 -23.597  0.00  0.00    -0.000 C 
ATOM     38  C   UNL     1      32.562  -7.529 -22.760  0.00  0.00    -0.000 C 
ENDBRANCH  28  29
ENDBRANCH  27  28
ENDBRANCH  26  27
ENDBRANCH   1  26
TORSDOF 15
ENDMDL
MODEL 9
REMARK VINA RESULT:      -9.0      2.164      3.309
REMARK  Name = 449471
REMARK  15 active torsions:
REMARK  status: ('A' for Active; 'I' for Inactive)
REMARK    1  A    between atoms: CA_1  and  N_3
REMARK    2  A    between atoms: CA_1  and  C_19
REMARK    3  A    between atoms: CA_1  and  CB_26
REMARK    4  A    between atoms: C_4  and  C_6
REMARK    5  A    between atoms: C_6  and  C_7
REMARK    6  A    between atoms: C_7  and  CA_8
REMARK    7  A    between atoms: CA_8  and  N_9
REMARK    8  A    between atoms: CA_8  and  C_14
REMARK    9  A    between atoms: C_14  and  O_15
REMARK   10  A    between atoms: N_18  and  CA_21
REMARK   11  A    between atoms: CA_21  and  C_23
REMARK   12  A    between atoms: C_23  and  O_24
REMARK   13  A    between atoms: CB_26  and  SG_27
REMARK   14  A    between atoms: SG_27  and  C_28
REMARK   15  A    between atoms: C_28  and  C_29
REMARK                            x       y       z     vdW  Elec       q    Type
REMARK                         _______ _______ _______ _____ _____    ______ ____
ROOT
ATOM      1  CA  UNL     1      34.257 -24.043 -15.387  0.00  0.00    +0.159 C 
ENDROOT
BRANCH   1   3
ATOM      2  O   UNL     1      32.090 -25.550 -14.220  0.00  0.00    -0.275 OA
ATOM      3  N   UNL     1      33.057 -23.514 -14.783  0.00  0.00    -0.298 N 
ATOM      4  C   UNL     1      32.066 -24.323 -14.245  0.00  0.00    +0.223 C 
ATOM      5  H   UNL     1      32.936 -22.537 -14.751  0.00  0.00    +0.150 HD
BRANCH   4   6
ATOM      6  C   UNL     1      30.916 -23.501 -13.687  0.00  0.00    +0.083 C 
BRANCH   6   7
ATOM      7  C   UNL     1      30.099 -22.818 -14.787  0.00  0.00    -0.001 C 
BRANCH   7   8
ATOM      8  CA  UNL     1      28.850 -23.613 -15.181  0.00  0.00    +0.036 C 
BRANCH   8   9
ATOM      9  N   UNL     1      29.091 -25.042 -14.965  0.00  0.00    +0.389 N 
ATOM     10  H1  UNL     1      30.040 -25.178 -14.615  0.00  0.00    -0.088 HD
ATOM     11  H2  UNL     1      28.978 -25.543 -15.846  0.00  0.00    -0.088 HD
ATOM     12  H3  UNL     1      28.422 -25.400 -14.282  0.00  0.00    -0.088 HD
ENDBRANCH   8   9
BRANCH   8  14
ATOM     13  OXT UNL     1      27.871 -24.227 -17.327  0.00  0.00    -0.253 OA
ATOM     14  C   UNL     1      28.531 -23.444 -16.656  0.00  0.00    +0.293 C 
BRANCH  14  15
ATOM     15  O   UNL     1      29.088 -22.320 -17.177  0.00  0.00    -0.482 OA
ATOM     16  H   UNL     1      28.854 -21.480 -16.835  0.00  0.00    +0.295 HD
ENDBRANCH  14  15
ENDBRANCH   8  14
ENDBRANCH   7   8
ENDBRANCH   6   7
ENDBRANCH   4   6
ENDBRANCH   1   3
BRANCH   1  19
ATOM     17  O   UNL     1      35.749 -23.210 -13.665  0.00  0.00    -0.273 OA
ATOM     18  N   UNL     1      35.802 -25.470 -14.189  0.00  0.00    -0.294 N 
ATOM     19  C   ACE A   1      35.337 -24.170 -14.315  0.00  0.00    +0.242 C 
ATOM     20  H   UNL     1      35.407 -26.171 -14.757  0.00  0.00    +0.150 HD
BRANCH  18  21
ATOM     21  CA  UNL     1      36.843 -25.839 -13.258  0.00  0.00    +0.200 C 
BRANCH  21  23
ATOM     22  OXT UNL     1      38.809 -26.573 -14.438  0.00  0.00    -0.248 OA
ATOM     23  C   UNL     1      38.228 -25.681 -13.833  0.00  0.00    +0.334 C 
BRANCH  23  24
ATOM     24  O   UNL     1      38.768 -24.459 -13.614  0.00  0.00    -0.479 OA
ATOM     25  H   UNL     1      39.166 -23.990 -14.320  0.00  0.00    +0.295 HD
ENDBRANCH  23  24
ENDBRANCH  21  23
ENDBRANCH  18  21
ENDBRANCH   1  19
BRANCH   1  26
ATOM     26  CB  UNL     1      34.703 -23.232 -16.606  0.00  0.00    +0.087 C 
BRANCH  26  27
ATOM     27  SG  UNL     1      33.325 -22.690 -17.671  0.00  0.00    -0.133 S 
BRANCH  27  28
ATOM     28  C   UNL     1      34.118 -22.961 -19.271  0.00  0.00    +0.084 C 
BRANCH  28  29
ATOM     29  C   UNL     1      34.959 -21.789 -19.695  0.00  0.00    -0.011 C 
ATOM     30  C   UNL     1      34.390 -20.615 -20.215  0.00  0.00    -0.003 C 
ATOM     31  C   UNL     1      35.237 -19.545 -20.596  0.00  0.00    -0.000 C 
ATOM     32  C   UNL     1      36.341 -21.907 -19.550  0.00  0.00    -0.003 C 
ATOM     33  C   UNL     1      33.001 -20.478 -20.368  0.00  0.00    -0.000 C 
ATOM     34  C   UNL     1      36.625 -19.682 -20.443  0.00  0.00    -0.000 C 
ATOM     35  C   UNL     1      37.173 -20.855 -19.923  0.00  0.00    -0.000 C 
ATOM     36  C   UNL     1      34.668 -18.372 -21.117  0.00  0.00    -0.000 C 
ATOM     37  C   UNL     1      32.453 -19.305 -20.888  0.00  0.00    -0.000 C 
ATOM     38  C   UNL     1      33.286 -18.253 -21.262  0.00  0.00    -0.000 C 
ENDBRANCH  28  29
ENDBRANCH  27  28
ENDBRANCH  26  27
ENDBRANCH   1  26
TORSDOF 15
ENDMDL
