MODEL 1
REMARK VINA RESULT:      -8.4      0.000      0.000
REMARK  Name = 697959
REMARK  5 active torsions:
REMARK  status: ('A' for Active; 'I' for Inactive)
REMARK    1  A    between atoms: C_1  and  C_11
REMARK    2  A    between atoms: C_2  and  C_8
REMARK    3  A    between atoms: C_8  and  O_9
REMARK    4  A    between atoms: C_12  and  C_14
REMARK    5  A    between atoms: C_14  and  O_15
REMARK                            x       y       z     vdW  Elec       q    Type
REMARK                         _______ _______ _______ _____ _____    ______ ____
ROOT
ATOM      1  C   UNL     1      34.607 -19.280 -21.417  0.00  0.00    +0.000 C 
ATOM      2  C   UNL     1      34.187 -21.308 -19.548  0.00  0.00    +0.075 C 
ATOM      3  C   UNL     1      33.310 -19.597 -21.011  0.00  0.00    +0.000 C 
ATOM      4  C   UNL     1      35.693 -19.979 -20.889  0.00  0.00    +0.000 C 
ATOM      5  C   UNL     1      33.101 -20.611 -20.076  0.00  0.00    +0.006 C 
ATOM      6  C   UNL     1      35.483 -20.992 -19.954  0.00  0.00    +0.006 C 
ENDROOT
BRANCH   2   8
ATOM      7  O   UNL     1      34.856 -22.982 -17.974  0.00  0.00    -0.245 OA
ATOM      8  C   UNL     1      33.968 -22.365 -18.573  0.00  0.00    +0.338 C 
BRANCH   8   9
ATOM      9  O   UNL     1      32.647 -22.622 -18.371  0.00  0.00    -0.477 OA
ATOM     10  H   UNL     1      32.312 -22.700 -17.499  0.00  0.00    +0.295 HD
ENDBRANCH   8   9
ENDBRANCH   2   8
BRANCH   1  11
ATOM     11  C   UNL     1      34.826 -18.223 -22.392  0.00  0.00    +0.007 C 
ATOM     12  C   UNL     1      34.789 -18.340 -23.723  0.00  0.00    +0.082 C 
BRANCH  12  14
ATOM     13  O   UNL     1      34.770 -17.025 -25.744  0.00  0.00    -0.245 OA
ATOM     14  C   UNL     1      35.036 -17.148 -24.560  0.00  0.00    +0.338 C 
BRANCH  14  15
ATOM     15  O   UNL     1      35.612 -16.192 -23.795  0.00  0.00    -0.477 OA
ATOM     16  H   UNL     1      35.112 -15.450 -23.517  0.00  0.00    +0.295 HD
ENDBRANCH  14  15
ENDBRANCH  12  14
ENDBRANCH   1  11
TORSDOF 5
ENDMDL
MODEL 2
REMARK VINA RESULT:      -8.0      1.229      2.047
REMARK  Name = 697959
REMARK  5 active torsions:
REMARK  status: ('A' for Active; 'I' for Inactive)
REMARK    1  A    between atoms: C_1  and  C_11
REMARK    2  A    between atoms: C_2  and  C_8
REMARK    3  A    between atoms: C_8  and  O_9
REMARK    4  A    between atoms: C_12  and  C_14
REMARK    5  A    between atoms: C_14  and  O_15
REMARK                            x       y       z     vdW  Elec       q    Type
REMARK                         _______ _______ _______ _____ _____    ______ ____
ROOT
ATOM      1  C   UNL     1      34.498 -19.253 -21.124  0.00  0.00    +0.000 C 
ATOM      2  C   UNL     1      34.369 -21.545 -19.541  0.00  0.00    +0.075 C 
ATOM      3  C   UNL     1      35.672 -19.897 -20.733  0.00  0.00    +0.000 C 
ATOM      4  C   UNL     1      33.260 -19.754 -20.722  0.00  0.00    +0.000 C 
ATOM      5  C   UNL     1      35.607 -21.044 -19.942  0.00  0.00    +0.006 C 
ATOM      6  C   UNL     1      33.196 -20.901 -19.931  0.00  0.00    +0.006 C 
ENDROOT
BRANCH   2   8
ATOM      7  O   UNL     1      34.601 -22.803 -17.518  0.00  0.00    -0.245 OA
ATOM      8  C   UNL     1      34.302 -22.741 -18.715  0.00  0.00    +0.338 C 
BRANCH   8   9
ATOM      9  O   UNL     1      33.861 -23.827 -19.407  0.00  0.00    -0.477 OA
ATOM     10  H   UNL     1      33.732 -23.772 -20.334  0.00  0.00    +0.295 HD
ENDBRANCH   8   9
ENDBRANCH   2   8
BRANCH   1  11
ATOM     11  C   UNL     1      34.565 -18.057 -21.950  0.00  0.00    +0.007 C 
ATOM     12  C   UNL     1      34.853 -16.817 -21.543  0.00  0.00    +0.082 C 
BRANCH  12  14
ATOM     13  O   UNL     1      34.312 -14.643 -22.434  0.00  0.00    -0.245 OA
ATOM     14  C   UNL     1      34.877 -15.719 -22.532  0.00  0.00    +0.338 C 
BRANCH  14  15
ATOM     15  O   UNL     1      35.641 -16.098 -23.582  0.00  0.00    -0.477 OA
ATOM     16  H   UNL     1      35.935 -16.986 -23.652  0.00  0.00    +0.295 HD
ENDBRANCH  14  15
ENDBRANCH  12  14
ENDBRANCH   1  11
TORSDOF 5
ENDMDL
MODEL 3
REMARK VINA RESULT:      -7.6      0.938      1.970
REMARK  Name = 697959
REMARK  5 active torsions:
REMARK  status: ('A' for Active; 'I' for Inactive)
REMARK    1  A    between atoms: C_1  and  C_11
REMARK    2  A    between atoms: C_2  and  C_8
REMARK    3  A    between atoms: C_8  and  O_9
REMARK    4  A    between atoms: C_12  and  C_14
REMARK    5  A    between atoms: C_14  and  O_15
REMARK                            x       y       z     vdW  Elec       q    Type
REMARK                         _______ _______ _______ _____ _____    ______ ____
ROOT
ATOM      1  C   UNL     1      34.871 -18.782 -21.544  0.00  0.00    +0.000 C 
ATOM      2  C   UNL     1      35.006 -20.971 -19.820  0.00  0.00    +0.075 C 
ATOM      3  C   UNL     1      36.108 -19.223 -21.071  0.00  0.00    +0.000 C 
ATOM      4  C   UNL     1      33.702 -19.436 -21.153  0.00  0.00    +0.000 C 
ATOM      5  C   UNL     1      36.175 -20.318 -20.210  0.00  0.00    +0.006 C 
ATOM      6  C   UNL     1      33.770 -20.530 -20.292  0.00  0.00    +0.006 C 
ENDROOT
BRANCH   2   8
ATOM      7  O   UNL     1      34.223 -23.001 -18.824  0.00  0.00    -0.245 OA
ATOM      8  C   UNL     1      35.076 -22.113 -18.922  0.00  0.00    +0.338 C 
BRANCH   8   9
ATOM      9  O   UNL     1      36.211 -22.114 -18.170  0.00  0.00    -0.477 OA
ATOM     10  H   UNL     1      37.021 -21.825 -18.542  0.00  0.00    +0.295 HD
ENDBRANCH   8   9
ENDBRANCH   2   8
BRANCH   1  11
ATOM     11  C   UNL     1      34.801 -17.640 -22.443  0.00  0.00    +0.007 C 
ATOM     12  C   UNL     1      34.660 -17.674 -23.771  0.00  0.00    +0.082 C 
BRANCH  12  14
ATOM     13  O   UNL     1      34.397 -15.294 -24.062  0.00  0.00    -0.245 OA
ATOM     14  C   UNL     1      34.606 -16.403 -24.524  0.00  0.00    +0.338 C 
BRANCH  14  15
ATOM     15  O   UNL     1      34.832 -16.665 -25.833  0.00  0.00    -0.477 OA
ATOM     16  H   UNL     1      34.974 -15.960 -26.434  0.00  0.00    +0.295 HD
ENDBRANCH  14  15
ENDBRANCH  12  14
ENDBRANCH   1  11
TORSDOF 5
ENDMDL
MODEL 4
REMARK VINA RESULT:      -7.4      1.380      6.533
REMARK  Name = 697959
REMARK  5 active torsions:
REMARK  status: ('A' for Active; 'I' for Inactive)
REMARK    1  A    between atoms: C_1  and  C_11
REMARK    2  A    between atoms: C_2  and  C_8
REMARK    3  A    between atoms: C_8  and  O_9
REMARK    4  A    between atoms: C_12  and  C_14
REMARK    5  A    between atoms: C_14  and  O_15
REMARK                            x       y       z     vdW  Elec       q    Type
REMARK                         _______ _______ _______ _____ _____    ______ ____
ROOT
ATOM      1  C   UNL     1      35.377 -19.017 -21.649  0.00  0.00    +0.000 C 
ATOM      2  C   UNL     1      34.680 -17.176 -23.626  0.00  0.00    +0.075 C 
ATOM      3  C   UNL     1      35.346 -17.653 -21.353  0.00  0.00    +0.000 C 
ATOM      4  C   UNL     1      35.061 -19.459 -22.934  0.00  0.00    +0.000 C 
ATOM      5  C   UNL     1      34.997 -16.734 -22.342  0.00  0.00    +0.006 C 
ATOM      6  C   UNL     1      34.712 -18.539 -23.922  0.00  0.00    +0.006 C 
ENDROOT
BRANCH   2   8
ATOM      7  O   UNL     1      33.719 -15.153 -24.466  0.00  0.00    -0.245 OA
ATOM      8  C   UNL     1      34.317 -16.217 -24.657  0.00  0.00    +0.338 C 
BRANCH   8   9
ATOM      9  O   UNL     1      34.710 -16.613 -25.899  0.00  0.00    -0.477 OA
ATOM     10  H   UNL     1      34.129 -17.114 -26.437  0.00  0.00    +0.295 HD
ENDBRANCH   8   9
ENDBRANCH   2   8
BRANCH   1  11
ATOM     11  C   UNL     1      35.741 -19.976 -20.618  0.00  0.00    +0.007 C 
ATOM     12  C   UNL     1      34.946 -20.895 -20.062  0.00  0.00    +0.082 C 
BRANCH  12  14
ATOM     13  O   UNL     1      36.514 -21.617 -18.379  0.00  0.00    -0.245 OA
ATOM     14  C   UNL     1      35.493 -21.792 -19.023  0.00  0.00    +0.338 C 
BRANCH  14  15
ATOM     15  O   UNL     1      34.669 -22.857 -18.890  0.00  0.00    -0.477 OA
ATOM     16  H   UNL     1      34.433 -23.363 -19.643  0.00  0.00    +0.295 HD
ENDBRANCH  14  15
ENDBRANCH  12  14
ENDBRANCH   1  11
TORSDOF 5
ENDMDL
MODEL 5
REMARK VINA RESULT:      -7.4      1.401      6.528
REMARK  Name = 697959
REMARK  5 active torsions:
REMARK  status: ('A' for Active; 'I' for Inactive)
REMARK    1  A    between atoms: C_1  and  C_11
REMARK    2  A    between atoms: C_2  and  C_8
REMARK    3  A    between atoms: C_8  and  O_9
REMARK    4  A    between atoms: C_12  and  C_14
REMARK    5  A    between atoms: C_14  and  O_15
REMARK                            x       y       z     vdW  Elec       q    Type
REMARK                         _______ _______ _______ _____ _____    ______ ____
ROOT
ATOM      1  C   UNL     1      35.406 -18.974 -21.636  0.00  0.00    +0.000 C 
ATOM      2  C   UNL     1      34.677 -17.132 -23.601  0.00  0.00    +0.075 C 
ATOM      3  C   UNL     1      35.098 -19.413 -22.924  0.00  0.00    +0.000 C 
ATOM      4  C   UNL     1      35.347 -17.614 -21.331  0.00  0.00    +0.000 C 
ATOM      5  C   UNL     1      34.734 -18.492 -23.907  0.00  0.00    +0.006 C 
ATOM      6  C   UNL     1      34.984 -16.694 -22.313  0.00  0.00    +0.006 C 
ENDROOT
BRANCH   2   8
ATOM      7  O   UNL     1      33.735 -15.091 -24.420  0.00  0.00    -0.245 OA
ATOM      8  C   UNL     1      34.298 -16.172 -24.625  0.00  0.00    +0.338 C 
BRANCH   8   9
ATOM      9  O   UNL     1      34.631 -16.587 -25.878  0.00  0.00    -0.477 OA
ATOM     10  H   UNL     1      35.450 -17.019 -26.026  0.00  0.00    +0.295 HD
ENDBRANCH   8   9
ENDBRANCH   2   8
BRANCH   1  11
ATOM     11  C   UNL     1      35.785 -19.934 -20.612  0.00  0.00    +0.007 C 
ATOM     12  C   UNL     1      35.005 -20.870 -20.063  0.00  0.00    +0.082 C 
BRANCH  12  14
ATOM     13  O   UNL     1      36.626 -21.617 -18.440  0.00  0.00    -0.245 OA
ATOM     14  C   UNL     1      35.568 -21.765 -19.030  0.00  0.00    +0.338 C 
BRANCH  14  15
ATOM     15  O   UNL     1      34.710 -22.793 -18.832  0.00  0.00    -0.477 OA
ATOM     16  H   UNL     1      34.922 -23.648 -19.153  0.00  0.00    +0.295 HD
ENDBRANCH  14  15
ENDBRANCH  12  14
ENDBRANCH   1  11
TORSDOF 5
ENDMDL
MODEL 6
REMARK VINA RESULT:      -7.3      7.876      9.731
REMARK  Name = 697959
REMARK  5 active torsions:
REMARK  status: ('A' for Active; 'I' for Inactive)
REMARK    1  A    between atoms: C_1  and  C_11
REMARK    2  A    between atoms: C_2  and  C_8
REMARK    3  A    between atoms: C_8  and  O_9
REMARK    4  A    between atoms: C_12  and  C_14
REMARK    5  A    between atoms: C_14  and  O_15
REMARK                            x       y       z     vdW  Elec       q    Type
REMARK                         _______ _______ _______ _____ _____    ______ ____
ROOT
ATOM      1  C   UNL     1      31.687 -24.065 -14.552  0.00  0.00    +0.000 C 
ATOM      2  C   UNL     1      29.454 -23.524 -16.135  0.00  0.00    +0.075 C 
ATOM      3  C   UNL     1      31.780 -23.148 -15.600  0.00  0.00    +0.000 C 
ATOM      4  C   UNL     1      30.478 -24.712 -14.297  0.00  0.00    +0.000 C 
ATOM      5  C   UNL     1      30.663 -22.878 -16.391  0.00  0.00    +0.006 C 
ATOM      6  C   UNL     1      29.362 -24.441 -15.088  0.00  0.00    +0.006 C 
ENDROOT
BRANCH   2   8
ATOM      7  O   UNL     1      27.638 -24.083 -17.589  0.00  0.00    -0.245 OA
ATOM      8  C   UNL     1      28.290 -23.243 -16.960  0.00  0.00    +0.338 C 
BRANCH   8   9
ATOM      9  O   UNL     1      27.971 -21.919 -16.975  0.00  0.00    -0.477 OA
ATOM     10  H   UNL     1      27.137 -21.642 -17.301  0.00  0.00    +0.295 HD
ENDBRANCH   8   9
ENDBRANCH   2   8
BRANCH   1  11
ATOM     11  C   UNL     1      32.852 -24.346 -13.727  0.00  0.00    +0.007 C 
ATOM     12  C   UNL     1      34.111 -23.965 -13.962  0.00  0.00    +0.082 C 
BRANCH  12  14
ATOM     13  O   UNL     1      36.366 -24.133 -13.124  0.00  0.00    -0.245 OA
ATOM     14  C   UNL     1      35.171 -24.345 -13.004  0.00  0.00    +0.338 C 
BRANCH  14  15
ATOM     15  O   UNL     1      34.599 -24.974 -11.952  0.00  0.00    -0.477 OA
ATOM     16  H   UNL     1      34.037 -25.710 -12.095  0.00  0.00    +0.295 HD
ENDBRANCH  14  15
ENDBRANCH  12  14
ENDBRANCH   1  11
TORSDOF 5
ENDMDL
MODEL 7
REMARK VINA RESULT:      -7.1      2.006      6.691
REMARK  Name = 697959
REMARK  5 active torsions:
REMARK  status: ('A' for Active; 'I' for Inactive)
REMARK    1  A    between atoms: C_1  and  C_11
REMARK    2  A    between atoms: C_2  and  C_8
REMARK    3  A    between atoms: C_8  and  O_9
REMARK    4  A    between atoms: C_12  and  C_14
REMARK    5  A    between atoms: C_14  and  O_15
REMARK                            x       y       z     vdW  Elec       q    Type
REMARK                         _______ _______ _______ _____ _____    ______ ____
ROOT
ATOM      1  C   UNL     1      35.833 -20.766 -19.686  0.00  0.00    +0.000 C 
ATOM      2  C   UNL     1      35.273 -18.969 -21.745  0.00  0.00    +0.075 C 
ATOM      3  C   UNL     1      36.852 -19.975 -20.218  0.00  0.00    +0.000 C 
ATOM      4  C   UNL     1      34.535 -20.658 -20.185  0.00  0.00    +0.000 C 
ATOM      5  C   UNL     1      36.571 -19.076 -21.247  0.00  0.00    +0.006 C 
ATOM      6  C   UNL     1      34.255 -19.760 -21.214  0.00  0.00    +0.006 C 
ENDROOT
BRANCH   2   8
ATOM      7  O   UNL     1      35.094 -16.804 -22.748  0.00  0.00    -0.245 OA
ATOM      8  C   UNL     1      34.981 -18.032 -22.819  0.00  0.00    +0.338 C 
BRANCH   8   9
ATOM      9  O   UNL     1      34.557 -18.655 -23.952  0.00  0.00    -0.477 OA
ATOM     10  H   UNL     1      33.905 -19.327 -23.902  0.00  0.00    +0.295 HD
ENDBRANCH   8   9
ENDBRANCH   2   8
BRANCH   1  11
ATOM     11  C   UNL     1      36.125 -21.702 -18.612  0.00  0.00    +0.007 C 
ATOM     12  C   UNL     1      36.865 -21.469 -17.524  0.00  0.00    +0.082 C 
BRANCH  12  14
ATOM     13  O   UNL     1      38.073 -22.794 -15.912  0.00  0.00    -0.245 OA
ATOM     14  C   UNL     1      37.053 -22.549 -16.532  0.00  0.00    +0.338 C 
BRANCH  14  15
ATOM     15  O   UNL     1      35.892 -23.235 -16.414  0.00  0.00    -0.477 OA
ATOM     16  H   UNL     1      35.781 -24.048 -16.866  0.00  0.00    +0.295 HD
ENDBRANCH  14  15
ENDBRANCH  12  14
ENDBRANCH   1  11
TORSDOF 5
ENDMDL
MODEL 8
REMARK VINA RESULT:      -7.1      7.109      8.232
REMARK  Name = 697959
REMARK  5 active torsions:
REMARK  status: ('A' for Active; 'I' for Inactive)
REMARK    1  A    between atoms: C_1  and  C_11
REMARK    2  A    between atoms: C_2  and  C_8
REMARK    3  A    between atoms: C_8  and  O_9
REMARK    4  A    between atoms: C_12  and  C_14
REMARK    5  A    between atoms: C_14  and  O_15
REMARK                            x       y       z     vdW  Elec       q    Type
REMARK                         _______ _______ _______ _____ _____    ______ ____
ROOT
ATOM      1  C   UNL     1      31.899 -23.203 -16.050  0.00  0.00    +0.000 C 
ATOM      2  C   UNL     1      34.418 -23.994 -15.149  0.00  0.00    +0.075 C 
ATOM      3  C   UNL     1      32.987 -23.190 -16.922  0.00  0.00    +0.000 C 
ATOM      4  C   UNL     1      32.071 -23.610 -14.726  0.00  0.00    +0.000 C 
ATOM      5  C   UNL     1      34.247 -23.586 -16.472  0.00  0.00    +0.006 C 
ATOM      6  C   UNL     1      33.330 -24.006 -14.277  0.00  0.00    +0.006 C 
ENDROOT
BRANCH   2   8
ATOM      7  O   UNL     1      36.010 -24.723 -13.518  0.00  0.00    -0.245 OA
ATOM      8  C   UNL     1      35.731 -24.406 -14.680  0.00  0.00    +0.338 C 
BRANCH   8   9
ATOM      9  O   UNL     1      36.661 -24.413 -15.674  0.00  0.00    -0.477 OA
ATOM     10  H   UNL     1      36.824 -25.198 -16.158  0.00  0.00    +0.295 HD
ENDBRANCH   8   9
ENDBRANCH   2   8
BRANCH   1  11
ATOM     11  C   UNL     1      30.585 -22.790 -16.519  0.00  0.00    +0.007 C 
ATOM     12  C   UNL     1      29.431 -23.440 -16.343  0.00  0.00    +0.082 C 
BRANCH  12  14
ATOM     13  O   UNL     1      27.796 -21.717 -16.757  0.00  0.00    -0.245 OA
ATOM     14  C   UNL     1      28.186 -22.864 -16.893  0.00  0.00    +0.338 C 
BRANCH  14  15
ATOM     15  O   UNL     1      27.534 -23.825 -17.589  0.00  0.00    -0.477 OA
ATOM     16  H   UNL     1      26.754 -23.612 -18.063  0.00  0.00    +0.295 HD
ENDBRANCH  14  15
ENDBRANCH  12  14
ENDBRANCH   1  11
TORSDOF 5
ENDMDL
MODEL 9
REMARK VINA RESULT:      -7.0      1.306      6.677
REMARK  Name = 697959
REMARK  5 active torsions:
REMARK  status: ('A' for Active; 'I' for Inactive)
REMARK    1  A    between atoms: C_1  and  C_11
REMARK    2  A    between atoms: C_2  and  C_8
REMARK    3  A    between atoms: C_8  and  O_9
REMARK    4  A    between atoms: C_12  and  C_14
REMARK    5  A    between atoms: C_14  and  O_15
REMARK                            x       y       z     vdW  Elec       q    Type
REMARK                         _______ _______ _______ _____ _____    ______ ____
ROOT
ATOM      1  C   UNL     1      34.616 -20.909 -19.814  0.00  0.00    +0.000 C 
ATOM      2  C   UNL     1      34.867 -18.929 -21.763  0.00  0.00    +0.075 C 
ATOM      3  C   UNL     1      35.882 -20.472 -20.205  0.00  0.00    +0.000 C 
ATOM      4  C   UNL     1      33.476 -20.357 -20.399  0.00  0.00    +0.000 C 
ATOM      5  C   UNL     1      36.007 -19.481 -21.179  0.00  0.00    +0.006 C 
ATOM      6  C   UNL     1      33.602 -19.367 -21.373  0.00  0.00    +0.006 C 
ENDROOT
BRANCH   2   8
ATOM      7  O   UNL     1      34.419 -16.805 -22.769  0.00  0.00    -0.245 OA
ATOM      8  C   UNL     1      34.998 -17.896 -22.779  0.00  0.00    +0.338 C 
BRANCH   8   9
ATOM      9  O   UNL     1      35.849 -18.255 -23.779  0.00  0.00    -0.477 OA
ATOM     10  H   UNL     1      35.785 -19.106 -24.167  0.00  0.00    +0.295 HD
ENDBRANCH   8   9
ENDBRANCH   2   8
BRANCH   1  11
ATOM     11  C   UNL     1      34.485 -21.942 -18.798  0.00  0.00    +0.007 C 
ATOM     12  C   UNL     1      33.350 -22.395 -18.258  0.00  0.00    +0.082 C 
BRANCH  12  14
ATOM     13  O   UNL     1      34.394 -24.109 -16.921  0.00  0.00    -0.245 OA
ATOM     14  C   UNL     1      33.411 -23.458 -17.232  0.00  0.00    +0.338 C 
BRANCH  14  15
ATOM     15  O   UNL     1      32.185 -23.597 -16.678  0.00  0.00    -0.477 OA
ATOM     16  H   UNL     1      32.101 -23.910 -15.799  0.00  0.00    +0.295 HD
ENDBRANCH  14  15
ENDBRANCH  12  14
ENDBRANCH   1  11
TORSDOF 5
ENDMDL
