MODEL 1
REMARK VINA RESULT:      -6.5      0.000      0.000
REMARK  Name = 60748
REMARK  7 active torsions:
REMARK  status: ('A' for Active; 'I' for Inactive)
REMARK    1  A    between atoms: O_1  and  C_3
REMARK    2  A    between atoms: O_1  and  C_8
REMARK    3  A    between atoms: C_3  and  C_4
REMARK    4  A    between atoms: C_8  and  O_9
REMARK    5  A    between atoms: O_9  and  C_11
REMARK    6  A    between atoms: C_11  and  C_12
REMARK    7  A    between atoms: C_12  and  C_13
REMARK                            x       y       z     vdW  Elec       q    Type
REMARK                         _______ _______ _______ _____ _____    ______ ____
ROOT
ATOM      1  O   UNL     1      34.006 -16.822 -22.114  0.00  0.00    -0.408 OA
ENDROOT
BRANCH   1   3
ATOM      2  O   UNL     1      35.418 -16.992 -20.305  0.00  0.00    -0.250 OA
ATOM      3  C   UNL     1      34.768 -17.504 -21.209  0.00  0.00    +0.319 C 
BRANCH   3   4
ATOM      4  C   UNL     1      34.702 -19.010 -21.481  0.00  0.00    +0.090 C 
ATOM      5  C   UNL     1      33.389 -19.575 -20.914  0.00  0.00    +0.011 C 
ATOM      6  C   UNL     1      34.740 -19.269 -22.994  0.00  0.00    +0.011 C 
ATOM      7  C   UNL     1      35.886 -19.700 -20.790  0.00  0.00    +0.011 C 
ENDBRANCH   3   4
ENDBRANCH   1   3
BRANCH   1   8
ATOM      8  C   UNL     1      34.563 -15.601 -22.629  0.00  0.00    +0.433 C 
BRANCH   8   9
ATOM      9  O   UNL     1      35.277 -15.769 -23.865  0.00  0.00    -0.408 OA
BRANCH   9  11
ATOM     10  O   UNL     1      34.687 -16.909 -25.784  0.00  0.00    -0.250 OA
ATOM     11  C   UNL     1      34.517 -16.011 -24.971  0.00  0.00    +0.320 C 
BRANCH  11  12
ATOM     12  C   UNL     1      33.389 -15.011 -25.050  0.00  0.00    +0.110 C 
BRANCH  12  13
ATOM     13  C   UNL     1      32.905 -14.820 -26.484  0.00  0.00    +0.012 C 
ATOM     14  C   UNL     1      33.242 -13.443 -27.035  0.00  0.00    +0.001 C 
ENDBRANCH  12  13
ENDBRANCH  11  12
ENDBRANCH   9  11
ENDBRANCH   8   9
ENDBRANCH   1   8
TORSDOF 7
ENDMDL
MODEL 2
REMARK VINA RESULT:      -6.3      2.158      5.300
REMARK  Name = 60748
REMARK  7 active torsions:
REMARK  status: ('A' for Active; 'I' for Inactive)
REMARK    1  A    between atoms: O_1  and  C_3
REMARK    2  A    between atoms: O_1  and  C_8
REMARK    3  A    between atoms: C_3  and  C_4
REMARK    4  A    between atoms: C_8  and  O_9
REMARK    5  A    between atoms: O_9  and  C_11
REMARK    6  A    between atoms: C_11  and  C_12
REMARK    7  A    between atoms: C_12  and  C_13
REMARK                            x       y       z     vdW  Elec       q    Type
REMARK                         _______ _______ _______ _____ _____    ______ ____
ROOT
ATOM      1  O   UNL     1      35.041 -15.782 -22.859  0.00  0.00    -0.408 OA
ENDROOT
BRANCH   1   3
ATOM      2  O   UNL     1      33.192 -14.864 -23.878  0.00  0.00    -0.250 OA
ATOM      3  C   UNL     1      33.821 -15.166 -22.871  0.00  0.00    +0.319 C 
BRANCH   3   4
ATOM      4  C   UNL     1      33.345 -14.896 -21.441  0.00  0.00    +0.090 C 
ATOM      5  C   UNL     1      34.561 -14.807 -20.504  0.00  0.00    +0.011 C 
ATOM      6  C   UNL     1      32.581 -13.565 -21.387  0.00  0.00    +0.011 C 
ATOM      7  C   UNL     1      32.443 -16.050 -20.984  0.00  0.00    +0.011 C 
ENDBRANCH   3   4
ENDBRANCH   1   3
BRANCH   1   8
ATOM      8  C   UNL     1      35.121 -17.056 -23.518  0.00  0.00    +0.433 C 
BRANCH   8   9
ATOM      9  O   UNL     1      35.884 -18.034 -22.791  0.00  0.00    -0.408 OA
BRANCH   9  11
ATOM     10  O   UNL     1      35.654 -18.152 -20.497  0.00  0.00    -0.250 OA
ATOM     11  C   UNL     1      35.332 -18.486 -21.630  0.00  0.00    +0.320 C 
BRANCH  11  12
ATOM     12  C   UNL     1      34.222 -19.463 -21.933  0.00  0.00    +0.110 C 
BRANCH  12  13
ATOM     13  C   UNL     1      33.294 -19.650 -20.737  0.00  0.00    +0.012 C 
ATOM     14  C   UNL     1      33.565 -20.945 -19.985  0.00  0.00    +0.001 C 
ENDBRANCH  12  13
ENDBRANCH  11  12
ENDBRANCH   9  11
ENDBRANCH   8   9
ENDBRANCH   1   8
TORSDOF 7
ENDMDL
MODEL 3
REMARK VINA RESULT:      -6.2      1.923      3.172
REMARK  Name = 60748
REMARK  7 active torsions:
REMARK  status: ('A' for Active; 'I' for Inactive)
REMARK    1  A    between atoms: O_1  and  C_3
REMARK    2  A    between atoms: O_1  and  C_8
REMARK    3  A    between atoms: C_3  and  C_4
REMARK    4  A    between atoms: C_8  and  O_9
REMARK    5  A    between atoms: O_9  and  C_11
REMARK    6  A    between atoms: C_11  and  C_12
REMARK    7  A    between atoms: C_12  and  C_13
REMARK                            x       y       z     vdW  Elec       q    Type
REMARK                         _______ _______ _______ _____ _____    ______ ____
ROOT
ATOM      1  O   UNL     1      34.270 -16.893 -22.521  0.00  0.00    -0.408 OA
ENDROOT
BRANCH   1   3
ATOM      2  O   UNL     1      35.329 -16.849 -20.478  0.00  0.00    -0.250 OA
ATOM      3  C   UNL     1      34.847 -17.464 -21.422  0.00  0.00    +0.319 C 
BRANCH   3   4
ATOM      4  C   UNL     1      34.814 -18.991 -21.533  0.00  0.00    +0.090 C 
ATOM      5  C   UNL     1      34.860 -19.397 -23.016  0.00  0.00    +0.011 C 
ATOM      6  C   UNL     1      36.032 -19.592 -20.818  0.00  0.00    +0.011 C 
ATOM      7  C   UNL     1      33.514 -19.514 -20.909  0.00  0.00    +0.011 C 
ENDBRANCH   3   4
ENDBRANCH   1   3
BRANCH   1   8
ATOM      8  C   UNL     1      35.005 -15.833 -23.153  0.00  0.00    +0.433 C 
BRANCH   8   9
ATOM      9  O   UNL     1      34.749 -14.536 -22.588  0.00  0.00    -0.408 OA
BRANCH   9  11
ATOM     10  O   UNL     1      33.865 -13.190 -24.242  0.00  0.00    -0.250 OA
ATOM     11  C   UNL     1      33.770 -13.801 -23.186  0.00  0.00    +0.320 C 
BRANCH  11  12
ATOM     12  C   UNL     1      32.506 -13.862 -22.363  0.00  0.00    +0.110 C 
BRANCH  12  13
ATOM     13  C   UNL     1      32.808 -13.912 -20.869  0.00  0.00    +0.012 C 
ATOM     14  C   UNL     1      32.274 -15.173 -20.207  0.00  0.00    +0.001 C 
ENDBRANCH  12  13
ENDBRANCH  11  12
ENDBRANCH   9  11
ENDBRANCH   8   9
ENDBRANCH   1   8
TORSDOF 7
ENDMDL
MODEL 4
REMARK VINA RESULT:      -6.2      6.133      8.904
REMARK  Name = 60748
REMARK  7 active torsions:
REMARK  status: ('A' for Active; 'I' for Inactive)
REMARK    1  A    between atoms: O_1  and  C_3
REMARK    2  A    between atoms: O_1  and  C_8
REMARK    3  A    between atoms: C_3  and  C_4
REMARK    4  A    between atoms: C_8  and  O_9
REMARK    5  A    between atoms: O_9  and  C_11
REMARK    6  A    between atoms: C_11  and  C_12
REMARK    7  A    between atoms: C_12  and  C_13
REMARK                            x       y       z     vdW  Elec       q    Type
REMARK                         _______ _______ _______ _____ _____    ______ ____
ROOT
ATOM      1  O   UNL     1      32.739 -23.505 -16.360  0.00  0.00    -0.408 OA
ENDROOT
BRANCH   1   3
ATOM      2  O   UNL     1      30.959 -22.391 -17.302  0.00  0.00    -0.250 OA
ATOM      3  C   UNL     1      31.458 -23.030 -16.383  0.00  0.00    +0.319 C 
BRANCH   3   4
ATOM      4  C   UNL     1      30.725 -23.404 -15.092  0.00  0.00    +0.090 C 
ATOM      5  C   UNL     1      30.433 -24.914 -15.088  0.00  0.00    +0.011 C 
ATOM      6  C   UNL     1      31.602 -23.066 -13.878  0.00  0.00    +0.011 C 
ATOM      7  C   UNL     1      29.399 -22.636 -15.025  0.00  0.00    +0.011 C 
ENDBRANCH   3   4
ENDBRANCH   1   3
BRANCH   1   8
ATOM      8  C   UNL     1      33.464 -23.453 -17.599  0.00  0.00    +0.433 C 
BRANCH   8   9
ATOM      9  O   UNL     1      34.765 -22.854 -17.481  0.00  0.00    -0.408 OA
BRANCH   9  11
ATOM     10  O   UNL     1      36.307 -21.661 -18.718  0.00  0.00    -0.250 OA
ATOM     11  C   UNL     1      35.177 -22.094 -18.535  0.00  0.00    +0.320 C 
BRANCH  11  12
ATOM     12  C   UNL     1      34.028 -21.871 -19.488  0.00  0.00    +0.110 C 
BRANCH  12  13
ATOM     13  C   UNL     1      34.155 -20.540 -20.222  0.00  0.00    +0.012 C 
ATOM     14  C   UNL     1      32.803 -19.943 -20.586  0.00  0.00    +0.001 C 
ENDBRANCH  12  13
ENDBRANCH  11  12
ENDBRANCH   9  11
ENDBRANCH   8   9
ENDBRANCH   1   8
TORSDOF 7
ENDMDL
MODEL 5
REMARK VINA RESULT:      -6.1      2.531      3.664
REMARK  Name = 60748
REMARK  7 active torsions:
REMARK  status: ('A' for Active; 'I' for Inactive)
REMARK    1  A    between atoms: O_1  and  C_3
REMARK    2  A    between atoms: O_1  and  C_8
REMARK    3  A    between atoms: C_3  and  C_4
REMARK    4  A    between atoms: C_8  and  O_9
REMARK    5  A    between atoms: O_9  and  C_11
REMARK    6  A    between atoms: C_11  and  C_12
REMARK    7  A    between atoms: C_12  and  C_13
REMARK                            x       y       z     vdW  Elec       q    Type
REMARK                         _______ _______ _______ _____ _____    ______ ____
ROOT
ATOM      1  O   UNL     1      34.988 -16.766 -22.611  0.00  0.00    -0.408 OA
ENDROOT
BRANCH   1   3
ATOM      2  O   UNL     1      35.302 -16.824 -20.332  0.00  0.00    -0.250 OA
ATOM      3  C   UNL     1      35.076 -17.386 -21.397  0.00  0.00    +0.319 C 
BRANCH   3   4
ATOM      4  C   UNL     1      34.857 -18.894 -21.550  0.00  0.00    +0.090 C 
ATOM      5  C   UNL     1      35.987 -19.651 -20.831  0.00  0.00    +0.011 C 
ATOM      6  C   UNL     1      33.515 -19.293 -20.918  0.00  0.00    +0.011 C 
ATOM      7  C   UNL     1      34.877 -19.259 -23.040  0.00  0.00    +0.011 C 
ENDBRANCH   3   4
ENDBRANCH   1   3
BRANCH   1   8
ATOM      8  C   UNL     1      34.521 -15.407 -22.605  0.00  0.00    +0.433 C 
BRANCH   8   9
ATOM      9  O   UNL     1      33.095 -15.289 -22.470  0.00  0.00    -0.408 OA
BRANCH   9  11
ATOM     10  O   UNL     1      32.621 -14.939 -20.237  0.00  0.00    -0.250 OA
ATOM     11  C   UNL     1      32.648 -14.567 -21.403  0.00  0.00    +0.320 C 
BRANCH  11  12
ATOM     12  C   UNL     1      32.203 -13.198 -21.857  0.00  0.00    +0.110 C 
BRANCH  12  13
ATOM     13  C   UNL     1      31.869 -12.294 -20.676  0.00  0.00    +0.012 C 
ATOM     14  C   UNL     1      30.740 -11.321 -20.986  0.00  0.00    +0.001 C 
ENDBRANCH  12  13
ENDBRANCH  11  12
ENDBRANCH   9  11
ENDBRANCH   8   9
ENDBRANCH   1   8
TORSDOF 7
ENDMDL
MODEL 6
REMARK VINA RESULT:      -6.1      6.263      8.956
REMARK  Name = 60748
REMARK  7 active torsions:
REMARK  status: ('A' for Active; 'I' for Inactive)
REMARK    1  A    between atoms: O_1  and  C_3
REMARK    2  A    between atoms: O_1  and  C_8
REMARK    3  A    between atoms: C_3  and  C_4
REMARK    4  A    between atoms: C_8  and  O_9
REMARK    5  A    between atoms: O_9  and  C_11
REMARK    6  A    between atoms: C_11  and  C_12
REMARK    7  A    between atoms: C_12  and  C_13
REMARK                            x       y       z     vdW  Elec       q    Type
REMARK                         _______ _______ _______ _____ _____    ______ ____
ROOT
ATOM      1  O   UNL     1      32.592 -23.766 -16.322  0.00  0.00    -0.408 OA
ENDROOT
BRANCH   1   3
ATOM      2  O   UNL     1      31.003 -22.412 -17.291  0.00  0.00    -0.250 OA
ATOM      3  C   UNL     1      31.379 -23.141 -16.380  0.00  0.00    +0.319 C 
BRANCH   3   4
ATOM      4  C   UNL     1      30.546 -23.472 -15.138  0.00  0.00    +0.090 C 
ATOM      5  C   UNL     1      29.301 -22.569 -15.101  0.00  0.00    +0.011 C 
ATOM      6  C   UNL     1      30.092 -24.938 -15.191  0.00  0.00    +0.011 C 
ATOM      7  C   UNL     1      31.389 -23.217 -13.883  0.00  0.00    +0.011 C 
ENDBRANCH   3   4
ENDBRANCH   1   3
BRANCH   1   8
ATOM      8  C   UNL     1      33.699 -23.074 -16.921  0.00  0.00    +0.433 C 
BRANCH   8   9
ATOM      9  O   UNL     1      33.947 -23.455 -18.285  0.00  0.00    -0.408 OA
BRANCH   9  11
ATOM     10  O   UNL     1      32.958 -22.031 -19.809  0.00  0.00    -0.250 OA
ATOM     11  C   UNL     1      33.937 -22.448 -19.203  0.00  0.00    +0.320 C 
BRANCH  11  12
ATOM     12  C   UNL     1      35.326 -21.881 -19.362  0.00  0.00    +0.110 C 
BRANCH  12  13
ATOM     13  C   UNL     1      35.336 -20.660 -20.276  0.00  0.00    +0.012 C 
ATOM     14  C   UNL     1      36.678 -19.942 -20.277  0.00  0.00    +0.001 C 
ENDBRANCH  12  13
ENDBRANCH  11  12
ENDBRANCH   9  11
ENDBRANCH   8   9
ENDBRANCH   1   8
TORSDOF 7
ENDMDL
MODEL 7
REMARK VINA RESULT:      -6.1      7.149     10.001
REMARK  Name = 60748
REMARK  7 active torsions:
REMARK  status: ('A' for Active; 'I' for Inactive)
REMARK    1  A    between atoms: O_1  and  C_3
REMARK    2  A    between atoms: O_1  and  C_8
REMARK    3  A    between atoms: C_3  and  C_4
REMARK    4  A    between atoms: C_8  and  O_9
REMARK    5  A    between atoms: O_9  and  C_11
REMARK    6  A    between atoms: C_11  and  C_12
REMARK    7  A    between atoms: C_12  and  C_13
REMARK                            x       y       z     vdW  Elec       q    Type
REMARK                         _______ _______ _______ _____ _____    ______ ____
ROOT
ATOM      1  O   UNL     1      36.334 -24.338 -15.609  0.00  0.00    -0.408 OA
ENDROOT
BRANCH   1   3
ATOM      2  O   UNL     1      37.816 -23.173 -14.289  0.00  0.00    -0.250 OA
ATOM      3  C   UNL     1      37.359 -24.228 -14.713  0.00  0.00    +0.319 C 
BRANCH   3   4
ATOM      4  C   UNL     1      37.868 -25.615 -14.310  0.00  0.00    +0.090 C 
ATOM      5  C   UNL     1      37.084 -26.691 -15.079  0.00  0.00    +0.011 C 
ATOM      6  C   UNL     1      39.358 -25.745 -14.657  0.00  0.00    +0.011 C 
ATOM      7  C   UNL     1      37.650 -25.814 -12.804  0.00  0.00    +0.011 C 
ENDBRANCH   3   4
ENDBRANCH   1   3
BRANCH   1   8
ATOM      8  C   UNL     1      35.551 -23.154 -15.836  0.00  0.00    +0.433 C 
BRANCH   8   9
ATOM      9  O   UNL     1      35.407 -22.816 -17.225  0.00  0.00    -0.408 OA
BRANCH   9  11
ATOM     10  O   UNL     1      37.210 -21.378 -17.112  0.00  0.00    -0.250 OA
ATOM     11  C   UNL     1      36.253 -21.859 -17.703  0.00  0.00    +0.320 C 
BRANCH  11  12
ATOM     12  C   UNL     1      35.857 -21.479 -19.109  0.00  0.00    +0.110 C 
BRANCH  12  13
ATOM     13  C   UNL     1      34.456 -21.974 -19.454  0.00  0.00    +0.012 C 
ATOM     14  C   UNL     1      33.541 -20.853 -19.925  0.00  0.00    +0.001 C 
ENDBRANCH  12  13
ENDBRANCH  11  12
ENDBRANCH   9  11
ENDBRANCH   8   9
ENDBRANCH   1   8
TORSDOF 7
ENDMDL
MODEL 8
REMARK VINA RESULT:      -6.1      1.648      2.629
REMARK  Name = 60748
REMARK  7 active torsions:
REMARK  status: ('A' for Active; 'I' for Inactive)
REMARK    1  A    between atoms: O_1  and  C_3
REMARK    2  A    between atoms: O_1  and  C_8
REMARK    3  A    between atoms: C_3  and  C_4
REMARK    4  A    between atoms: C_8  and  O_9
REMARK    5  A    between atoms: O_9  and  C_11
REMARK    6  A    between atoms: C_11  and  C_12
REMARK    7  A    between atoms: C_12  and  C_13
REMARK                            x       y       z     vdW  Elec       q    Type
REMARK                         _______ _______ _______ _____ _____    ______ ____
ROOT
ATOM      1  O   UNL     1      35.502 -17.384 -23.664  0.00  0.00    -0.408 OA
ENDROOT
BRANCH   1   3
ATOM      2  O   UNL     1      34.784 -19.568 -23.768  0.00  0.00    -0.250 OA
ATOM      3  C   UNL     1      35.082 -18.567 -23.126  0.00  0.00    +0.319 C 
BRANCH   3   4
ATOM      4  C   UNL     1      35.029 -18.471 -21.599  0.00  0.00    +0.090 C 
ATOM      5  C   UNL     1      34.816 -17.005 -21.185  0.00  0.00    +0.011 C 
ATOM      6  C   UNL     1      33.861 -19.312 -21.063  0.00  0.00    +0.011 C 
ATOM      7  C   UNL     1      36.358 -18.969 -21.016  0.00  0.00    +0.011 C 
ENDBRANCH   3   4
ENDBRANCH   1   3
BRANCH   1   8
ATOM      8  C   UNL     1      34.855 -16.966 -24.878  0.00  0.00    +0.433 C 
BRANCH   8   9
ATOM      9  O   UNL     1      33.664 -16.192 -24.659  0.00  0.00    -0.408 OA
BRANCH   9  11
ATOM     10  O   UNL     1      33.537 -15.214 -26.747  0.00  0.00    -0.250 OA
ATOM     11  C   UNL     1      33.446 -15.164 -25.527  0.00  0.00    +0.320 C 
BRANCH  11  12
ATOM     12  C   UNL     1      33.041 -13.925 -24.766  0.00  0.00    +0.110 C 
BRANCH  12  13
ATOM     13  C   UNL     1      33.618 -13.917 -23.354  0.00  0.00    +0.012 C 
ATOM     14  C   UNL     1      32.540 -13.847 -22.283  0.00  0.00    +0.001 C 
ENDBRANCH  12  13
ENDBRANCH  11  12
ENDBRANCH   9  11
ENDBRANCH   8   9
ENDBRANCH   1   8
TORSDOF 7
ENDMDL
MODEL 9
REMARK VINA RESULT:      -6.1      2.066      2.557
REMARK  Name = 60748
REMARK  7 active torsions:
REMARK  status: ('A' for Active; 'I' for Inactive)
REMARK    1  A    between atoms: O_1  and  C_3
REMARK    2  A    between atoms: O_1  and  C_8
REMARK    3  A    between atoms: C_3  and  C_4
REMARK    4  A    between atoms: C_8  and  O_9
REMARK    5  A    between atoms: O_9  and  C_11
REMARK    6  A    between atoms: C_11  and  C_12
REMARK    7  A    between atoms: C_12  and  C_13
REMARK                            x       y       z     vdW  Elec       q    Type
REMARK                         _______ _______ _______ _____ _____    ______ ____
ROOT
ATOM      1  O   UNL     1      34.302 -16.434 -22.527  0.00  0.00    -0.408 OA
ENDROOT
BRANCH   1   3
ATOM      2  O   UNL     1      35.130 -16.447 -20.379  0.00  0.00    -0.250 OA
ATOM      3  C   UNL     1      34.838 -17.027 -21.419  0.00  0.00    +0.319 C 
BRANCH   3   4
ATOM      4  C   UNL     1      35.031 -18.527 -21.656  0.00  0.00    +0.090 C 
ATOM      5  C   UNL     1      35.080 -18.804 -23.168  0.00  0.00    +0.011 C 
ATOM      6  C   UNL     1      36.353 -18.989 -21.026  0.00  0.00    +0.011 C 
ATOM      7  C   UNL     1      33.850 -19.291 -21.044  0.00  0.00    +0.011 C 
ENDBRANCH   3   4
ENDBRANCH   1   3
BRANCH   1   8
ATOM      8  C   UNL     1      33.688 -15.149 -22.332  0.00  0.00    +0.433 C 
BRANCH   8   9
ATOM      9  O   UNL     1      34.334 -14.086 -23.051  0.00  0.00    -0.408 OA
BRANCH   9  11
ATOM     10  O   UNL     1      32.975 -14.078 -24.918  0.00  0.00    -0.250 OA
ATOM     11  C   UNL     1      33.606 -13.499 -24.043  0.00  0.00    +0.320 C 
BRANCH  11  12
ATOM     12  C   UNL     1      33.659 -11.997 -23.900  0.00  0.00    +0.110 C 
BRANCH  12  13
ATOM     13  C   UNL     1      34.225 -11.332 -25.151  0.00  0.00    +0.012 C 
ATOM     14  C   UNL     1      35.014 -10.071 -24.835  0.00  0.00    +0.001 C 
ENDBRANCH  12  13
ENDBRANCH  11  12
ENDBRANCH   9  11
ENDBRANCH   8   9
ENDBRANCH   1   8
TORSDOF 7
ENDMDL
