MODEL 1
REMARK VINA RESULT:      -9.2      0.000      0.000
REMARK  Name = 5344
REMARK  4 active torsions:
REMARK  status: ('A' for Active; 'I' for Inactive)
REMARK    1  A    between atoms: S_1  and  C_4
REMARK    2  A    between atoms: S_1  and  N_13
REMARK    3  A    between atoms: C_9  and  N_10
REMARK    4  A    between atoms: N_13  and  C_17
REMARK                            x       y       z     vdW  Elec       q    Type
REMARK                         _______ _______ _______ _____ _____    ______ ____
ROOT
ATOM      1  S   UNL     1      35.608 -18.625 -21.732  0.00  0.00    +0.076 S 
ATOM      2  O   UNL     1      34.952 -18.676 -23.034  0.00  0.00    -0.150 OA
ATOM      3  O   UNL     1      37.062 -18.703 -21.675  0.00  0.00    -0.150 OA
ENDROOT
BRANCH   1   4
ATOM      4  C   UNL     1      34.942 -19.905 -20.749  0.00  0.00    +0.125 C 
ATOM      5  C   UNL     1      33.561 -20.000 -20.570  0.00  0.00    +0.021 C 
ATOM      6  C   UNL     1      35.788 -20.833 -20.144  0.00  0.00    +0.021 C 
ATOM      7  C   UNL     1      33.029 -21.022 -19.784  0.00  0.00    +0.015 C 
ATOM      8  C   UNL     1      35.255 -21.856 -19.359  0.00  0.00    +0.015 C 
ATOM      9  C   UNL     1      33.875 -21.950 -19.180  0.00  0.00    +0.042 C 
BRANCH   9  10
ATOM     10  N   UNL     1      33.337 -22.985 -18.386  0.00  0.00    -0.357 N 
ATOM     11  H   UNL     1      33.107 -23.850 -18.797  0.00  0.00    +0.142 HD
ATOM     12  H   UNL     1      33.191 -22.843 -17.424  0.00  0.00    +0.142 HD
ENDBRANCH   9  10
ENDBRANCH   1   4
BRANCH   1  13
ATOM     13  N   UNL     1      35.075 -17.203 -20.919  0.00  0.00    -0.183 N 
ATOM     14  H   UNL     1      35.085 -17.147 -19.935  0.00  0.00    +0.177 HD
BRANCH  13  17
ATOM     15  O   UNL     1      35.287 -15.571 -22.780  0.00  0.00    -0.338 OA
ATOM     16  N   UNL     1      34.560 -14.518 -23.322  0.00  0.00    -0.080 NA
ATOM     17  C   UNL     1      34.613 -16.100 -21.718  0.00  0.00    +0.241 A 
ATOM     18  C   UNL     1      33.437 -15.401 -21.549  0.00  0.00    +0.048 A 
ATOM     19  C   UNL     1      33.459 -14.436 -22.570  0.00  0.00    +0.098 A 
ATOM     20  C   UNL     1      32.398 -15.620 -20.529  0.00  0.00    +0.037 C 
ATOM     21  C   UNL     1      32.449 -13.407 -22.868  0.00  0.00    +0.055 C 
ENDBRANCH  13  17
ENDBRANCH   1  13
TORSDOF 4
ENDMDL
MODEL 2
REMARK VINA RESULT:      -8.9      4.300      8.026
REMARK  Name = 5344
REMARK  4 active torsions:
REMARK  status: ('A' for Active; 'I' for Inactive)
REMARK    1  A    between atoms: S_1  and  C_4
REMARK    2  A    between atoms: S_1  and  N_13
REMARK    3  A    between atoms: C_9  and  N_10
REMARK    4  A    between atoms: N_13  and  C_17
REMARK                            x       y       z     vdW  Elec       q    Type
REMARK                         _______ _______ _______ _____ _____    ______ ____
ROOT
ATOM      1  S   UNL     1      34.026 -22.758 -18.682  0.00  0.00    +0.076 S 
ATOM      2  O   UNL     1      35.060 -22.692 -17.654  0.00  0.00    -0.150 OA
ATOM      3  O   UNL     1      33.973 -23.927 -19.550  0.00  0.00    -0.150 OA
ENDROOT
BRANCH   1   4
ATOM      4  C   UNL     1      34.172 -21.330 -19.675  0.00  0.00    +0.125 C 
ATOM      5  C   UNL     1      35.432 -20.883 -20.075  0.00  0.00    +0.021 C 
ATOM      6  C   UNL     1      33.029 -20.635 -20.070  0.00  0.00    +0.021 C 
ATOM      7  C   UNL     1      35.549 -19.742 -20.868  0.00  0.00    +0.015 C 
ATOM      8  C   UNL     1      33.146 -19.494 -20.865  0.00  0.00    +0.015 C 
ATOM      9  C   UNL     1      34.406 -19.048 -21.263  0.00  0.00    +0.042 C 
BRANCH   9  10
ATOM     10  N   UNL     1      34.523 -17.894 -22.066  0.00  0.00    -0.357 N 
ATOM     11  H   UNL     1      34.303 -17.010 -21.693  0.00  0.00    +0.142 HD
ATOM     12  H   UNL     1      34.825 -17.973 -23.000  0.00  0.00    +0.142 HD
ENDBRANCH   9  10
ENDBRANCH   1   4
BRANCH   1  13
ATOM     13  N   UNL     1      32.498 -22.537 -17.918  0.00  0.00    -0.183 N 
ATOM     14  H   UNL     1      31.787 -22.009 -18.350  0.00  0.00    +0.177 HD
BRANCH  13  17
ATOM     15  O   UNL     1      33.278 -23.663 -15.845  0.00  0.00    -0.338 OA
ATOM     16  N   UNL     1      32.729 -24.172 -14.674  0.00  0.00    -0.080 NA
ATOM     17  C   UNL     1      32.290 -23.146 -16.631  0.00  0.00    +0.241 A 
ATOM     18  C   UNL     1      31.082 -23.308 -15.988  0.00  0.00    +0.048 A 
ATOM     19  C   UNL     1      31.416 -23.948 -14.782  0.00  0.00    +0.098 A 
ATOM     20  C   UNL     1      29.747 -22.902 -16.460  0.00  0.00    +0.037 C 
ATOM     21  C   UNL     1      30.515 -24.370 -13.697  0.00  0.00    +0.055 C 
ENDBRANCH  13  17
ENDBRANCH   1  13
TORSDOF 4
ENDMDL
MODEL 3
REMARK VINA RESULT:      -8.6      2.016      6.580
REMARK  Name = 5344
REMARK  4 active torsions:
REMARK  status: ('A' for Active; 'I' for Inactive)
REMARK    1  A    between atoms: S_1  and  C_4
REMARK    2  A    between atoms: S_1  and  N_13
REMARK    3  A    between atoms: C_9  and  N_10
REMARK    4  A    between atoms: N_13  and  C_17
REMARK                            x       y       z     vdW  Elec       q    Type
REMARK                         _______ _______ _______ _____ _____    ______ ____
ROOT
ATOM      1  S   UNL     1      35.413 -18.059 -21.881  0.00  0.00    +0.076 S 
ATOM      2  O   UNL     1      35.142 -17.583 -20.529  0.00  0.00    -0.150 OA
ATOM      3  O   UNL     1      36.792 -18.332 -22.265  0.00  0.00    -0.150 OA
ENDROOT
BRANCH   1   4
ATOM      4  C   UNL     1      34.740 -16.900 -22.999  0.00  0.00    +0.125 C 
ATOM      5  C   UNL     1      34.345 -15.641 -22.546  0.00  0.00    +0.021 C 
ATOM      6  C   UNL     1      34.596 -17.232 -24.346  0.00  0.00    +0.021 C 
ATOM      7  C   UNL     1      33.807 -14.716 -23.439  0.00  0.00    +0.015 C 
ATOM      8  C   UNL     1      34.059 -16.306 -25.240  0.00  0.00    +0.015 C 
ATOM      9  C   UNL     1      33.664 -15.048 -24.786  0.00  0.00    +0.042 C 
BRANCH   9  10
ATOM     10  N   UNL     1      33.120 -14.111 -25.690  0.00  0.00    -0.357 N 
ATOM     11  H   UNL     1      32.589 -13.353 -25.353  0.00  0.00    +0.142 HD
ATOM     12  H   UNL     1      33.271 -14.215 -26.657  0.00  0.00    +0.142 HD
ENDBRANCH   9  10
ENDBRANCH   1   4
BRANCH   1  13
ATOM     13  N   UNL     1      34.451 -19.461 -22.157  0.00  0.00    -0.183 N 
ATOM     14  H   UNL     1      34.213 -19.740 -23.072  0.00  0.00    +0.177 HD
BRANCH  13  17
ATOM     15  O   UNL     1      32.717 -20.242 -20.558  0.00  0.00    -0.338 OA
ATOM     16  N   UNL     1      32.635 -21.061 -19.438  0.00  0.00    -0.080 NA
ATOM     17  C   UNL     1      34.003 -20.211 -21.015  0.00  0.00    +0.241 A 
ATOM     18  C   UNL     1      34.780 -21.009 -20.203  0.00  0.00    +0.048 A 
ATOM     19  C   UNL     1      33.880 -21.509 -19.246  0.00  0.00    +0.098 A 
ATOM     20  C   UNL     1      36.224 -21.274 -20.315  0.00  0.00    +0.037 C 
ATOM     21  C   UNL     1      34.161 -22.417 -18.122  0.00  0.00    +0.055 C 
ENDBRANCH  13  17
ENDBRANCH   1  13
TORSDOF 4
ENDMDL
MODEL 4
REMARK VINA RESULT:      -8.5      1.779      2.319
REMARK  Name = 5344
REMARK  4 active torsions:
REMARK  status: ('A' for Active; 'I' for Inactive)
REMARK    1  A    between atoms: S_1  and  C_4
REMARK    2  A    between atoms: S_1  and  N_13
REMARK    3  A    between atoms: C_9  and  N_10
REMARK    4  A    between atoms: N_13  and  C_17
REMARK                            x       y       z     vdW  Elec       q    Type
REMARK                         _______ _______ _______ _____ _____    ______ ____
ROOT
ATOM      1  S   UNL     1      35.567 -18.569 -22.603  0.00  0.00    +0.076 S 
ATOM      2  O   UNL     1      35.417 -19.183 -23.917  0.00  0.00    -0.150 OA
ATOM      3  O   UNL     1      36.908 -18.262 -22.120  0.00  0.00    -0.150 OA
ENDROOT
BRANCH   1   4
ATOM      4  C   UNL     1      34.777 -19.602 -21.438  0.00  0.00    +0.125 C 
ATOM      5  C   UNL     1      35.532 -20.478 -20.658  0.00  0.00    +0.021 C 
ATOM      6  C   UNL     1      33.392 -19.552 -21.288  0.00  0.00    +0.021 C 
ATOM      7  C   UNL     1      34.900 -21.304 -19.728  0.00  0.00    +0.015 C 
ATOM      8  C   UNL     1      32.760 -20.377 -20.357  0.00  0.00    +0.015 C 
ATOM      9  C   UNL     1      33.515 -21.253 -19.578  0.00  0.00    +0.042 C 
BRANCH   9  10
ATOM     10  N   UNL     1      32.876 -22.088 -18.637  0.00  0.00    -0.357 N 
ATOM     11  H   UNL     1      32.081 -22.606 -18.899  0.00  0.00    +0.142 HD
ATOM     12  H   UNL     1      33.224 -22.152 -17.718  0.00  0.00    +0.142 HD
ENDBRANCH   9  10
ENDBRANCH   1   4
BRANCH   1  13
ATOM     13  N   UNL     1      34.601 -17.143 -22.566  0.00  0.00    -0.183 N 
ATOM     14  H   UNL     1      34.331 -16.736 -21.710  0.00  0.00    +0.177 HD
BRANCH  13  17
ATOM     15  O   UNL     1      34.098 -17.248 -24.997  0.00  0.00    -0.338 OA
ATOM     16  N   UNL     1      33.688 -16.387 -26.007  0.00  0.00    -0.080 NA
ATOM     17  C   UNL     1      34.200 -16.564 -23.820  0.00  0.00    +0.241 A 
ATOM     18  C   UNL     1      33.858 -15.248 -24.043  0.00  0.00    +0.048 A 
ATOM     19  C   UNL     1      33.550 -15.198 -25.413  0.00  0.00    +0.098 A 
ATOM     20  C   UNL     1      33.825 -14.147 -23.065  0.00  0.00    +0.037 C 
ATOM     21  C   UNL     1      33.122 -14.034 -26.206  0.00  0.00    +0.055 C 
ENDBRANCH  13  17
ENDBRANCH   1  13
TORSDOF 4
ENDMDL
MODEL 5
REMARK VINA RESULT:      -8.4      6.306      9.137
REMARK  Name = 5344
REMARK  4 active torsions:
REMARK  status: ('A' for Active; 'I' for Inactive)
REMARK    1  A    between atoms: S_1  and  C_4
REMARK    2  A    between atoms: S_1  and  N_13
REMARK    3  A    between atoms: C_9  and  N_10
REMARK    4  A    between atoms: N_13  and  C_17
REMARK                            x       y       z     vdW  Elec       q    Type
REMARK                         _______ _______ _______ _____ _____    ______ ____
ROOT
ATOM      1  S   UNL     1      35.430 -23.491 -15.378  0.00  0.00    +0.076 S 
ATOM      2  O   UNL     1      36.597 -23.084 -14.604  0.00  0.00    -0.150 OA
ATOM      3  O   UNL     1      35.204 -24.912 -15.612  0.00  0.00    -0.150 OA
ENDROOT
BRANCH   1   4
ATOM      4  C   UNL     1      35.501 -22.675 -16.919  0.00  0.00    +0.125 C 
ATOM      5  C   UNL     1      36.654 -21.981 -17.289  0.00  0.00    +0.021 C 
ATOM      6  C   UNL     1      34.407 -22.716 -17.782  0.00  0.00    +0.021 C 
ATOM      7  C   UNL     1      36.711 -21.329 -18.520  0.00  0.00    +0.015 C 
ATOM      8  C   UNL     1      34.464 -22.064 -19.014  0.00  0.00    +0.015 C 
ATOM      9  C   UNL     1      35.616 -21.370 -19.382  0.00  0.00    +0.042 C 
BRANCH   9  10
ATOM     10  N   UNL     1      35.674 -20.712 -20.628  0.00  0.00    -0.357 N 
ATOM     11  H   UNL     1      36.473 -20.192 -20.873  0.00  0.00    +0.142 HD
ATOM     12  H   UNL     1      34.915 -20.771 -21.253  0.00  0.00    +0.142 HD
ENDBRANCH   9  10
ENDBRANCH   1   4
BRANCH   1  13
ATOM     13  N   UNL     1      34.033 -22.800 -14.644  0.00  0.00    -0.183 N 
ATOM     14  H   UNL     1      33.992 -21.836 -14.442  0.00  0.00    +0.177 HD
BRANCH  13  17
ATOM     15  O   UNL     1      32.879 -24.511 -13.260  0.00  0.00    -0.338 OA
ATOM     16  N   UNL     1      31.675 -25.204 -13.263  0.00  0.00    -0.080 NA
ATOM     17  C   UNL     1      32.930 -23.669 -14.333  0.00  0.00    +0.241 A 
ATOM     18  C   UNL     1      31.762 -23.799 -15.053  0.00  0.00    +0.048 A 
ATOM     19  C   UNL     1      31.024 -24.762 -14.343  0.00  0.00    +0.098 A 
ATOM     20  C   UNL     1      31.379 -23.090 -16.285  0.00  0.00    +0.037 C 
ATOM     21  C   UNL     1      29.690 -25.297 -14.657  0.00  0.00    +0.055 C 
ENDBRANCH  13  17
ENDBRANCH   1  13
TORSDOF 4
ENDMDL
MODEL 6
REMARK VINA RESULT:      -8.3      2.057      6.834
REMARK  Name = 5344
REMARK  4 active torsions:
REMARK  status: ('A' for Active; 'I' for Inactive)
REMARK    1  A    between atoms: S_1  and  C_4
REMARK    2  A    between atoms: S_1  and  N_13
REMARK    3  A    between atoms: C_9  and  N_10
REMARK    4  A    between atoms: N_13  and  C_17
REMARK                            x       y       z     vdW  Elec       q    Type
REMARK                         _______ _______ _______ _____ _____    ______ ____
ROOT
ATOM      1  S   UNL     1      33.948 -16.225 -21.322  0.00  0.00    +0.076 S 
ATOM      2  O   UNL     1      32.619 -16.396 -20.745  0.00  0.00    -0.150 OA
ATOM      3  O   UNL     1      35.034 -15.775 -20.460  0.00  0.00    -0.150 OA
ENDROOT
BRANCH   1   4
ATOM      4  C   UNL     1      33.807 -15.122 -22.667  0.00  0.00    +0.125 C 
ATOM      5  C   UNL     1      33.750 -13.747 -22.439  0.00  0.00    +0.021 C 
ATOM      6  C   UNL     1      33.752 -15.615 -23.971  0.00  0.00    +0.021 C 
ATOM      7  C   UNL     1      33.637 -12.866 -23.514  0.00  0.00    +0.015 C 
ATOM      8  C   UNL     1      33.640 -14.733 -25.046  0.00  0.00    +0.015 C 
ATOM      9  C   UNL     1      33.583 -13.359 -24.817  0.00  0.00    +0.042 C 
BRANCH   9  10
ATOM     10  N   UNL     1      33.470 -12.468 -25.905  0.00  0.00    -0.357 N 
ATOM     11  H   UNL     1      32.719 -11.832 -25.944  0.00  0.00    +0.142 HD
ATOM     12  H   UNL     1      34.141 -12.482 -26.625  0.00  0.00    +0.142 HD
ENDBRANCH   9  10
ENDBRANCH   1   4
BRANCH   1  13
ATOM     13  N   UNL     1      34.393 -17.704 -22.085  0.00  0.00    -0.183 N 
ATOM     14  H   UNL     1      34.250 -17.840 -23.050  0.00  0.00    +0.177 HD
BRANCH  13  17
ATOM     15  O   UNL     1      36.302 -18.811 -20.941  0.00  0.00    -0.338 OA
ATOM     16  N   UNL     1      36.526 -19.930 -20.149  0.00  0.00    -0.080 NA
ATOM     17  C   UNL     1      34.980 -18.736 -21.272  0.00  0.00    +0.241 A 
ATOM     18  C   UNL     1      34.320 -19.803 -20.701  0.00  0.00    +0.048 A 
ATOM     19  C   UNL     1      35.327 -20.507 -20.019  0.00  0.00    +0.098 A 
ATOM     20  C   UNL     1      32.887 -20.129 -20.790  0.00  0.00    +0.037 C 
ATOM     21  C   UNL     1      35.196 -21.741 -19.227  0.00  0.00    +0.055 C 
ENDBRANCH  13  17
ENDBRANCH   1  13
TORSDOF 4
ENDMDL
MODEL 7
REMARK VINA RESULT:      -8.3      4.440      8.300
REMARK  Name = 5344
REMARK  4 active torsions:
REMARK  status: ('A' for Active; 'I' for Inactive)
REMARK    1  A    between atoms: S_1  and  C_4
REMARK    2  A    between atoms: S_1  and  N_13
REMARK    3  A    between atoms: C_9  and  N_10
REMARK    4  A    between atoms: N_13  and  C_17
REMARK                            x       y       z     vdW  Elec       q    Type
REMARK                         _______ _______ _______ _____ _____    ______ ____
ROOT
ATOM      1  S   UNL     1      33.679 -22.695 -18.606  0.00  0.00    +0.076 S 
ATOM      2  O   UNL     1      33.917 -23.919 -19.362  0.00  0.00    -0.150 OA
ATOM      3  O   UNL     1      32.354 -22.463 -18.046  0.00  0.00    -0.150 OA
ENDROOT
BRANCH   1   4
ATOM      4  C   UNL     1      34.096 -21.345 -19.631  0.00  0.00    +0.125 C 
ATOM      5  C   UNL     1      35.436 -21.056 -19.893  0.00  0.00    +0.021 C 
ATOM      6  C   UNL     1      33.091 -20.556 -20.190  0.00  0.00    +0.021 C 
ATOM      7  C   UNL     1      35.770 -19.977 -20.712  0.00  0.00    +0.015 C 
ATOM      8  C   UNL     1      33.425 -19.478 -21.010  0.00  0.00    +0.015 C 
ATOM      9  C   UNL     1      34.765 -19.189 -21.270  0.00  0.00    +0.042 C 
BRANCH   9  10
ATOM     10  N   UNL     1      35.101 -18.098 -22.099  0.00  0.00    -0.357 N 
ATOM     11  H   UNL     1      34.520 -17.859 -22.857  0.00  0.00    +0.142 HD
ATOM     12  H   UNL     1      35.917 -17.577 -21.921  0.00  0.00    +0.142 HD
ENDBRANCH   9  10
ENDBRANCH   1   4
BRANCH   1  13
ATOM     13  N   UNL     1      34.858 -22.602 -17.354  0.00  0.00    -0.183 N 
ATOM     14  H   UNL     1      35.726 -22.162 -17.507  0.00  0.00    +0.177 HD
BRANCH  13  17
ATOM     15  O   UNL     1      33.310 -23.665 -15.726  0.00  0.00    -0.338 OA
ATOM     16  N   UNL     1      33.352 -24.155 -14.426  0.00  0.00    -0.080 NA
ATOM     17  C   UNL     1      34.539 -23.185 -16.078  0.00  0.00    +0.241 A 
ATOM     18  C   UNL     1      35.400 -23.354 -15.016  0.00  0.00    +0.048 A 
ATOM     19  C   UNL     1      34.610 -23.959 -14.023  0.00  0.00    +0.098 A 
ATOM     20  C   UNL     1      36.823 -22.982 -14.942  0.00  0.00    +0.037 C 
ATOM     21  C   UNL     1      35.012 -24.367 -12.667  0.00  0.00    +0.055 C 
ENDBRANCH  13  17
ENDBRANCH   1  13
TORSDOF 4
ENDMDL
MODEL 8
REMARK VINA RESULT:      -8.3      4.677      8.392
REMARK  Name = 5344
REMARK  4 active torsions:
REMARK  status: ('A' for Active; 'I' for Inactive)
REMARK    1  A    between atoms: S_1  and  C_4
REMARK    2  A    between atoms: S_1  and  N_13
REMARK    3  A    between atoms: C_9  and  N_10
REMARK    4  A    between atoms: N_13  and  C_17
REMARK                            x       y       z     vdW  Elec       q    Type
REMARK                         _______ _______ _______ _____ _____    ______ ____
ROOT
ATOM      1  S   UNL     1      33.409 -22.885 -18.041  0.00  0.00    +0.076 S 
ATOM      2  O   UNL     1      33.841 -24.209 -18.475  0.00  0.00    -0.150 OA
ATOM      3  O   UNL     1      31.981 -22.619 -17.918  0.00  0.00    -0.150 OA
ENDROOT
BRANCH   1   4
ATOM      4  C   UNL     1      34.105 -21.713 -19.131  0.00  0.00    +0.125 C 
ATOM      5  C   UNL     1      35.490 -21.637 -19.282  0.00  0.00    +0.021 C 
ATOM      6  C   UNL     1      33.277 -20.853 -19.852  0.00  0.00    +0.021 C 
ATOM      7  C   UNL     1      36.046 -20.700 -20.153  0.00  0.00    +0.015 C 
ATOM      8  C   UNL     1      33.833 -19.917 -20.724  0.00  0.00    +0.015 C 
ATOM      9  C   UNL     1      35.218 -19.841 -20.874  0.00  0.00    +0.042 C 
BRANCH   9  10
ATOM     10  N   UNL     1      35.779 -18.894 -21.756  0.00  0.00    -0.357 N 
ATOM     11  H   UNL     1      36.738 -18.676 -21.698  0.00  0.00    +0.142 HD
ATOM     12  H   UNL     1      35.214 -18.450 -22.428  0.00  0.00    +0.142 HD
ENDBRANCH   9  10
ENDBRANCH   1   4
BRANCH   1  13
ATOM     13  N   UNL     1      34.192 -22.530 -16.548  0.00  0.00    -0.183 N 
ATOM     14  H   UNL     1      34.002 -21.694 -16.062  0.00  0.00    +0.177 HD
BRANCH  13  17
ATOM     15  O   UNL     1      34.824 -24.771 -15.681  0.00  0.00    -0.338 OA
ATOM     16  N   UNL     1      35.964 -25.419 -15.220  0.00  0.00    -0.080 NA
ATOM     17  C   UNL     1      35.132 -23.488 -16.031  0.00  0.00    +0.241 A 
ATOM     18  C   UNL     1      36.475 -23.278 -15.805  0.00  0.00    +0.048 A 
ATOM     19  C   UNL     1      36.938 -24.507 -15.304  0.00  0.00    +0.098 A 
ATOM     20  C   UNL     1      37.246 -22.045 -16.037  0.00  0.00    +0.037 C 
ATOM     21  C   UNL     1      38.304 -24.862 -14.887  0.00  0.00    +0.055 C 
ENDBRANCH  13  17
ENDBRANCH   1  13
TORSDOF 4
ENDMDL
MODEL 9
REMARK VINA RESULT:      -8.2      1.668      6.489
REMARK  Name = 5344
REMARK  4 active torsions:
REMARK  status: ('A' for Active; 'I' for Inactive)
REMARK    1  A    between atoms: S_1  and  C_4
REMARK    2  A    between atoms: S_1  and  N_13
REMARK    3  A    between atoms: C_9  and  N_10
REMARK    4  A    between atoms: N_13  and  C_17
REMARK                            x       y       z     vdW  Elec       q    Type
REMARK                         _______ _______ _______ _____ _____    ______ ____
ROOT
ATOM      1  S   UNL     1      35.534 -18.424 -22.648  0.00  0.00    +0.076 S 
ATOM      2  O   UNL     1      36.981 -18.364 -22.827  0.00  0.00    -0.150 OA
ATOM      3  O   UNL     1      34.786 -19.476 -23.325  0.00  0.00    -0.150 OA
ENDROOT
BRANCH   1   4
ATOM      4  C   UNL     1      34.874 -16.878 -23.118  0.00  0.00    +0.125 C 
ATOM      5  C   UNL     1      34.410 -16.684 -24.419  0.00  0.00    +0.021 C 
ATOM      6  C   UNL     1      34.811 -15.836 -22.194  0.00  0.00    +0.021 C 
ATOM      7  C   UNL     1      33.883 -15.448 -24.795  0.00  0.00    +0.015 C 
ATOM      8  C   UNL     1      34.284 -14.600 -22.569  0.00  0.00    +0.015 C 
ATOM      9  C   UNL     1      33.820 -14.407 -23.870  0.00  0.00    +0.042 C 
BRANCH   9  10
ATOM     10  N   UNL     1      33.286 -13.157 -24.249  0.00  0.00    -0.357 N 
ATOM     11  H   UNL     1      32.878 -13.046 -25.139  0.00  0.00    +0.142 HD
ATOM     12  H   UNL     1      33.322 -12.397 -23.625  0.00  0.00    +0.142 HD
ENDBRANCH   9  10
ENDBRANCH   1   4
BRANCH   1  13
ATOM     13  N   UNL     1      35.206 -18.481 -20.958  0.00  0.00    -0.183 N 
ATOM     14  H   UNL     1      35.023 -17.658 -20.449  0.00  0.00    +0.177 HD
BRANCH  13  17
ATOM     15  O   UNL     1      36.318 -20.384 -19.809  0.00  0.00    -0.338 OA
ATOM     16  N   UNL     1      35.964 -21.608 -19.256  0.00  0.00    -0.080 NA
ATOM     17  C   UNL     1      35.209 -19.766 -20.311  0.00  0.00    +0.241 A 
ATOM     18  C   UNL     1      34.115 -20.576 -20.093  0.00  0.00    +0.048 A 
ATOM     19  C   UNL     1      34.643 -21.701 -19.436  0.00  0.00    +0.098 A 
ATOM     20  C   UNL     1      32.714 -20.317 -20.465  0.00  0.00    +0.037 C 
ATOM     21  C   UNL     1      33.926 -22.895 -18.962  0.00  0.00    +0.055 C 
ENDBRANCH  13  17
ENDBRANCH   1  13
TORSDOF 4
ENDMDL
