MODEL 1
REMARK VINA RESULT:      -9.5      0.000      0.000
REMARK  Name = 3033621
REMARK  5 active torsions:
REMARK  status: ('A' for Active; 'I' for Inactive)
REMARK    1  A    between atoms: N_3  and  C_23
REMARK    2  A    between atoms: C_7  and  C_15
REMARK    3  A    between atoms: C_9  and  O_21
REMARK    4  A    between atoms: C_23  and  C_24
REMARK    5  A    between atoms: C_24  and  C_26
REMARK                            x       y       z     vdW  Elec       q    Type
REMARK                         _______ _______ _______ _____ _____    ______ ____
ROOT
ATOM      1 CL   UNL     1      35.714 -21.706 -18.902  0.00  0.00    -0.082 Cl
ATOM      2  O   UNL     1      30.800 -24.427 -13.067  0.00  0.00    -0.270 OA
ATOM      3  N   UNL     1      31.617 -24.032 -15.208  0.00  0.00    -0.254 N 
ATOM      4  N   UNL     1      33.931 -23.764 -13.271  0.00  0.00    -0.235 NA
ATOM      5  C   UNL     1      32.635 -23.510 -16.078  0.00  0.00    +0.055 C 
ATOM      6  C   UNL     1      33.989 -23.407 -15.701  0.00  0.00    +0.032 C 
ATOM      7  C   UNL     1      34.502 -23.953 -14.412  0.00  0.00    +0.082 C 
ATOM      8  C   UNL     1      31.631 -23.898 -13.812  0.00  0.00    +0.281 C 
ATOM      9  C   UNL     1      32.704 -22.986 -13.236  0.00  0.00    +0.296 C 
ATOM     10  C   UNL     1      32.287 -23.090 -17.377  0.00  0.00    +0.016 C 
ATOM     11  C   UNL     1      34.932 -22.832 -16.573  0.00  0.00    +0.014 C 
ATOM     12  C   UNL     1      33.232 -22.538 -18.245  0.00  0.00    +0.013 C 
ATOM     13  C   UNL     1      34.551 -22.399 -17.839  0.00  0.00    +0.058 C 
ENDROOT
BRANCH   7  15
ATOM     14  F   UNL     1      36.897 -23.136 -13.157  0.00  0.00    -0.204 F 
ATOM     15  C   UNL     1      35.742 -24.783 -14.421  0.00  0.00    +0.045 C 
ATOM     16  C   UNL     1      36.887 -24.322 -13.783  0.00  0.00    +0.142 C 
ATOM     17  C   UNL     1      35.737 -26.013 -15.069  0.00  0.00    +0.004 C 
ATOM     18  C   UNL     1      38.043 -25.101 -13.794  0.00  0.00    +0.030 C 
ATOM     19  C   UNL     1      36.893 -26.792 -15.079  0.00  0.00    +0.000 C 
ATOM     20  C   UNL     1      38.047 -26.337 -14.442  0.00  0.00    +0.002 C 
ENDBRANCH   7  15
BRANCH   9  21
ATOM     21  O   UNL     1      32.279 -22.600 -11.931  0.00  0.00    -0.357 OA
ATOM     22  H   UNL     1      31.586 -21.926 -12.001  0.00  0.00    +0.213 HD
ENDBRANCH   9  21
BRANCH   3  23
ATOM     23  C   UNL     1      30.463 -24.689 -15.823  0.00  0.00    +0.114 C 
BRANCH  23  24
ATOM     24  C   UNL     1      29.158 -23.949 -15.552  0.00  0.00    +0.127 C 
BRANCH  24  26
ATOM     25  N   UNL     1      27.848 -23.429 -17.773  0.00  0.00    -0.196 NA
ATOM     26  C   UNL     1      28.427 -23.658 -16.794  0.00  0.00    +0.075 C 
ENDBRANCH  24  26
ENDBRANCH  23  24
ENDBRANCH   3  23
TORSDOF 5
ENDMDL
MODEL 2
REMARK VINA RESULT:      -8.6      2.854      5.920
REMARK  Name = 3033621
REMARK  5 active torsions:
REMARK  status: ('A' for Active; 'I' for Inactive)
REMARK    1  A    between atoms: N_3  and  C_23
REMARK    2  A    between atoms: C_7  and  C_15
REMARK    3  A    between atoms: C_9  and  O_21
REMARK    4  A    between atoms: C_23  and  C_24
REMARK    5  A    between atoms: C_24  and  C_26
REMARK                            x       y       z     vdW  Elec       q    Type
REMARK                         _______ _______ _______ _____ _____    ______ ____
ROOT
ATOM      1 CL   UNL     1      36.237 -20.830 -18.906  0.00  0.00    -0.082 Cl
ATOM      2  O   UNL     1      36.889 -26.137 -12.822  0.00  0.00    -0.270 OA
ATOM      3  N   UNL     1      37.189 -24.174 -14.033  0.00  0.00    -0.254 N 
ATOM      4  N   UNL     1      34.698 -25.538 -15.087  0.00  0.00    -0.235 NA
ATOM      5  C   UNL     1      36.910 -23.366 -15.188  0.00  0.00    +0.055 C 
ATOM      6  C   UNL     1      35.709 -23.460 -15.920  0.00  0.00    +0.032 C 
ATOM      7  C   UNL     1      34.571 -24.315 -15.478  0.00  0.00    +0.082 C 
ATOM      8  C   UNL     1      36.719 -25.484 -13.857  0.00  0.00    +0.281 C 
ATOM      9  C   UNL     1      36.031 -26.117 -15.057  0.00  0.00    +0.296 C 
ATOM     10  C   UNL     1      37.862 -22.419 -15.617  0.00  0.00    +0.016 C 
ATOM     11  C   UNL     1      35.515 -22.685 -17.078  0.00  0.00    +0.014 C 
ATOM     12  C   UNL     1      37.655 -21.640 -16.757  0.00  0.00    +0.013 C 
ATOM     13  C   UNL     1      36.488 -21.781 -17.494  0.00  0.00    +0.058 C 
ENDROOT
BRANCH   7  15
ATOM     14  F   UNL     1      33.219 -23.638 -13.092  0.00  0.00    -0.204 F 
ATOM     15  C   UNL     1      33.195 -23.738 -15.466  0.00  0.00    +0.045 C 
ATOM     16  C   UNL     1      32.587 -23.427 -14.256  0.00  0.00    +0.142 C 
ATOM     17  C   UNL     1      32.536 -23.517 -16.669  0.00  0.00    +0.004 C 
ATOM     18  C   UNL     1      31.301 -22.886 -14.249  0.00  0.00    +0.030 C 
ATOM     19  C   UNL     1      31.250 -22.976 -16.663  0.00  0.00    +0.000 C 
ATOM     20  C   UNL     1      30.632 -22.661 -15.453  0.00  0.00    +0.002 C 
ENDBRANCH   7  15
BRANCH   9  21
ATOM     21  O   UNL     1      36.063 -27.530 -14.871  0.00  0.00    -0.357 OA
ATOM     22  H   UNL     1      36.984 -27.835 -14.861  0.00  0.00    +0.213 HD
ENDBRANCH   9  21
BRANCH   3  23
ATOM     23  C   UNL     1      38.070 -23.618 -13.005  0.00  0.00    +0.114 C 
BRANCH  23  24
ATOM     24  C   UNL     1      37.325 -22.727 -12.018  0.00  0.00    +0.127 C 
BRANCH  24  26
ATOM     25  N   UNL     1      36.216 -24.122 -10.083  0.00  0.00    -0.196 NA
ATOM     26  C   UNL     1      36.706 -23.508 -10.937  0.00  0.00    +0.075 C 
ENDBRANCH  24  26
ENDBRANCH  23  24
ENDBRANCH   3  23
TORSDOF 5
ENDMDL
MODEL 3
REMARK VINA RESULT:      -7.6      2.877      6.299
REMARK  Name = 3033621
REMARK  5 active torsions:
REMARK  status: ('A' for Active; 'I' for Inactive)
REMARK    1  A    between atoms: N_3  and  C_23
REMARK    2  A    between atoms: C_7  and  C_15
REMARK    3  A    between atoms: C_9  and  O_21
REMARK    4  A    between atoms: C_23  and  C_24
REMARK    5  A    between atoms: C_24  and  C_26
REMARK                            x       y       z     vdW  Elec       q    Type
REMARK                         _______ _______ _______ _____ _____    ______ ____
ROOT
ATOM      1 CL   UNL     1      36.091 -20.891 -19.032  0.00  0.00    -0.082 Cl
ATOM      2  O   UNL     1      36.961 -26.159 -12.942  0.00  0.00    -0.270 OA
ATOM      3  N   UNL     1      37.232 -24.211 -14.183  0.00  0.00    -0.254 N 
ATOM      4  N   UNL     1      34.670 -25.543 -15.099  0.00  0.00    -0.235 NA
ATOM      5  C   UNL     1      36.909 -23.408 -15.330  0.00  0.00    +0.055 C 
ATOM      6  C   UNL     1      35.671 -23.488 -16.000  0.00  0.00    +0.032 C 
ATOM      7  C   UNL     1      34.543 -24.321 -15.494  0.00  0.00    +0.082 C 
ATOM      8  C   UNL     1      36.751 -25.511 -13.972  0.00  0.00    +0.281 C 
ATOM      9  C   UNL     1      35.994 -26.143 -15.131  0.00  0.00    +0.296 C 
ATOM     10  C   UNL     1      37.853 -22.481 -15.814  0.00  0.00    +0.016 C 
ATOM     11  C   UNL     1      35.432 -22.719 -17.154  0.00  0.00    +0.014 C 
ATOM     12  C   UNL     1      37.601 -21.707 -16.950  0.00  0.00    +0.013 C 
ATOM     13  C   UNL     1      36.397 -21.834 -17.625  0.00  0.00    +0.058 C 
ENDROOT
BRANCH   7  15
ATOM     14  F   UNL     1      33.310 -23.633 -13.048  0.00  0.00    -0.204 F 
ATOM     15  C   UNL     1      33.179 -23.722 -15.419  0.00  0.00    +0.045 C 
ATOM     16  C   UNL     1      32.631 -23.405 -14.182  0.00  0.00    +0.142 C 
ATOM     17  C   UNL     1      32.471 -23.484 -16.591  0.00  0.00    +0.004 C 
ATOM     18  C   UNL     1      31.356 -22.844 -14.116  0.00  0.00    +0.030 C 
ATOM     19  C   UNL     1      31.196 -22.923 -16.525  0.00  0.00    +0.000 C 
ATOM     20  C   UNL     1      30.637 -22.603 -15.288  0.00  0.00    +0.002 C 
ENDBRANCH   7  15
BRANCH   9  21
ATOM     21  O   UNL     1      36.013 -27.555 -14.934  0.00  0.00    -0.357 OA
ATOM     22  H   UNL     1      36.050 -27.749 -13.985  0.00  0.00    +0.213 HD
ENDBRANCH   9  21
BRANCH   3  23
ATOM     23  C   UNL     1      38.172 -23.661 -13.206  0.00  0.00    +0.114 C 
BRANCH  23  24
ATOM     24  C   UNL     1      39.288 -24.639 -12.855  0.00  0.00    +0.127 C 
BRANCH  24  26
ATOM     25  N   UNL     1      40.654 -25.370 -14.982  0.00  0.00    -0.196 NA
ATOM     26  C   UNL     1      40.051 -25.047 -14.044  0.00  0.00    +0.075 C 
ENDBRANCH  24  26
ENDBRANCH  23  24
ENDBRANCH   3  23
TORSDOF 5
ENDMDL
MODEL 4
REMARK VINA RESULT:      -7.5     14.582     16.993
REMARK  Name = 3033621
REMARK  5 active torsions:
REMARK  status: ('A' for Active; 'I' for Inactive)
REMARK    1  A    between atoms: N_3  and  C_23
REMARK    2  A    between atoms: C_7  and  C_15
REMARK    3  A    between atoms: C_9  and  O_21
REMARK    4  A    between atoms: C_23  and  C_24
REMARK    5  A    between atoms: C_24  and  C_26
REMARK                            x       y       z     vdW  Elec       q    Type
REMARK                         _______ _______ _______ _____ _____    ______ ____
ROOT
ATOM      1 CL   UNL     1      31.184 -10.279 -18.538  0.00  0.00    -0.082 Cl
ATOM      2  O   UNL     1      34.296 -11.515 -25.912  0.00  0.00    -0.270 OA
ATOM      3  N   UNL     1      32.923 -11.807 -24.058  0.00  0.00    -0.254 N 
ATOM      4  N   UNL     1      34.020  -8.985 -23.960  0.00  0.00    -0.235 NA
ATOM      5  C   UNL     1      32.486 -11.395 -22.753  0.00  0.00    +0.055 C 
ATOM      6  C   UNL     1      32.563 -10.063 -22.301  0.00  0.00    +0.032 C 
ATOM      7  C   UNL     1      32.986  -8.943 -23.190  0.00  0.00    +0.082 C 
ATOM      8  C   UNL     1      33.985 -11.214 -24.755  0.00  0.00    +0.281 C 
ATOM      9  C   UNL     1      34.815 -10.202 -23.979  0.00  0.00    +0.296 C 
ATOM     10  C   UNL     1      31.937 -12.350 -21.873  0.00  0.00    +0.016 C 
ATOM     11  C   UNL     1      32.175  -9.728 -20.990  0.00  0.00    +0.014 C 
ATOM     12  C   UNL     1      31.536 -12.007 -20.580  0.00  0.00    +0.013 C 
ATOM     13  C   UNL     1      31.665 -10.700 -20.135  0.00  0.00    +0.058 C 
ENDROOT
BRANCH   7  15
ATOM     14  F   UNL     1      33.307  -6.869 -21.300  0.00  0.00    -0.204 F 
ATOM     15  C   UNL     1      32.170  -7.694 -23.216  0.00  0.00    +0.045 C 
ATOM     16  C   UNL     1      32.380  -6.712 -22.256  0.00  0.00    +0.142 C 
ATOM     17  C   UNL     1      31.208  -7.526 -24.205  0.00  0.00    +0.004 C 
ATOM     18  C   UNL     1      31.616  -5.545 -22.284  0.00  0.00    +0.030 C 
ATOM     19  C   UNL     1      30.444  -6.359 -24.233  0.00  0.00    +0.000 C 
ATOM     20  C   UNL     1      30.647  -5.369 -23.273  0.00  0.00    +0.002 C 
ENDBRANCH   7  15
BRANCH   9  21
ATOM     21  O   UNL     1      36.071 -10.082 -24.642  0.00  0.00    -0.357 OA
ATOM     22  H   UNL     1      36.191 -10.831 -25.248  0.00  0.00    +0.213 HD
ENDBRANCH   9  21
BRANCH   3  23
ATOM     23  C   UNL     1      32.258 -12.958 -24.671  0.00  0.00    +0.114 C 
BRANCH  23  24
ATOM     24  C   UNL     1      32.999 -14.265 -24.413  0.00  0.00    +0.127 C 
BRANCH  24  26
ATOM     25  N   UNL     1      33.341 -15.647 -26.625  0.00  0.00    -0.196 NA
ATOM     26  C   UNL     1      33.191 -15.038 -25.649  0.00  0.00    +0.075 C 
ENDBRANCH  24  26
ENDBRANCH  23  24
ENDBRANCH   3  23
TORSDOF 5
ENDMDL
MODEL 5
REMARK VINA RESULT:      -7.4     15.813     18.136
REMARK  Name = 3033621
REMARK  5 active torsions:
REMARK  status: ('A' for Active; 'I' for Inactive)
REMARK    1  A    between atoms: N_3  and  C_23
REMARK    2  A    between atoms: C_7  and  C_15
REMARK    3  A    between atoms: C_9  and  O_21
REMARK    4  A    between atoms: C_23  and  C_24
REMARK    5  A    between atoms: C_24  and  C_26
REMARK                            x       y       z     vdW  Elec       q    Type
REMARK                         _______ _______ _______ _____ _____    ______ ____
ROOT
ATOM      1 CL   UNL     1      32.415  -6.147 -19.075  0.00  0.00    -0.082 Cl
ATOM      2  O   UNL     1      33.589 -11.631 -24.918  0.00  0.00    -0.270 OA
ATOM      3  N   UNL     1      32.629 -10.604 -23.065  0.00  0.00    -0.254 N 
ATOM      4  N   UNL     1      34.159  -8.491 -24.605  0.00  0.00    -0.235 NA
ATOM      5  C   UNL     1      32.561  -9.502 -22.146  0.00  0.00    +0.055 C 
ATOM      6  C   UNL     1      32.949  -8.190 -22.488  0.00  0.00    +0.032 C 
ATOM      7  C   UNL     1      33.340  -7.811 -23.876  0.00  0.00    +0.082 C 
ATOM      8  C   UNL     1      33.593 -10.727 -24.076  0.00  0.00    +0.281 C 
ATOM      9  C   UNL     1      34.724  -9.710 -24.052  0.00  0.00    +0.296 C 
ATOM     10  C   UNL     1      32.074  -9.717 -20.842  0.00  0.00    +0.016 C 
ATOM     11  C   UNL     1      32.917  -7.162 -21.528  0.00  0.00    +0.014 C 
ATOM     12  C   UNL     1      32.027  -8.687 -19.899  0.00  0.00    +0.013 C 
ATOM     13  C   UNL     1      32.460  -7.414 -20.239  0.00  0.00    +0.058 C 
ENDROOT
BRANCH   7  15
ATOM     14  F   UNL     1      34.782  -6.129 -25.627  0.00  0.00    -0.204 F 
ATOM     15  C   UNL     1      32.750  -6.582 -24.482  0.00  0.00    +0.045 C 
ATOM     16  C   UNL     1      33.515  -5.798 -25.338  0.00  0.00    +0.142 C 
ATOM     17  C   UNL     1      31.438  -6.236 -24.186  0.00  0.00    +0.004 C 
ATOM     18  C   UNL     1      32.959  -4.651 -25.903  0.00  0.00    +0.030 C 
ATOM     19  C   UNL     1      30.882  -5.088 -24.751  0.00  0.00    +0.000 C 
ATOM     20  C   UNL     1      31.642  -4.295 -25.610  0.00  0.00    +0.002 C 
ENDBRANCH   7  15
BRANCH   9  21
ATOM     21  O   UNL     1      35.807 -10.258 -24.801  0.00  0.00    -0.357 OA
ATOM     22  H   UNL     1      36.494 -10.575 -24.194  0.00  0.00    +0.213 HD
ENDBRANCH   9  21
BRANCH   3  23
ATOM     23  C   UNL     1      31.670 -11.696 -22.896  0.00  0.00    +0.114 C 
BRANCH  23  24
ATOM     24  C   UNL     1      32.136 -12.728 -21.875  0.00  0.00    +0.127 C 
BRANCH  24  26
ATOM     25  N   UNL     1      33.100 -14.885 -23.032  0.00  0.00    -0.196 NA
ATOM     26  C   UNL     1      32.676 -13.933 -22.522  0.00  0.00    +0.075 C 
ENDBRANCH  24  26
ENDBRANCH  23  24
ENDBRANCH   3  23
TORSDOF 5
ENDMDL
MODEL 6
REMARK VINA RESULT:      -7.4     13.443     15.567
REMARK  Name = 3033621
REMARK  5 active torsions:
REMARK  status: ('A' for Active; 'I' for Inactive)
REMARK    1  A    between atoms: N_3  and  C_23
REMARK    2  A    between atoms: C_7  and  C_15
REMARK    3  A    between atoms: C_9  and  O_21
REMARK    4  A    between atoms: C_23  and  C_24
REMARK    5  A    between atoms: C_24  and  C_26
REMARK                            x       y       z     vdW  Elec       q    Type
REMARK                         _______ _______ _______ _____ _____    ______ ____
ROOT
ATOM      1 CL   UNL     1      30.070 -11.349 -20.435  0.00  0.00    -0.082 Cl
ATOM      2  O   UNL     1      35.480 -10.823 -26.439  0.00  0.00    -0.270 OA
ATOM      3  N   UNL     1      34.349 -10.277 -24.482  0.00  0.00    -0.254 N 
ATOM      4  N   UNL     1      33.873 -13.217 -25.036  0.00  0.00    -0.235 NA
ATOM      5  C   UNL     1      33.349 -10.577 -23.495  0.00  0.00    +0.055 C 
ATOM      6  C   UNL     1      32.936 -11.890 -23.193  0.00  0.00    +0.032 C 
ATOM      7  C   UNL     1      33.598 -13.089 -23.782  0.00  0.00    +0.082 C 
ATOM      8  C   UNL     1      34.560 -11.035 -25.643  0.00  0.00    +0.281 C 
ATOM      9  C   UNL     1      33.536 -12.122 -25.930  0.00  0.00    +0.296 C 
ATOM     10  C   UNL     1      32.751  -9.524 -22.773  0.00  0.00    +0.016 C 
ATOM     11  C   UNL     1      31.910 -12.120 -22.258  0.00  0.00    +0.014 C 
ATOM     12  C   UNL     1      31.746  -9.761 -21.833  0.00  0.00    +0.013 C 
ATOM     13  C   UNL     1      31.318 -11.057 -21.584  0.00  0.00    +0.058 C 
ENDROOT
BRANCH   7  15
ATOM     14  F   UNL     1      33.839 -15.754 -24.688  0.00  0.00    -0.204 F 
ATOM     15  C   UNL     1      33.986 -14.215 -22.883  0.00  0.00    +0.045 C 
ATOM     16  C   UNL     1      34.087 -15.503 -23.394  0.00  0.00    +0.142 C 
ATOM     17  C   UNL     1      34.245 -13.961 -21.542  0.00  0.00    +0.004 C 
ATOM     18  C   UNL     1      34.452 -16.553 -22.550  0.00  0.00    +0.030 C 
ATOM     19  C   UNL     1      34.609 -15.010 -20.698  0.00  0.00    +0.000 C 
ATOM     20  C   UNL     1      34.712 -16.307 -21.202  0.00  0.00    +0.002 C 
ENDBRANCH   7  15
BRANCH   9  21
ATOM     21  O   UNL     1      33.625 -12.437 -27.318  0.00  0.00    -0.357 OA
ATOM     22  H   UNL     1      33.097 -11.804 -27.829  0.00  0.00    +0.213 HD
ENDBRANCH   9  21
BRANCH   3  23
ATOM     23  C   UNL     1      35.154  -9.069 -24.296  0.00  0.00    +0.114 C 
BRANCH  23  24
ATOM     24  C   UNL     1      34.305  -7.848 -23.963  0.00  0.00    +0.127 C 
BRANCH  24  26
ATOM     25  N   UNL     1      34.555  -5.958 -25.775  0.00  0.00    -0.196 NA
ATOM     26  C   UNL     1      34.446  -6.791 -24.975  0.00  0.00    +0.075 C 
ENDBRANCH  24  26
ENDBRANCH  23  24
ENDBRANCH   3  23
TORSDOF 5
ENDMDL
MODEL 7
REMARK VINA RESULT:      -7.2     10.879     13.512
REMARK  Name = 3033621
REMARK  5 active torsions:
REMARK  status: ('A' for Active; 'I' for Inactive)
REMARK    1  A    between atoms: N_3  and  C_23
REMARK    2  A    between atoms: C_7  and  C_15
REMARK    3  A    between atoms: C_9  and  O_21
REMARK    4  A    between atoms: C_23  and  C_24
REMARK    5  A    between atoms: C_24  and  C_26
REMARK                            x       y       z     vdW  Elec       q    Type
REMARK                         _______ _______ _______ _____ _____    ______ ____
ROOT
ATOM      1 CL   UNL     1      31.995 -13.896 -27.724  0.00  0.00    -0.082 Cl
ATOM      2  O   UNL     1      34.252 -16.093 -20.263  0.00  0.00    -0.270 OA
ATOM      3  N   UNL     1      34.358 -15.813 -22.569  0.00  0.00    -0.254 N 
ATOM      4  N   UNL     1      32.379 -13.793 -21.482  0.00  0.00    -0.235 NA
ATOM      5  C   UNL     1      33.798 -15.303 -23.790  0.00  0.00    +0.055 C 
ATOM      6  C   UNL     1      32.964 -14.168 -23.839  0.00  0.00    +0.032 C 
ATOM      7  C   UNL     1      32.698 -13.322 -22.640  0.00  0.00    +0.082 C 
ATOM      8  C   UNL     1      33.724 -15.733 -21.320  0.00  0.00    +0.281 C 
ATOM      9  C   UNL     1      32.287 -15.235 -21.327  0.00  0.00    +0.296 C 
ATOM     10  C   UNL     1      34.096 -15.944 -25.009  0.00  0.00    +0.016 C 
ATOM     11  C   UNL     1      32.397 -13.749 -25.056  0.00  0.00    +0.014 C 
ATOM     12  C   UNL     1      33.544 -15.512 -26.217  0.00  0.00    +0.013 C 
ATOM     13  C   UNL     1      32.686 -14.422 -26.239  0.00  0.00    +0.058 C 
ENDROOT
BRANCH   7  15
ATOM     14  F   UNL     1      30.963 -11.537 -21.306  0.00  0.00    -0.204 F 
ATOM     15  C   UNL     1      32.817 -11.840 -22.760  0.00  0.00    +0.045 C 
ATOM     16  C   UNL     1      31.930 -11.018 -22.076  0.00  0.00    +0.142 C 
ATOM     17  C   UNL     1      33.818 -11.297 -23.557  0.00  0.00    +0.004 C 
ATOM     18  C   UNL     1      32.046  -9.632 -22.191  0.00  0.00    +0.030 C 
ATOM     19  C   UNL     1      33.933  -9.911 -23.672  0.00  0.00    +0.000 C 
ATOM     20  C   UNL     1      33.047  -9.079 -22.989  0.00  0.00    +0.002 C 
ENDBRANCH   7  15
BRANCH   9  21
ATOM     21  O   UNL     1      31.680 -15.667 -20.111  0.00  0.00    -0.357 OA
ATOM     22  H   UNL     1      31.074 -14.981 -19.790  0.00  0.00    +0.213 HD
ENDBRANCH   9  21
BRANCH   3  23
ATOM     23  C   UNL     1      35.639 -16.515 -22.644  0.00  0.00    +0.114 C 
BRANCH  23  24
ATOM     24  C   UNL     1      35.472 -18.029 -22.701  0.00  0.00    +0.127 C 
BRANCH  24  26
ATOM     25  N   UNL     1      36.415 -19.200 -20.542  0.00  0.00    -0.196 NA
ATOM     26  C   UNL     1      36.000 -18.683 -21.494  0.00  0.00    +0.075 C 
ENDBRANCH  24  26
ENDBRANCH  23  24
ENDBRANCH   3  23
TORSDOF 5
ENDMDL
MODEL 8
REMARK VINA RESULT:      -7.1     12.819     15.225
REMARK  Name = 3033621
REMARK  5 active torsions:
REMARK  status: ('A' for Active; 'I' for Inactive)
REMARK    1  A    between atoms: N_3  and  C_23
REMARK    2  A    between atoms: C_7  and  C_15
REMARK    3  A    between atoms: C_9  and  O_21
REMARK    4  A    between atoms: C_23  and  C_24
REMARK    5  A    between atoms: C_24  and  C_26
REMARK                            x       y       z     vdW  Elec       q    Type
REMARK                         _______ _______ _______ _____ _____    ______ ____
ROOT
ATOM      1 CL   UNL     1      33.553 -13.029 -27.618  0.00  0.00    -0.082 Cl
ATOM      2  O   UNL     1      32.045 -12.572 -19.673  0.00  0.00    -0.270 OA
ATOM      3  N   UNL     1      33.065 -13.236 -21.655  0.00  0.00    -0.254 N 
ATOM      4  N   UNL     1      31.673 -10.595 -22.171  0.00  0.00    -0.235 NA
ATOM      5  C   UNL     1      33.200 -13.137 -23.082  0.00  0.00    +0.055 C 
ATOM      6  C   UNL     1      32.896 -11.965 -23.803  0.00  0.00    +0.032 C 
ATOM      7  C   UNL     1      32.532 -10.685 -23.129  0.00  0.00    +0.082 C 
ATOM      8  C   UNL     1      32.096 -12.551 -20.907  0.00  0.00    +0.281 C 
ATOM      9  C   UNL     1      31.031 -11.813 -21.704  0.00  0.00    +0.296 C 
ATOM     10  C   UNL     1      33.671 -14.247 -23.811  0.00  0.00    +0.016 C 
ATOM     11  C   UNL     1      32.991 -11.944 -25.207  0.00  0.00    +0.014 C 
ATOM     12  C   UNL     1      33.781 -14.213 -25.203  0.00  0.00    +0.013 C 
ATOM     13  C   UNL     1      33.430 -13.067 -25.901  0.00  0.00    +0.058 C 
ENDROOT
BRANCH   7  15
ATOM     14  F   UNL     1      31.164  -8.222 -23.321  0.00  0.00    -0.204 F 
ATOM     15  C   UNL     1      33.199  -9.424 -23.564  0.00  0.00    +0.045 C 
ATOM     16  C   UNL     1      32.467  -8.245 -23.637  0.00  0.00    +0.142 C 
ATOM     17  C   UNL     1      34.549  -9.443 -23.893  0.00  0.00    +0.004 C 
ATOM     18  C   UNL     1      33.095  -7.068 -24.043  0.00  0.00    +0.030 C 
ATOM     19  C   UNL     1      35.177  -8.265 -24.299  0.00  0.00    +0.000 C 
ATOM     20  C   UNL     1      34.451  -7.078 -24.375  0.00  0.00    +0.002 C 
ENDBRANCH   7  15
BRANCH   9  21
ATOM     21  O   UNL     1      29.918 -11.605 -20.839  0.00  0.00    -0.357 OA
ATOM     22  H   UNL     1      29.832 -12.359 -20.234  0.00  0.00    +0.213 HD
ENDBRANCH   9  21
BRANCH   3  23
ATOM     23  C   UNL     1      33.953 -14.158 -20.946  0.00  0.00    +0.114 C 
BRANCH  23  24
ATOM     24  C   UNL     1      33.379 -15.567 -20.857  0.00  0.00    +0.127 C 
BRANCH  24  26
ATOM     25  N   UNL     1      35.271 -17.395 -20.821  0.00  0.00    -0.196 NA
ATOM     26  C   UNL     1      34.437 -16.589 -20.837  0.00  0.00    +0.075 C 
ENDBRANCH  24  26
ENDBRANCH  23  24
ENDBRANCH   3  23
TORSDOF 5
ENDMDL
MODEL 9
REMARK VINA RESULT:      -7.0     11.702     13.924
REMARK  Name = 3033621
REMARK  5 active torsions:
REMARK  status: ('A' for Active; 'I' for Inactive)
REMARK    1  A    between atoms: N_3  and  C_23
REMARK    2  A    between atoms: C_7  and  C_15
REMARK    3  A    between atoms: C_9  and  O_21
REMARK    4  A    between atoms: C_23  and  C_24
REMARK    5  A    between atoms: C_24  and  C_26
REMARK                            x       y       z     vdW  Elec       q    Type
REMARK                         _______ _______ _______ _____ _____    ______ ____
ROOT
ATOM      1 CL   UNL     1      31.918 -15.134 -19.508  0.00  0.00    -0.082 Cl
ATOM      2  O   UNL     1      33.951 -12.431 -26.867  0.00  0.00    -0.270 OA
ATOM      3  N   UNL     1      33.812 -12.515 -24.547  0.00  0.00    -0.254 N 
ATOM      4  N   UNL     1      33.294 -15.306 -25.607  0.00  0.00    -0.235 NA
ATOM      5  C   UNL     1      33.391 -13.184 -23.347  0.00  0.00    +0.055 C 
ATOM      6  C   UNL     1      33.232 -14.582 -23.260  0.00  0.00    +0.032 C 
ATOM      7  C   UNL     1      33.615 -15.498 -24.373  0.00  0.00    +0.082 C 
ATOM      8  C   UNL     1      33.510 -12.961 -25.842  0.00  0.00    +0.281 C 
ATOM      9  C   UNL     1      32.527 -14.118 -25.942  0.00  0.00    +0.296 C 
ATOM     10  C   UNL     1      33.134 -12.426 -22.187  0.00  0.00    +0.016 C 
ATOM     11  C   UNL     1      32.760 -15.176 -22.075  0.00  0.00    +0.014 C 
ATOM     12  C   UNL     1      32.683 -13.025 -21.008  0.00  0.00    +0.013 C 
ATOM     13  C   UNL     1      32.485 -14.397 -20.956  0.00  0.00    +0.058 C 
ENDROOT
BRANCH   7  15
ATOM     14  F   UNL     1      33.314 -17.938 -25.763  0.00  0.00    -0.204 F 
ATOM     15  C   UNL     1      34.430 -16.708 -24.064  0.00  0.00    +0.045 C 
ATOM     16  C   UNL     1      34.232 -17.878 -24.787  0.00  0.00    +0.142 C 
ATOM     17  C   UNL     1      35.383 -16.652 -23.053  0.00  0.00    +0.004 C 
ATOM     18  C   UNL     1      34.997 -19.007 -24.496  0.00  0.00    +0.030 C 
ATOM     19  C   UNL     1      36.148 -17.781 -22.762  0.00  0.00    +0.000 C 
ATOM     20  C   UNL     1      35.955 -18.959 -23.482  0.00  0.00    +0.002 C 
ENDBRANCH   7  15
BRANCH   9  21
ATOM     21  O   UNL     1      31.989 -14.108 -27.263  0.00  0.00    -0.357 OA
ATOM     22  H   UNL     1      31.538 -13.264 -27.423  0.00  0.00    +0.213 HD
ENDBRANCH   9  21
BRANCH   3  23
ATOM     23  C   UNL     1      34.547 -11.258 -24.408  0.00  0.00    +0.114 C 
BRANCH  23  24
ATOM     24  C   UNL     1      33.623 -10.054 -24.273  0.00  0.00    +0.127 C 
BRANCH  24  26
ATOM     25  N   UNL     1      34.904  -7.931 -23.395  0.00  0.00    -0.196 NA
ATOM     26  C   UNL     1      34.339  -8.867 -23.781  0.00  0.00    +0.075 C 
ENDBRANCH  24  26
ENDBRANCH  23  24
ENDBRANCH   3  23
TORSDOF 5
ENDMDL
