MODEL 1
REMARK VINA RESULT:     -11.6      0.000      0.000
REMARK  Name = 213049
REMARK  9 active torsions:
REMARK  status: ('A' for Active; 'I' for Inactive)
REMARK    1  A    between atoms: C_3  and  C_13
REMARK    2  A    between atoms: C_4  and  N_25
REMARK    3  A    between atoms: C_16  and  C_17
REMARK    4  A    between atoms: C_17  and  O_18
REMARK    5  A    between atoms: C_17  and  C_20
REMARK    6  A    between atoms: C_20  and  O_21
REMARK    7  A    between atoms: C_26  and  C_29
REMARK    8  A    between atoms: C_29  and  O_30
REMARK    9  A    between atoms: O_30  and  C_33
REMARK                            x       y       z     vdW  Elec       q    Type
REMARK                         _______ _______ _______ _____ _____    ______ ____
ROOT
ATOM      1  F   UNL     1      32.288 -19.510 -21.161  0.00  0.00    -0.204 F 
ATOM      2  F   UNL     1      37.043 -19.426 -21.110  0.00  0.00    -0.204 F 
ATOM      3  C   UNL     1      34.666 -19.438 -21.165  0.00  0.00    +0.051 C 
ATOM      4  C   UNL     1      34.677 -21.362 -19.144  0.00  0.00    +0.062 C 
ATOM      5  C   UNL     1      33.461 -19.941 -20.672  0.00  0.00    +0.143 C 
ATOM      6  C   UNL     1      35.876 -19.898 -20.646  0.00  0.00    +0.143 C 
ATOM      7  C   UNL     1      33.466 -20.903 -19.663  0.00  0.00    +0.045 C 
ATOM      8  C   UNL     1      35.883 -20.859 -19.636  0.00  0.00    +0.045 C 
ENDROOT
BRANCH   3  13
ATOM      9  O   UNL     1      33.460 -16.070 -26.386  0.00  0.00    -0.272 OA
ATOM     10  N   UNL     1      34.457 -16.501 -24.328  0.00  0.00    -0.273 N 
ATOM     11  C   UNL     1      34.307 -18.856 -23.637  0.00  0.00    +0.048 C 
ATOM     12  C   UNL     1      34.820 -17.872 -24.684  0.00  0.00    +0.098 C 
ATOM     13  C   UNL     1      34.659 -18.416 -22.237  0.00  0.00    -0.019 C 
ATOM     14  C   UNL     1      34.918 -16.031 -23.015  0.00  0.00    +0.120 C 
ATOM     15  C   UNL     1      34.940 -17.124 -21.985  0.00  0.00    -0.009 C 
ATOM     16  C   UNL     1      33.849 -15.681 -25.282  0.00  0.00    +0.255 C 
BRANCH  16  17
ATOM     17  C   UNL     1      33.663 -14.233 -24.900  0.00  0.00    +0.217 C 
BRANCH  17  18
ATOM     18  O   UNL     1      33.410 -13.552 -26.112  0.00  0.00    -0.374 OA
ATOM     19  H   UNL     1      34.238 -13.181 -26.455  0.00  0.00    +0.211 HD
ENDBRANCH  17  18
BRANCH  17  20
ATOM     20  C   UNL     1      32.476 -14.074 -23.975  0.00  0.00    +0.176 C 
BRANCH  20  21
ATOM     21  O   UNL     1      32.786 -13.134 -22.957  0.00  0.00    -0.379 OA
ATOM     22  H   UNL     1      32.673 -13.550 -22.088  0.00  0.00    +0.211 HD
ENDBRANCH  20  21
ENDBRANCH  17  20
ENDBRANCH  16  17
ENDBRANCH   3  13
BRANCH   4  25
ATOM     23  O   UNL     1      35.284 -23.600 -16.336  0.00  0.00    -0.432 OA
ATOM     24  O   UNL     1      36.707 -21.945 -16.955  0.00  0.00    -0.226 OA
ATOM     25  N   UNL     1      34.683 -22.346 -18.114  0.00  0.00    -0.221 N 
ATOM     26  C   UNL     1      33.932 -23.968 -16.645  0.00  0.00    +0.234 C 
ATOM     27  C   UNL     1      33.687 -23.378 -18.016  0.00  0.00    +0.149 C 
ATOM     28  C   UNL     1      35.655 -22.542 -17.136  0.00  0.00    +0.409 C 
BRANCH  26  29
ATOM     29  C   UNL     1      33.012 -23.400 -15.574  0.00  0.00    +0.252 C 
BRANCH  29  30
ATOM     30  O   UNL     1      31.818 -24.166 -15.549  0.00  0.00    -0.454 OA
BRANCH  30  33
ATOM     31  O   UNL     1      29.344 -22.191 -16.956  0.00  0.00    -0.347 OA
ATOM     32  N   UNL     1      30.633 -22.711 -16.926  0.00  0.00    -0.039 NA
ATOM     33  C   UNL     1      30.662 -23.500 -15.848  0.00  0.00    +0.264 C 
ATOM     34  C   UNL     1      29.433 -23.517 -15.165  0.00  0.00    +0.104 C 
ATOM     35  C   UNL     1      28.639 -22.678 -15.902  0.00  0.00    +0.217 C 
ENDBRANCH  30  33
ENDBRANCH  29  30
ENDBRANCH  26  29
ENDBRANCH   4  25
TORSDOF 9
ENDMDL
MODEL 2
REMARK VINA RESULT:     -11.5      0.077      1.443
REMARK  Name = 213049
REMARK  9 active torsions:
REMARK  status: ('A' for Active; 'I' for Inactive)
REMARK    1  A    between atoms: C_3  and  C_13
REMARK    2  A    between atoms: C_4  and  N_25
REMARK    3  A    between atoms: C_16  and  C_17
REMARK    4  A    between atoms: C_17  and  O_18
REMARK    5  A    between atoms: C_17  and  C_20
REMARK    6  A    between atoms: C_20  and  O_21
REMARK    7  A    between atoms: C_26  and  C_29
REMARK    8  A    between atoms: C_29  and  O_30
REMARK    9  A    between atoms: O_30  and  C_33
REMARK                            x       y       z     vdW  Elec       q    Type
REMARK                         _______ _______ _______ _____ _____    ______ ____
ROOT
ATOM      1  F   UNL     1      37.051 -19.294 -21.086  0.00  0.00    -0.204 F 
ATOM      2  F   UNL     1      32.306 -19.540 -21.273  0.00  0.00    -0.204 F 
ATOM      3  C   UNL     1      34.678 -19.389 -21.210  0.00  0.00    +0.051 C 
ATOM      4  C   UNL     1      34.699 -21.313 -19.190  0.00  0.00    +0.062 C 
ATOM      5  C   UNL     1      35.888 -19.808 -20.658  0.00  0.00    +0.143 C 
ATOM      6  C   UNL     1      33.477 -19.933 -20.753  0.00  0.00    +0.143 C 
ATOM      7  C   UNL     1      35.899 -20.769 -19.647  0.00  0.00    +0.045 C 
ATOM      8  C   UNL     1      33.488 -20.895 -19.743  0.00  0.00    +0.045 C 
ENDROOT
BRANCH   3  13
ATOM      9  O   UNL     1      33.444 -16.019 -26.424  0.00  0.00    -0.272 OA
ATOM     10  N   UNL     1      34.456 -16.453 -24.374  0.00  0.00    -0.273 N 
ATOM     11  C   UNL     1      34.301 -18.808 -23.680  0.00  0.00    +0.048 C 
ATOM     12  C   UNL     1      34.810 -17.826 -24.732  0.00  0.00    +0.098 C 
ATOM     13  C   UNL     1      34.667 -18.368 -22.284  0.00  0.00    -0.019 C 
ATOM     14  C   UNL     1      34.929 -15.984 -23.065  0.00  0.00    +0.120 C 
ATOM     15  C   UNL     1      34.955 -17.077 -22.034  0.00  0.00    -0.009 C 
ATOM     16  C   UNL     1      33.843 -15.631 -25.324  0.00  0.00    +0.255 C 
BRANCH  16  17
ATOM     17  C   UNL     1      33.666 -14.182 -24.941  0.00  0.00    +0.217 C 
BRANCH  17  18
ATOM     18  O   UNL     1      33.448 -13.494 -26.156  0.00  0.00    -0.374 OA
ATOM     19  H   UNL     1      32.715 -12.868 -26.047  0.00  0.00    +0.211 HD
ENDBRANCH  17  18
BRANCH  17  20
ATOM     20  C   UNL     1      32.462 -14.011 -24.042  0.00  0.00    +0.176 C 
BRANCH  20  21
ATOM     21  O   UNL     1      32.790 -13.150 -22.961  0.00  0.00    -0.379 OA
ATOM     22  H   UNL     1      33.377 -12.446 -23.276  0.00  0.00    +0.211 HD
ENDBRANCH  20  21
ENDBRANCH  17  20
ENDBRANCH  16  17
ENDBRANCH   3  13
BRANCH   4  25
ATOM     23  O   UNL     1      35.320 -23.545 -16.381  0.00  0.00    -0.432 OA
ATOM     24  O   UNL     1      36.743 -21.896 -17.014  0.00  0.00    -0.226 OA
ATOM     25  N   UNL     1      34.710 -22.294 -18.158  0.00  0.00    -0.221 N 
ATOM     26  C   UNL     1      33.964 -23.911 -16.679  0.00  0.00    +0.234 C 
ATOM     27  C   UNL     1      33.711 -23.323 -18.050  0.00  0.00    +0.149 C 
ATOM     28  C   UNL     1      35.688 -22.490 -17.186  0.00  0.00    +0.409 C 
BRANCH  26  29
ATOM     29  C   UNL     1      33.054 -23.337 -15.603  0.00  0.00    +0.252 C 
BRANCH  29  30
ATOM     30  O   UNL     1      31.865 -24.109 -15.556  0.00  0.00    -0.454 OA
BRANCH  30  33
ATOM     31  O   UNL     1      29.357 -22.180 -16.967  0.00  0.00    -0.347 OA
ATOM     32  N   UNL     1      30.646 -22.700 -16.951  0.00  0.00    -0.039 NA
ATOM     33  C   UNL     1      30.702 -23.452 -15.849  0.00  0.00    +0.264 C 
ATOM     34  C   UNL     1      29.490 -23.446 -15.135  0.00  0.00    +0.104 C 
ATOM     35  C   UNL     1      28.678 -22.631 -15.880  0.00  0.00    +0.217 C 
ENDBRANCH  30  33
ENDBRANCH  29  30
ENDBRANCH  26  29
ENDBRANCH   4  25
TORSDOF 9
ENDMDL
MODEL 3
REMARK VINA RESULT:     -11.1      2.110     10.120
REMARK  Name = 213049
REMARK  9 active torsions:
REMARK  status: ('A' for Active; 'I' for Inactive)
REMARK    1  A    between atoms: C_3  and  C_13
REMARK    2  A    between atoms: C_4  and  N_25
REMARK    3  A    between atoms: C_16  and  C_17
REMARK    4  A    between atoms: C_17  and  O_18
REMARK    5  A    between atoms: C_17  and  C_20
REMARK    6  A    between atoms: C_20  and  O_21
REMARK    7  A    between atoms: C_26  and  C_29
REMARK    8  A    between atoms: C_29  and  O_30
REMARK    9  A    between atoms: O_30  and  C_33
REMARK                            x       y       z     vdW  Elec       q    Type
REMARK                         _______ _______ _______ _____ _____    ______ ____
ROOT
ATOM      1  F   UNL     1      36.943 -21.378 -20.152  0.00  0.00    -0.204 F 
ATOM      2  F   UNL     1      32.341 -20.286 -19.666  0.00  0.00    -0.204 F 
ATOM      3  C   UNL     1      34.639 -20.857 -19.875  0.00  0.00    +0.051 C 
ATOM      4  C   UNL     1      34.812 -19.153 -22.078  0.00  0.00    +0.062 C 
ATOM      5  C   UNL     1      35.851 -20.708 -20.550  0.00  0.00    +0.143 C 
ATOM      6  C   UNL     1      33.513 -20.153 -20.302  0.00  0.00    +0.143 C 
ATOM      7  C   UNL     1      35.938 -19.857 -21.651  0.00  0.00    +0.045 C 
ATOM      8  C   UNL     1      33.599 -19.301 -21.403  0.00  0.00    +0.045 C 
ENDROOT
BRANCH   3  13
ATOM      9  O   UNL     1      35.047 -23.461 -14.121  0.00  0.00    -0.272 OA
ATOM     10  N   UNL     1      34.373 -23.336 -16.345  0.00  0.00    -0.273 N 
ATOM     11  C   UNL     1      35.637 -21.687 -17.662  0.00  0.00    +0.048 C 
ATOM     12  C   UNL     1      35.703 -22.961 -16.825  0.00  0.00    +0.098 C 
ATOM     13  C   UNL     1      34.548 -21.761 -18.705  0.00  0.00    -0.019 C 
ATOM     14  C   UNL     1      33.347 -23.537 -17.376  0.00  0.00    +0.120 C 
ATOM     15  C   UNL     1      33.521 -22.618 -18.552  0.00  0.00    -0.009 C 
ATOM     16  C   UNL     1      34.189 -23.628 -14.991  0.00  0.00    +0.255 C 
BRANCH  16  17
ATOM     17  C   UNL     1      32.836 -24.172 -14.601  0.00  0.00    +0.217 C 
BRANCH  17  18
ATOM     18  O   UNL     1      33.096 -25.186 -13.652  0.00  0.00    -0.374 OA
ATOM     19  H   UNL     1      33.262 -24.783 -12.785  0.00  0.00    +0.211 HD
ENDBRANCH  17  18
BRANCH  17  20
ATOM     20  C   UNL     1      31.990 -23.092 -13.966  0.00  0.00    +0.176 C 
BRANCH  20  21
ATOM     21  O   UNL     1      32.400 -22.892 -12.621  0.00  0.00    -0.379 OA
ATOM     22  H   UNL     1      32.632 -21.959 -12.489  0.00  0.00    +0.211 HD
ENDBRANCH  20  21
ENDBRANCH  17  20
ENDBRANCH  16  17
ENDBRANCH   3  13
BRANCH   4  25
ATOM     23  O   UNL     1      34.899 -17.489 -25.316  0.00  0.00    -0.432 OA
ATOM     24  O   UNL     1      34.489 -19.704 -25.052  0.00  0.00    -0.226 OA
ATOM     25  N   UNL     1      34.899 -18.285 -23.203  0.00  0.00    -0.221 N 
ATOM     26  C   UNL     1      34.961 -16.341 -24.457  0.00  0.00    +0.234 C 
ATOM     27  C   UNL     1      35.301 -16.908 -23.097  0.00  0.00    +0.149 C 
ATOM     28  C   UNL     1      34.727 -18.618 -24.545  0.00  0.00    +0.409 C 
BRANCH  26  29
ATOM     29  C   UNL     1      33.616 -15.630 -24.492  0.00  0.00    +0.252 C 
BRANCH  29  30
ATOM     30  O   UNL     1      33.367 -15.066 -23.215  0.00  0.00    -0.454 OA
BRANCH  30  33
ATOM     31  O   UNL     1      32.190 -11.879 -22.542  0.00  0.00    -0.347 OA
ATOM     32  N   UNL     1      32.196 -13.254 -22.342  0.00  0.00    -0.039 NA
ATOM     33  C   UNL     1      33.125 -13.721 -23.181  0.00  0.00    +0.264 C 
ATOM     34  C   UNL     1      33.734 -12.697 -23.927  0.00  0.00    +0.104 C 
ATOM     35  C   UNL     1      33.110 -11.559 -23.488  0.00  0.00    +0.217 C 
ENDBRANCH  30  33
ENDBRANCH  29  30
ENDBRANCH  26  29
ENDBRANCH   4  25
TORSDOF 9
ENDMDL
MODEL 4
REMARK VINA RESULT:     -10.7      3.104     10.487
REMARK  Name = 213049
REMARK  9 active torsions:
REMARK  status: ('A' for Active; 'I' for Inactive)
REMARK    1  A    between atoms: C_3  and  C_13
REMARK    2  A    between atoms: C_4  and  N_25
REMARK    3  A    between atoms: C_16  and  C_17
REMARK    4  A    between atoms: C_17  and  O_18
REMARK    5  A    between atoms: C_17  and  C_20
REMARK    6  A    between atoms: C_20  and  O_21
REMARK    7  A    between atoms: C_26  and  C_29
REMARK    8  A    between atoms: C_29  and  O_30
REMARK    9  A    between atoms: O_30  and  C_33
REMARK                            x       y       z     vdW  Elec       q    Type
REMARK                         _______ _______ _______ _____ _____    ______ ____
ROOT
ATOM      1  F   UNL     1      35.710 -17.866 -23.789  0.00  0.00    -0.204 F 
ATOM      2  F   UNL     1      32.924 -16.517 -20.178  0.00  0.00    -0.204 F 
ATOM      3  C   UNL     1      34.322 -17.228 -21.965  0.00  0.00    +0.051 C 
ATOM      4  C   UNL     1      34.007 -14.721 -23.147  0.00  0.00    +0.062 C 
ATOM      5  C   UNL     1      34.951 -16.943 -23.177  0.00  0.00    +0.143 C 
ATOM      6  C   UNL     1      33.536 -16.258 -21.343  0.00  0.00    +0.143 C 
ATOM      7  C   UNL     1      34.793 -15.690 -23.768  0.00  0.00    +0.045 C 
ATOM      8  C   UNL     1      33.378 -15.005 -21.933  0.00  0.00    +0.045 C 
ENDROOT
BRANCH   3  13
ATOM      9  O   UNL     1      36.150 -22.089 -18.347  0.00  0.00    -0.272 OA
ATOM     10  N   UNL     1      34.864 -21.022 -19.966  0.00  0.00    -0.273 N 
ATOM     11  C   UNL     1      35.841 -18.908 -20.760  0.00  0.00    +0.048 C 
ATOM     12  C   UNL     1      36.022 -20.417 -20.623  0.00  0.00    +0.098 C 
ATOM     13  C   UNL     1      34.491 -18.560 -21.337  0.00  0.00    -0.019 C 
ATOM     14  C   UNL     1      33.564 -20.789 -20.608  0.00  0.00    +0.120 C 
ATOM     15  C   UNL     1      33.474 -19.439 -21.260  0.00  0.00    -0.009 C 
ATOM     16  C   UNL     1      35.060 -21.890 -18.889  0.00  0.00    +0.255 C 
BRANCH  16  17
ATOM     17  C   UNL     1      33.836 -22.608 -18.376  0.00  0.00    +0.217 C 
BRANCH  17  18
ATOM     18  O   UNL     1      33.805 -23.842 -19.063  0.00  0.00    -0.374 OA
ATOM     19  H   UNL     1      32.898 -24.033 -19.347  0.00  0.00    +0.211 HD
ENDBRANCH  17  18
BRANCH  17  20
ATOM     20  C   UNL     1      33.951 -22.862 -16.889  0.00  0.00    +0.176 C 
BRANCH  20  21
ATOM     21  O   UNL     1      34.750 -24.014 -16.661  0.00  0.00    -0.379 OA
ATOM     22  H   UNL     1      35.499 -23.780 -16.090  0.00  0.00    +0.211 HD
ENDBRANCH  20  21
ENDBRANCH  17  20
ENDBRANCH  16  17
ENDBRANCH   3  13
BRANCH   4  25
ATOM     23  O   UNL     1      33.407 -11.801 -25.238  0.00  0.00    -0.432 OA
ATOM     24  O   UNL     1      33.132 -13.936 -25.952  0.00  0.00    -0.226 OA
ATOM     25  N   UNL     1      33.844 -13.441 -23.750  0.00  0.00    -0.221 N 
ATOM     26  C   UNL     1      33.594 -11.151 -23.972  0.00  0.00    +0.234 C 
ATOM     27  C   UNL     1      34.211 -12.216 -23.092  0.00  0.00    +0.149 C 
ATOM     28  C   UNL     1      33.426 -13.165 -25.050  0.00  0.00    +0.409 C 
BRANCH  26  29
ATOM     29  C   UNL     1      32.244 -10.663 -23.467  0.00  0.00    +0.252 C 
BRANCH  29  30
ATOM     30  O   UNL     1      32.442  -9.477 -22.715  0.00  0.00    -0.454 OA
BRANCH  30  33
ATOM     31  O   UNL     1      32.065  -8.902 -19.320  0.00  0.00    -0.347 OA
ATOM     32  N   UNL     1      32.524  -8.548 -20.583  0.00  0.00    -0.039 NA
ATOM     33  C   UNL     1      32.133  -9.542 -21.385  0.00  0.00    +0.264 C 
ATOM     34  C   UNL     1      31.429 -10.542 -20.691  0.00  0.00    +0.104 C 
ATOM     35  C   UNL     1      31.414 -10.093 -19.397  0.00  0.00    +0.217 C 
ENDBRANCH  30  33
ENDBRANCH  29  30
ENDBRANCH  26  29
ENDBRANCH   4  25
TORSDOF 9
ENDMDL
MODEL 5
REMARK VINA RESULT:     -10.6      2.282      3.949
REMARK  Name = 213049
REMARK  9 active torsions:
REMARK  status: ('A' for Active; 'I' for Inactive)
REMARK    1  A    between atoms: C_3  and  C_13
REMARK    2  A    between atoms: C_4  and  N_25
REMARK    3  A    between atoms: C_16  and  C_17
REMARK    4  A    between atoms: C_17  and  O_18
REMARK    5  A    between atoms: C_17  and  C_20
REMARK    6  A    between atoms: C_20  and  O_21
REMARK    7  A    between atoms: C_26  and  C_29
REMARK    8  A    between atoms: C_29  and  O_30
REMARK    9  A    between atoms: O_30  and  C_33
REMARK                            x       y       z     vdW  Elec       q    Type
REMARK                         _______ _______ _______ _____ _____    ______ ____
ROOT
ATOM      1  F   UNL     1      31.912 -19.326 -20.932  0.00  0.00    -0.204 F 
ATOM      2  F   UNL     1      36.647 -19.766 -20.968  0.00  0.00    -0.204 F 
ATOM      3  C   UNL     1      34.283 -19.514 -20.977  0.00  0.00    +0.051 C 
ATOM      4  C   UNL     1      34.103 -21.590 -19.121  0.00  0.00    +0.062 C 
ATOM      5  C   UNL     1      33.035 -19.922 -20.503  0.00  0.00    +0.143 C 
ATOM      6  C   UNL     1      35.441 -20.145 -20.522  0.00  0.00    +0.143 C 
ATOM      7  C   UNL     1      32.945 -20.959 -19.576  0.00  0.00    +0.045 C 
ATOM      8  C   UNL     1      35.351 -21.182 -19.594  0.00  0.00    +0.045 C 
ENDROOT
BRANCH   3  13
ATOM      9  O   UNL     1      34.035 -15.956 -26.205  0.00  0.00    -0.272 OA
ATOM     10  N   UNL     1      34.405 -16.377 -23.947  0.00  0.00    -0.273 N 
ATOM     11  C   UNL     1      34.594 -18.770 -23.412  0.00  0.00    +0.048 C 
ATOM     12  C   UNL     1      35.168 -17.598 -24.202  0.00  0.00    +0.098 C 
ATOM     13  C   UNL     1      34.377 -18.412 -21.962  0.00  0.00    -0.019 C 
ATOM     14  C   UNL     1      34.309 -15.958 -22.542  0.00  0.00    +0.120 C 
ATOM     15  C   UNL     1      34.258 -17.122 -21.594  0.00  0.00    -0.009 C 
ATOM     16  C   UNL     1      33.955 -15.609 -25.024  0.00  0.00    +0.255 C 
BRANCH  16  17
ATOM     17  C   UNL     1      33.329 -14.279 -24.683  0.00  0.00    +0.217 C 
BRANCH  17  18
ATOM     18  O   UNL     1      34.311 -13.576 -23.950  0.00  0.00    -0.374 OA
ATOM     19  H   UNL     1      33.971 -12.701 -23.709  0.00  0.00    +0.211 HD
ENDBRANCH  17  18
BRANCH  17  20
ATOM     20  C   UNL     1      32.995 -13.510 -25.942  0.00  0.00    +0.176 C 
BRANCH  20  21
ATOM     21  O   UNL     1      31.956 -14.174 -26.647  0.00  0.00    -0.379 OA
ATOM     22  H   UNL     1      31.633 -14.920 -26.119  0.00  0.00    +0.211 HD
ENDBRANCH  20  21
ENDBRANCH  17  20
ENDBRANCH  16  17
ENDBRANCH   3  13
BRANCH   4  25
ATOM     23  O   UNL     1      33.847 -24.701 -17.247  0.00  0.00    -0.432 OA
ATOM     24  O   UNL     1      33.879 -24.598 -19.512  0.00  0.00    -0.226 OA
ATOM     25  N   UNL     1      34.012 -22.650 -18.175  0.00  0.00    -0.221 N 
ATOM     26  C   UNL     1      34.123 -23.797 -16.168  0.00  0.00    +0.234 C 
ATOM     27  C   UNL     1      33.889 -22.424 -16.760  0.00  0.00    +0.149 C 
ATOM     28  C   UNL     1      33.921 -24.015 -18.439  0.00  0.00    +0.409 C 
BRANCH  26  29
ATOM     29  C   UNL     1      35.556 -24.012 -15.701  0.00  0.00    +0.252 C 
BRANCH  29  30
ATOM     30  O   UNL     1      35.743 -25.392 -15.433  0.00  0.00    -0.454 OA
BRANCH  30  33
ATOM     31  O   UNL     1      38.672 -27.068 -14.651  0.00  0.00    -0.347 OA
ATOM     32  N   UNL     1      37.403 -27.009 -15.215  0.00  0.00    -0.039 NA
ATOM     33  C   UNL     1      36.982 -25.762 -14.987  0.00  0.00    +0.264 C 
ATOM     34  C   UNL     1      37.932 -24.996 -14.290  0.00  0.00    +0.104 C 
ATOM     35  C   UNL     1      38.976 -25.863 -14.102  0.00  0.00    +0.217 C 
ENDBRANCH  30  33
ENDBRANCH  29  30
ENDBRANCH  26  29
ENDBRANCH   4  25
TORSDOF 9
ENDMDL
MODEL 6
REMARK VINA RESULT:     -10.6      2.003      2.989
REMARK  Name = 213049
REMARK  9 active torsions:
REMARK  status: ('A' for Active; 'I' for Inactive)
REMARK    1  A    between atoms: C_3  and  C_13
REMARK    2  A    between atoms: C_4  and  N_25
REMARK    3  A    between atoms: C_16  and  C_17
REMARK    4  A    between atoms: C_17  and  O_18
REMARK    5  A    between atoms: C_17  and  C_20
REMARK    6  A    between atoms: C_20  and  O_21
REMARK    7  A    between atoms: C_26  and  C_29
REMARK    8  A    between atoms: C_29  and  O_30
REMARK    9  A    between atoms: O_30  and  C_33
REMARK                            x       y       z     vdW  Elec       q    Type
REMARK                         _______ _______ _______ _____ _____    ______ ____
ROOT
ATOM      1  F   UNL     1      32.390 -19.849 -21.018  0.00  0.00    -0.204 F 
ATOM      2  F   UNL     1      37.106 -19.327 -20.697  0.00  0.00    -0.204 F 
ATOM      3  C   UNL     1      34.747 -19.558 -20.886  0.00  0.00    +0.051 C 
ATOM      4  C   UNL     1      34.830 -21.526 -18.910  0.00  0.00    +0.062 C 
ATOM      5  C   UNL     1      33.571 -20.183 -20.473  0.00  0.00    +0.143 C 
ATOM      6  C   UNL     1      35.966 -19.917 -20.310  0.00  0.00    +0.143 C 
ATOM      7  C   UNL     1      33.612 -21.167 -19.486  0.00  0.00    +0.045 C 
ATOM      8  C   UNL     1      36.008 -20.900 -19.323  0.00  0.00    +0.045 C 
ENDROOT
BRANCH   3  13
ATOM      9  O   UNL     1      33.706 -16.270 -26.193  0.00  0.00    -0.272 OA
ATOM     10  N   UNL     1      34.448 -16.587 -24.010  0.00  0.00    -0.273 N 
ATOM     11  C   UNL     1      34.657 -18.954 -23.378  0.00  0.00    +0.048 C 
ATOM     12  C   UNL     1      35.120 -17.848 -24.321  0.00  0.00    +0.098 C 
ATOM     13  C   UNL     1      34.703 -18.513 -21.935  0.00  0.00    -0.019 C 
ATOM     14  C   UNL     1      34.606 -16.091 -22.637  0.00  0.00    +0.120 C 
ATOM     15  C   UNL     1      34.686 -17.202 -21.628  0.00  0.00    -0.009 C 
ATOM     16  C   UNL     1      33.841 -15.860 -25.038  0.00  0.00    +0.255 C 
BRANCH  16  17
ATOM     17  C   UNL     1      33.321 -14.490 -24.674  0.00  0.00    +0.217 C 
BRANCH  17  18
ATOM     18  O   UNL     1      34.334 -13.900 -23.884  0.00  0.00    -0.374 OA
ATOM     19  H   UNL     1      34.646 -14.540 -23.225  0.00  0.00    +0.211 HD
ENDBRANCH  17  18
BRANCH  17  20
ATOM     20  C   UNL     1      33.100 -13.656 -25.916  0.00  0.00    +0.176 C 
BRANCH  20  21
ATOM     21  O   UNL     1      31.967 -14.141 -26.622  0.00  0.00    -0.379 OA
ATOM     22  H   UNL     1      31.276 -13.461 -26.629  0.00  0.00    +0.211 HD
ENDBRANCH  20  21
ENDBRANCH  17  20
ENDBRANCH  16  17
ENDBRANCH   3  13
BRANCH   4  25
ATOM     23  O   UNL     1      35.591 -23.927 -16.281  0.00  0.00    -0.432 OA
ATOM     24  O   UNL     1      37.123 -22.509 -17.169  0.00  0.00    -0.226 OA
ATOM     25  N   UNL     1      34.873 -22.531 -17.903  0.00  0.00    -0.221 N 
ATOM     26  C   UNL     1      34.163 -24.057 -16.314  0.00  0.00    +0.234 C 
ATOM     27  C   UNL     1      33.756 -23.388 -17.609  0.00  0.00    +0.149 C 
ATOM     28  C   UNL     1      35.971 -22.918 -17.138  0.00  0.00    +0.409 C 
BRANCH  26  29
ATOM     29  C   UNL     1      33.580 -23.383 -15.081  0.00  0.00    +0.252 C 
BRANCH  29  30
ATOM     30  O   UNL     1      34.642 -22.837 -14.317  0.00  0.00    -0.454 OA
BRANCH  30  33
ATOM     31  O   UNL     1      34.711 -24.860 -11.506  0.00  0.00    -0.347 OA
ATOM     32  N   UNL     1      34.086 -24.349 -12.637  0.00  0.00    -0.039 NA
ATOM     33  C   UNL     1      34.973 -23.506 -13.171  0.00  0.00    +0.264 C 
ATOM     34  C   UNL     1      36.166 -23.445 -12.429  0.00  0.00    +0.104 C 
ATOM     35  C   UNL     1      35.949 -24.314 -11.392  0.00  0.00    +0.217 C 
ENDBRANCH  30  33
ENDBRANCH  29  30
ENDBRANCH  26  29
ENDBRANCH   4  25
TORSDOF 9
ENDMDL
MODEL 7
REMARK VINA RESULT:     -10.5      3.782     11.387
REMARK  Name = 213049
REMARK  9 active torsions:
REMARK  status: ('A' for Active; 'I' for Inactive)
REMARK    1  A    between atoms: C_3  and  C_13
REMARK    2  A    between atoms: C_4  and  N_25
REMARK    3  A    between atoms: C_16  and  C_17
REMARK    4  A    between atoms: C_17  and  O_18
REMARK    5  A    between atoms: C_17  and  C_20
REMARK    6  A    between atoms: C_20  and  O_21
REMARK    7  A    between atoms: C_26  and  C_29
REMARK    8  A    between atoms: C_29  and  O_30
REMARK    9  A    between atoms: O_30  and  C_33
REMARK                            x       y       z     vdW  Elec       q    Type
REMARK                         _______ _______ _______ _____ _____    ______ ____
ROOT
ATOM      1  F   UNL     1      34.150 -17.354 -24.214  0.00  0.00    -0.204 F 
ATOM      2  F   UNL     1      34.314 -15.690 -19.763  0.00  0.00    -0.204 F 
ATOM      3  C   UNL     1      34.241 -16.560 -21.974  0.00  0.00    +0.051 C 
ATOM      4  C   UNL     1      33.718 -13.987 -22.918  0.00  0.00    +0.062 C 
ATOM      5  C   UNL     1      34.068 -16.339 -23.341  0.00  0.00    +0.143 C 
ATOM      6  C   UNL     1      34.152 -15.494 -21.079  0.00  0.00    +0.143 C 
ATOM      7  C   UNL     1      33.807 -15.053 -23.813  0.00  0.00    +0.045 C 
ATOM      8  C   UNL     1      33.891 -14.208 -21.550  0.00  0.00    +0.045 C 
ENDROOT
BRANCH   3  13
ATOM      9  O   UNL     1      36.663 -21.613 -19.030  0.00  0.00    -0.272 OA
ATOM     10  N   UNL     1      35.127 -20.466 -20.350  0.00  0.00    -0.273 N 
ATOM     11  C   UNL     1      35.946 -18.286 -21.141  0.00  0.00    +0.048 C 
ATOM     12  C   UNL     1      36.161 -19.797 -21.138  0.00  0.00    +0.098 C 
ATOM     13  C   UNL     1      34.518 -17.927 -21.473  0.00  0.00    -0.019 C 
ATOM     14  C   UNL     1      33.739 -20.217 -20.761  0.00  0.00    +0.120 C 
ATOM     15  C   UNL     1      33.535 -18.829 -21.297  0.00  0.00    -0.009 C 
ATOM     16  C   UNL     1      35.499 -21.399 -19.378  0.00  0.00    +0.255 C 
BRANCH  16  17
ATOM     17  C   UNL     1      34.378 -22.173 -18.729  0.00  0.00    +0.217 C 
BRANCH  17  18
ATOM     18  O   UNL     1      34.211 -23.332 -19.519  0.00  0.00    -0.374 OA
ATOM     19  H   UNL     1      33.492 -23.872 -19.156  0.00  0.00    +0.211 HD
ENDBRANCH  17  18
BRANCH  17  20
ATOM     20  C   UNL     1      34.754 -22.574 -17.320  0.00  0.00    +0.176 C 
BRANCH  20  21
ATOM     21  O   UNL     1      34.303 -23.897 -17.062  0.00  0.00    -0.379 OA
ATOM     22  H   UNL     1      34.515 -24.464 -17.820  0.00  0.00    +0.211 HD
ENDBRANCH  20  21
ENDBRANCH  17  20
ENDBRANCH  16  17
ENDBRANCH   3  13
BRANCH   4  25
ATOM     23  O   UNL     1      32.579 -10.607 -23.648  0.00  0.00    -0.432 OA
ATOM     24  O   UNL     1      31.749 -11.875 -21.961  0.00  0.00    -0.226 OA
ATOM     25  N   UNL     1      33.450 -12.674 -23.399  0.00  0.00    -0.221 N 
ATOM     26  C   UNL     1      33.710 -10.671 -24.528  0.00  0.00    +0.234 C 
ATOM     27  C   UNL     1      34.052 -12.143 -24.592  0.00  0.00    +0.149 C 
ATOM     28  C   UNL     1      32.530 -11.758 -22.894  0.00  0.00    +0.409 C 
BRANCH  26  29
ATOM     29  C   UNL     1      34.831  -9.819 -23.949  0.00  0.00    +0.252 C 
BRANCH  29  30
ATOM     30  O   UNL     1      34.700  -8.498 -24.446  0.00  0.00    -0.454 OA
BRANCH  30  33
ATOM     31  O   UNL     1      32.904  -6.780 -22.032  0.00  0.00    -0.347 OA
ATOM     32  N   UNL     1      33.844  -7.726 -22.423  0.00  0.00    -0.039 NA
ATOM     33  C   UNL     1      33.857  -7.669 -23.758  0.00  0.00    +0.264 C 
ATOM     34  C   UNL     1      32.955  -6.715 -24.261  0.00  0.00    +0.104 C 
ATOM     35  C   UNL     1      32.381  -6.185 -23.135  0.00  0.00    +0.217 C 
ENDBRANCH  30  33
ENDBRANCH  29  30
ENDBRANCH  26  29
ENDBRANCH   4  25
TORSDOF 9
ENDMDL
MODEL 8
REMARK VINA RESULT:     -10.5      2.211      4.107
REMARK  Name = 213049
REMARK  9 active torsions:
REMARK  status: ('A' for Active; 'I' for Inactive)
REMARK    1  A    between atoms: C_3  and  C_13
REMARK    2  A    between atoms: C_4  and  N_25
REMARK    3  A    between atoms: C_16  and  C_17
REMARK    4  A    between atoms: C_17  and  O_18
REMARK    5  A    between atoms: C_17  and  C_20
REMARK    6  A    between atoms: C_20  and  O_21
REMARK    7  A    between atoms: C_26  and  C_29
REMARK    8  A    between atoms: C_29  and  O_30
REMARK    9  A    between atoms: O_30  and  C_33
REMARK                            x       y       z     vdW  Elec       q    Type
REMARK                         _______ _______ _______ _____ _____    ______ ____
ROOT
ATOM      1  F   UNL     1      36.736 -19.675 -21.049  0.00  0.00    -0.204 F 
ATOM      2  F   UNL     1      32.000 -19.251 -21.051  0.00  0.00    -0.204 F 
ATOM      3  C   UNL     1      34.370 -19.433 -21.079  0.00  0.00    +0.051 C 
ATOM      4  C   UNL     1      34.186 -21.496 -19.210  0.00  0.00    +0.062 C 
ATOM      5  C   UNL     1      35.527 -20.057 -20.611  0.00  0.00    +0.143 C 
ATOM      6  C   UNL     1      33.121 -19.842 -20.612  0.00  0.00    +0.143 C 
ATOM      7  C   UNL     1      35.435 -21.088 -19.676  0.00  0.00    +0.045 C 
ATOM      8  C   UNL     1      33.028 -20.873 -19.678  0.00  0.00    +0.045 C 
ENDROOT
BRANCH   3  13
ATOM      9  O   UNL     1      33.760 -15.744 -26.185  0.00  0.00    -0.272 OA
ATOM     10  N   UNL     1      34.476 -16.286 -24.039  0.00  0.00    -0.273 N 
ATOM     11  C   UNL     1      34.336 -18.689 -23.533  0.00  0.00    +0.048 C 
ATOM     12  C   UNL     1      34.946 -17.614 -24.428  0.00  0.00    +0.098 C 
ATOM     13  C   UNL     1      34.468 -18.338 -22.072  0.00  0.00    -0.019 C 
ATOM     14  C   UNL     1      34.726 -15.895 -22.645  0.00  0.00    +0.120 C 
ATOM     15  C   UNL     1      34.653 -17.058 -21.697  0.00  0.00    -0.009 C 
ATOM     16  C   UNL     1      33.971 -15.422 -25.014  0.00  0.00    +0.255 C 
BRANCH  16  17
ATOM     17  C   UNL     1      33.669 -14.012 -24.568  0.00  0.00    +0.217 C 
BRANCH  17  18
ATOM     18  O   UNL     1      33.480 -13.272 -25.757  0.00  0.00    -0.374 OA
ATOM     19  H   UNL     1      33.508 -13.870 -26.519  0.00  0.00    +0.211 HD
ENDBRANCH  17  18
BRANCH  17  20
ATOM     20  C   UNL     1      32.400 -13.974 -23.745  0.00  0.00    +0.176 C 
BRANCH  20  21
ATOM     21  O   UNL     1      32.543 -13.035 -22.689  0.00  0.00    -0.379 OA
ATOM     22  H   UNL     1      32.703 -12.154 -23.059  0.00  0.00    +0.211 HD
ENDBRANCH  20  21
ENDBRANCH  17  20
ENDBRANCH  16  17
ENDBRANCH   3  13
BRANCH   4  25
ATOM     23  O   UNL     1      33.894 -24.588 -17.308  0.00  0.00    -0.432 OA
ATOM     24  O   UNL     1      33.861 -24.499 -19.575  0.00  0.00    -0.226 OA
ATOM     25  N   UNL     1      34.091 -22.548 -18.255  0.00  0.00    -0.221 N 
ATOM     26  C   UNL     1      34.229 -23.686 -16.244  0.00  0.00    +0.234 C 
ATOM     27  C   UNL     1      34.018 -22.311 -16.838  0.00  0.00    +0.149 C 
ATOM     28  C   UNL     1      33.952 -23.911 -18.507  0.00  0.00    +0.409 C 
BRANCH  26  29
ATOM     29  C   UNL     1      35.668 -23.942 -15.819  0.00  0.00    +0.252 C 
BRANCH  29  30
ATOM     30  O   UNL     1      35.807 -25.313 -15.489  0.00  0.00    -0.454 OA
BRANCH  30  33
ATOM     31  O   UNL     1      38.707 -27.017 -14.660  0.00  0.00    -0.347 OA
ATOM     32  N   UNL     1      37.466 -26.933 -15.280  0.00  0.00    -0.039 NA
ATOM     33  C   UNL     1      37.026 -25.702 -15.005  0.00  0.00    +0.264 C 
ATOM     34  C   UNL     1      37.937 -24.970 -14.224  0.00  0.00    +0.104 C 
ATOM     35  C   UNL     1      38.977 -25.842 -14.034  0.00  0.00    +0.217 C 
ENDBRANCH  30  33
ENDBRANCH  29  30
ENDBRANCH  26  29
ENDBRANCH   4  25
TORSDOF 9
ENDMDL
MODEL 9
REMARK VINA RESULT:     -10.4      2.626     10.242
REMARK  Name = 213049
REMARK  9 active torsions:
REMARK  status: ('A' for Active; 'I' for Inactive)
REMARK    1  A    between atoms: C_3  and  C_13
REMARK    2  A    between atoms: C_4  and  N_25
REMARK    3  A    between atoms: C_16  and  C_17
REMARK    4  A    between atoms: C_17  and  O_18
REMARK    5  A    between atoms: C_17  and  C_20
REMARK    6  A    between atoms: C_20  and  O_21
REMARK    7  A    between atoms: C_26  and  C_29
REMARK    8  A    between atoms: C_29  and  O_30
REMARK    9  A    between atoms: O_30  and  C_33
REMARK                            x       y       z     vdW  Elec       q    Type
REMARK                         _______ _______ _______ _____ _____    ______ ____
ROOT
ATOM      1  F   UNL     1      37.621 -20.891 -19.819  0.00  0.00    -0.204 F 
ATOM      2  F   UNL     1      32.879 -20.768 -19.484  0.00  0.00    -0.204 F 
ATOM      3  C   UNL     1      35.251 -20.853 -19.617  0.00  0.00    +0.051 C 
ATOM      4  C   UNL     1      35.137 -19.188 -21.853  0.00  0.00    +0.062 C 
ATOM      5  C   UNL     1      36.427 -20.468 -20.262  0.00  0.00    +0.143 C 
ATOM      6  C   UNL     1      34.018 -20.406 -20.091  0.00  0.00    +0.143 C 
ATOM      7  C   UNL     1      36.370 -19.636 -21.380  0.00  0.00    +0.045 C 
ATOM      8  C   UNL     1      33.961 -19.573 -21.208  0.00  0.00    +0.045 C 
ENDROOT
BRANCH   3  13
ATOM      9  O   UNL     1      34.703 -25.680 -15.560  0.00  0.00    -0.272 OA
ATOM     10  N   UNL     1      35.428 -23.588 -16.275  0.00  0.00    -0.273 N 
ATOM     11  C   UNL     1      34.201 -22.738 -18.230  0.00  0.00    +0.048 C 
ATOM     12  C   UNL     1      34.111 -23.199 -16.778  0.00  0.00    +0.098 C 
ATOM     13  C   UNL     1      35.313 -21.737 -18.430  0.00  0.00    -0.019 C 
ATOM     14  C   UNL     1      36.477 -22.562 -16.349  0.00  0.00    +0.120 C 
ATOM     15  C   UNL     1      36.333 -21.675 -17.553  0.00  0.00    -0.009 C 
ATOM     16  C   UNL     1      35.580 -24.816 -15.627  0.00  0.00    +0.255 C 
BRANCH  16  17
ATOM     17  C   UNL     1      36.922 -25.072 -14.984  0.00  0.00    +0.217 C 
BRANCH  17  18
ATOM     18  O   UNL     1      36.809 -24.576 -13.665  0.00  0.00    -0.374 OA
ATOM     19  H   UNL     1      37.207 -25.208 -13.046  0.00  0.00    +0.211 HD
ENDBRANCH  17  18
BRANCH  17  20
ATOM     20  C   UNL     1      37.218 -26.555 -14.941  0.00  0.00    +0.176 C 
BRANCH  20  21
ATOM     21  O   UNL     1      36.892 -27.144 -16.192  0.00  0.00    -0.379 OA
ATOM     22  H   UNL     1      37.692 -27.520 -16.590  0.00  0.00    +0.211 HD
ENDBRANCH  20  21
ENDBRANCH  17  20
ENDBRANCH  16  17
ENDBRANCH   3  13
BRANCH   4  25
ATOM     23  O   UNL     1      34.828 -17.584 -25.107  0.00  0.00    -0.432 OA
ATOM     24  O   UNL     1      34.506 -19.803 -24.765  0.00  0.00    -0.226 OA
ATOM     25  N   UNL     1      35.078 -18.340 -22.995  0.00  0.00    -0.221 N 
ATOM     26  C   UNL     1      34.952 -16.419 -24.280  0.00  0.00    +0.234 C 
ATOM     27  C   UNL     1      35.453 -16.952 -22.955  0.00  0.00    +0.149 C 
ATOM     28  C   UNL     1      34.770 -18.702 -24.304  0.00  0.00    +0.409 C 
BRANCH  26  29
ATOM     29  C   UNL     1      33.593 -15.741 -24.178  0.00  0.00    +0.252 C 
BRANCH  29  30
ATOM     30  O   UNL     1      33.448 -15.208 -22.873  0.00  0.00    -0.454 OA
BRANCH  30  33
ATOM     31  O   UNL     1      32.916 -11.816 -23.333  0.00  0.00    -0.347 OA
ATOM     32  N   UNL     1      33.507 -13.025 -23.679  0.00  0.00    -0.039 NA
ATOM     33  C   UNL     1      33.040 -13.905 -22.789  0.00  0.00    +0.264 C 
ATOM     34  C   UNL     1      32.158 -13.316 -21.867  0.00  0.00    +0.104 C 
ATOM     35  C   UNL     1      32.115 -12.002 -22.252  0.00  0.00    +0.217 C 
ENDBRANCH  30  33
ENDBRANCH  29  30
ENDBRANCH  26  29
ENDBRANCH   4  25
TORSDOF 9
ENDMDL
