MODEL 1
REMARK VINA RESULT:      -6.4      0.000      0.000
REMARK  Name = 448400
REMARK  9 active torsions:
REMARK  status: ('A' for Active; 'I' for Inactive)
REMARK    1  A    between atoms: P_1  and  O_3
REMARK    2  A    between atoms: P_1  and  O_5
REMARK    3  A    between atoms: P_1  and  O_11
REMARK    4  A    between atoms: O_5  and  C_6
REMARK    5  A    between atoms: C_6  and  C_7
REMARK    6  A    between atoms: C_7  and  C_8
REMARK    7  A    between atoms: O_11  and  P_12
REMARK    8  A    between atoms: P_12  and  O_14
REMARK    9  A    between atoms: P_12  and  O_16
REMARK                            x       y       z     vdW  Elec       q    Type
REMARK                         _______ _______ _______ _____ _____    ______ ____
ROOT
ATOM      1  P   UNL     1      37.601 -25.077 -12.558  0.00  0.00    +0.484 P 
ATOM      2  O   UNL     1      37.624 -24.407 -11.214  0.00  0.00    -0.227 OA
ENDROOT
BRANCH   1   3
ATOM      3  O   UNL     1      36.822 -26.495 -12.583  0.00  0.00    -0.302 OA
ATOM      4  H   UNL     1      36.501 -26.671 -13.481  0.00  0.00    +0.222 HD
ENDBRANCH   1   3
BRANCH   1   5
ATOM      5  O   UNL     1      36.903 -24.210 -13.730  0.00  0.00    -0.273 OA
BRANCH   5   6
ATOM      6  C   UNL     1      35.512 -23.925 -13.665  0.00  0.00    +0.154 C 
BRANCH   6   7
ATOM      7  C   UNL     1      34.888 -24.229 -15.022  0.00  0.00    +0.033 C 
BRANCH   7   8
ATOM      8  C   UNL     1      33.863 -23.179 -15.481  0.00  0.00    +0.003 C 
ATOM      9  C   UNL     1      33.607 -23.326 -16.984  0.00  0.00    +0.000 C 
ATOM     10  C   UNL     1      32.542 -23.281 -14.720  0.00  0.00    +0.000 C 
ENDBRANCH   7   8
ENDBRANCH   6   7
ENDBRANCH   5   6
ENDBRANCH   1   5
BRANCH   1  11
ATOM     11  O   UNL     1      39.064 -25.448 -13.138  0.00  0.00    -0.186 OA
BRANCH  11  12
ATOM     12  P   UNL     1      39.561 -25.749 -14.647  0.00  0.00    +0.481 P 
ATOM     13  O   UNL     1      40.862 -26.489 -14.741  0.00  0.00    -0.227 OA
BRANCH  12  14
ATOM     14  O   UNL     1      39.546 -24.288 -15.337  0.00  0.00    -0.302 OA
ATOM     15  H   UNL     1      40.441 -23.916 -15.326  0.00  0.00    +0.222 HD
ENDBRANCH  12  14
BRANCH  12  16
ATOM     16  O   UNL     1      38.292 -26.495 -15.315  0.00  0.00    -0.302 OA
ATOM     17  H   UNL     1      38.033 -27.250 -14.764  0.00  0.00    +0.222 HD
ENDBRANCH  12  16
ENDBRANCH  11  12
ENDBRANCH   1  11
TORSDOF 9
ENDMDL
MODEL 2
REMARK VINA RESULT:      -6.3      1.453      2.132
REMARK  Name = 448400
REMARK  9 active torsions:
REMARK  status: ('A' for Active; 'I' for Inactive)
REMARK    1  A    between atoms: P_1  and  O_3
REMARK    2  A    between atoms: P_1  and  O_5
REMARK    3  A    between atoms: P_1  and  O_11
REMARK    4  A    between atoms: O_5  and  C_6
REMARK    5  A    between atoms: C_6  and  C_7
REMARK    6  A    between atoms: C_7  and  C_8
REMARK    7  A    between atoms: O_11  and  P_12
REMARK    8  A    between atoms: P_12  and  O_14
REMARK    9  A    between atoms: P_12  and  O_16
REMARK                            x       y       z     vdW  Elec       q    Type
REMARK                         _______ _______ _______ _____ _____    ______ ____
ROOT
ATOM      1  P   UNL     1      37.182 -26.124 -14.396  0.00  0.00    +0.484 P 
ATOM      2  O   UNL     1      36.737 -25.778 -13.004  0.00  0.00    -0.227 OA
ENDROOT
BRANCH   1   3
ATOM      3  O   UNL     1      36.324 -27.304 -15.096  0.00  0.00    -0.302 OA
ATOM      4  H   UNL     1      36.693 -28.164 -14.844  0.00  0.00    +0.222 HD
ENDBRANCH   1   3
BRANCH   1   5
ATOM      5  O   UNL     1      37.117 -24.898 -15.447  0.00  0.00    -0.273 OA
BRANCH   5   6
ATOM      6  C   UNL     1      36.891 -23.575 -14.977  0.00  0.00    +0.154 C 
BRANCH   6   7
ATOM      7  C   UNL     1      35.843 -22.914 -15.865  0.00  0.00    +0.033 C 
BRANCH   7   8
ATOM      8  C   UNL     1      34.531 -23.708 -15.970  0.00  0.00    +0.003 C 
ATOM      9  C   UNL     1      33.759 -23.613 -14.650  0.00  0.00    +0.000 C 
ATOM     10  C   UNL     1      33.648 -23.224 -17.120  0.00  0.00    +0.000 C 
ENDBRANCH   7   8
ENDBRANCH   6   7
ENDBRANCH   5   6
ENDBRANCH   1   5
BRANCH   1  11
ATOM     11  O   UNL     1      38.702 -26.665 -14.491  0.00  0.00    -0.186 OA
BRANCH  11  12
ATOM     12  P   UNL     1      40.107 -25.870 -14.578  0.00  0.00    +0.481 P 
ATOM     13  O   UNL     1      40.169 -24.617 -13.756  0.00  0.00    -0.227 OA
BRANCH  12  14
ATOM     14  O   UNL     1      40.314 -25.664 -16.167  0.00  0.00    -0.302 OA
ATOM     15  H   UNL     1      41.250 -25.500 -16.353  0.00  0.00    +0.222 HD
ENDBRANCH  12  14
BRANCH  12  16
ATOM     16  O   UNL     1      41.198 -27.000 -14.198  0.00  0.00    -0.302 OA
ATOM     17  H   UNL     1      42.091 -26.647 -14.335  0.00  0.00    +0.222 HD
ENDBRANCH  12  16
ENDBRANCH  11  12
ENDBRANCH   1  11
TORSDOF 9
ENDMDL
MODEL 3
REMARK VINA RESULT:      -6.3      1.705      3.767
REMARK  Name = 448400
REMARK  9 active torsions:
REMARK  status: ('A' for Active; 'I' for Inactive)
REMARK    1  A    between atoms: P_1  and  O_3
REMARK    2  A    between atoms: P_1  and  O_5
REMARK    3  A    between atoms: P_1  and  O_11
REMARK    4  A    between atoms: O_5  and  C_6
REMARK    5  A    between atoms: C_6  and  C_7
REMARK    6  A    between atoms: C_7  and  C_8
REMARK    7  A    between atoms: O_11  and  P_12
REMARK    8  A    between atoms: P_12  and  O_14
REMARK    9  A    between atoms: P_12  and  O_16
REMARK                            x       y       z     vdW  Elec       q    Type
REMARK                         _______ _______ _______ _____ _____    ______ ____
ROOT
ATOM      1  P   UNL     1      37.173 -25.542 -13.457  0.00  0.00    +0.484 P 
ATOM      2  O   UNL     1      37.648 -26.917 -13.827  0.00  0.00    -0.227 OA
ENDROOT
BRANCH   1   3
ATOM      3  O   UNL     1      38.348 -24.433 -13.362  0.00  0.00    -0.302 OA
ATOM      4  H   UNL     1      39.205 -24.878 -13.270  0.00  0.00    +0.222 HD
ENDBRANCH   1   3
BRANCH   1   5
ATOM      5  O   UNL     1      36.096 -24.904 -14.479  0.00  0.00    -0.273 OA
BRANCH   5   6
ATOM      6  C   UNL     1      36.453 -23.778 -15.271  0.00  0.00    +0.154 C 
BRANCH   6   7
ATOM      7  C   UNL     1      35.239 -22.865 -15.396  0.00  0.00    +0.033 C 
BRANCH   7   8
ATOM      8  C   UNL     1      33.971 -23.584 -15.886  0.00  0.00    +0.003 C 
ATOM      9  C   UNL     1      32.806 -23.284 -14.940  0.00  0.00    +0.000 C 
ATOM     10  C   UNL     1      33.593 -23.189 -17.313  0.00  0.00    +0.000 C 
ENDBRANCH   7   8
ENDBRANCH   6   7
ENDBRANCH   5   6
ENDBRANCH   1   5
BRANCH   1  11
ATOM     11  O   UNL     1      36.464 -25.454 -12.007  0.00  0.00    -0.186 OA
BRANCH  11  12
ATOM     12  P   UNL     1      35.994 -24.178 -11.132  0.00  0.00    +0.481 P 
ATOM     13  O   UNL     1      37.081 -23.186 -10.837  0.00  0.00    -0.227 OA
BRANCH  12  14
ATOM     14  O   UNL     1      35.309 -24.856  -9.835  0.00  0.00    -0.302 OA
ATOM     15  H   UNL     1      34.359 -24.664  -9.833  0.00  0.00    +0.222 HD
ENDBRANCH  12  14
BRANCH  12  16
ATOM     16  O   UNL     1      34.737 -23.598 -11.964  0.00  0.00    -0.302 OA
ATOM     17  H   UNL     1      33.941 -23.630 -11.412  0.00  0.00    +0.222 HD
ENDBRANCH  12  16
ENDBRANCH  11  12
ENDBRANCH   1  11
TORSDOF 9
ENDMDL
MODEL 4
REMARK VINA RESULT:      -6.3      2.751      3.938
REMARK  Name = 448400
REMARK  9 active torsions:
REMARK  status: ('A' for Active; 'I' for Inactive)
REMARK    1  A    between atoms: P_1  and  O_3
REMARK    2  A    between atoms: P_1  and  O_5
REMARK    3  A    between atoms: P_1  and  O_11
REMARK    4  A    between atoms: O_5  and  C_6
REMARK    5  A    between atoms: C_6  and  C_7
REMARK    6  A    between atoms: C_7  and  C_8
REMARK    7  A    between atoms: O_11  and  P_12
REMARK    8  A    between atoms: P_12  and  O_14
REMARK    9  A    between atoms: P_12  and  O_16
REMARK                            x       y       z     vdW  Elec       q    Type
REMARK                         _______ _______ _______ _____ _____    ______ ____
ROOT
ATOM      1  P   UNL     1      36.727 -23.557 -14.853  0.00  0.00    +0.484 P 
ATOM      2  O   UNL     1      37.845 -23.526 -13.851  0.00  0.00    -0.227 OA
ENDROOT
BRANCH   1   3
ATOM      3  O   UNL     1      35.361 -22.851 -14.350  0.00  0.00    -0.302 OA
ATOM      4  H   UNL     1      35.576 -22.039 -13.867  0.00  0.00    +0.222 HD
ENDBRANCH   1   3
BRANCH   1   5
ATOM      5  O   UNL     1      37.063 -22.834 -16.259  0.00  0.00    -0.273 OA
BRANCH   5   6
ATOM      6  C   UNL     1      36.004 -22.367 -17.085  0.00  0.00    +0.154 C 
BRANCH   6   7
ATOM      7  C   UNL     1      36.602 -21.608 -18.263  0.00  0.00    +0.033 C 
BRANCH   7   8
ATOM      8  C   UNL     1      35.747 -21.671 -19.539  0.00  0.00    +0.003 C 
ATOM      9  C   UNL     1      34.287 -21.949 -19.171  0.00  0.00    +0.000 C 
ATOM     10  C   UNL     1      35.836 -20.387 -20.363  0.00  0.00    +0.000 C 
ENDBRANCH   7   8
ENDBRANCH   6   7
ENDBRANCH   5   6
ENDBRANCH   1   5
BRANCH   1  11
ATOM     11  O   UNL     1      36.246 -25.045 -15.263  0.00  0.00    -0.186 OA
BRANCH  11  12
ATOM     12  P   UNL     1      37.020 -26.463 -15.204  0.00  0.00    +0.481 P 
ATOM     13  O   UNL     1      36.607 -27.446 -16.260  0.00  0.00    -0.227 OA
BRANCH  12  14
ATOM     14  O   UNL     1      36.784 -26.947 -13.681  0.00  0.00    -0.302 OA
ATOM     15  H   UNL     1      36.319 -26.253 -13.189  0.00  0.00    +0.222 HD
ENDBRANCH  12  14
BRANCH  12  16
ATOM     16  O   UNL     1      38.579 -26.038 -15.228  0.00  0.00    -0.302 OA
ATOM     17  H   UNL     1      39.032 -26.507 -15.946  0.00  0.00    +0.222 HD
ENDBRANCH  12  16
ENDBRANCH  11  12
ENDBRANCH   1  11
TORSDOF 9
ENDMDL
MODEL 5
REMARK VINA RESULT:      -6.2      1.877      2.327
REMARK  Name = 448400
REMARK  9 active torsions:
REMARK  status: ('A' for Active; 'I' for Inactive)
REMARK    1  A    between atoms: P_1  and  O_3
REMARK    2  A    between atoms: P_1  and  O_5
REMARK    3  A    between atoms: P_1  and  O_11
REMARK    4  A    between atoms: O_5  and  C_6
REMARK    5  A    between atoms: C_6  and  C_7
REMARK    6  A    between atoms: C_7  and  C_8
REMARK    7  A    between atoms: O_11  and  P_12
REMARK    8  A    between atoms: P_12  and  O_14
REMARK    9  A    between atoms: P_12  and  O_16
REMARK                            x       y       z     vdW  Elec       q    Type
REMARK                         _______ _______ _______ _____ _____    ______ ____
ROOT
ATOM      1  P   UNL     1      35.855 -24.365 -12.754  0.00  0.00    +0.484 P 
ATOM      2  O   UNL     1      36.612 -23.171 -12.245  0.00  0.00    -0.227 OA
ENDROOT
BRANCH   1   3
ATOM      3  O   UNL     1      34.841 -25.020 -11.677  0.00  0.00    -0.302 OA
ATOM      4  H   UNL     1      33.974 -25.155 -12.090  0.00  0.00    +0.222 HD
ENDBRANCH   1   3
BRANCH   1   5
ATOM      5  O   UNL     1      34.937 -24.076 -14.052  0.00  0.00    -0.273 OA
BRANCH   5   6
ATOM      6  C   UNL     1      33.524 -24.204 -13.961  0.00  0.00    +0.154 C 
BRANCH   6   7
ATOM      7  C   UNL     1      32.890 -23.450 -15.124  0.00  0.00    +0.033 C 
BRANCH   7   8
ATOM      8  C   UNL     1      31.475 -22.928 -14.826  0.00  0.00    +0.003 C 
ATOM      9  C   UNL     1      30.618 -22.998 -16.092  0.00  0.00    +0.000 C 
ATOM     10  C   UNL     1      30.795 -23.703 -13.698  0.00  0.00    +0.000 C 
ENDBRANCH   7   8
ENDBRANCH   6   7
ENDBRANCH   5   6
ENDBRANCH   1   5
BRANCH   1  11
ATOM     11  O   UNL     1      36.793 -25.610 -13.184  0.00  0.00    -0.186 OA
BRANCH  11  12
ATOM     12  P   UNL     1      37.205 -26.173 -14.642  0.00  0.00    +0.481 P 
ATOM     13  O   UNL     1      38.400 -27.080 -14.648  0.00  0.00    -0.227 OA
BRANCH  12  14
ATOM     14  O   UNL     1      37.355 -24.828 -15.525  0.00  0.00    -0.302 OA
ATOM     15  H   UNL     1      38.268 -24.506 -15.472  0.00  0.00    +0.222 HD
ENDBRANCH  12  14
BRANCH  12  16
ATOM     16  O   UNL     1      35.835 -26.832 -15.188  0.00  0.00    -0.302 OA
ATOM     17  H   UNL     1      36.021 -27.353 -15.984  0.00  0.00    +0.222 HD
ENDBRANCH  12  16
ENDBRANCH  11  12
ENDBRANCH   1  11
TORSDOF 9
ENDMDL
MODEL 6
REMARK VINA RESULT:      -6.1      2.116      3.003
REMARK  Name = 448400
REMARK  9 active torsions:
REMARK  status: ('A' for Active; 'I' for Inactive)
REMARK    1  A    between atoms: P_1  and  O_3
REMARK    2  A    between atoms: P_1  and  O_5
REMARK    3  A    between atoms: P_1  and  O_11
REMARK    4  A    between atoms: O_5  and  C_6
REMARK    5  A    between atoms: C_6  and  C_7
REMARK    6  A    between atoms: C_7  and  C_8
REMARK    7  A    between atoms: O_11  and  P_12
REMARK    8  A    between atoms: P_12  and  O_14
REMARK    9  A    between atoms: P_12  and  O_16
REMARK                            x       y       z     vdW  Elec       q    Type
REMARK                         _______ _______ _______ _____ _____    ______ ____
ROOT
ATOM      1  P   UNL     1      35.543 -24.803 -14.731  0.00  0.00    +0.484 P 
ATOM      2  O   UNL     1      34.365 -24.359 -13.912  0.00  0.00    -0.227 OA
ENDROOT
BRANCH   1   3
ATOM      3  O   UNL     1      35.567 -26.386 -15.061  0.00  0.00    -0.302 OA
ATOM      4  H   UNL     1      36.196 -26.557 -15.778  0.00  0.00    +0.222 HD
ENDBRANCH   1   3
BRANCH   1   5
ATOM      5  O   UNL     1      35.668 -24.086 -16.173  0.00  0.00    -0.273 OA
BRANCH   5   6
ATOM      6  C   UNL     1      35.033 -22.833 -16.398  0.00  0.00    +0.154 C 
BRANCH   6   7
ATOM      7  C   UNL     1      33.995 -23.002 -17.500  0.00  0.00    +0.033 C 
BRANCH   7   8
ATOM      8  C   UNL     1      34.437 -22.437 -18.860  0.00  0.00    +0.003 C 
ATOM      9  C   UNL     1      33.390 -21.446 -19.376  0.00  0.00    +0.000 C 
ATOM     10  C   UNL     1      35.802 -21.754 -18.789  0.00  0.00    +0.000 C 
ENDBRANCH   7   8
ENDBRANCH   6   7
ENDBRANCH   5   6
ENDBRANCH   1   5
BRANCH   1  11
ATOM     11  O   UNL     1      36.974 -24.550 -14.023  0.00  0.00    -0.186 OA
BRANCH  11  12
ATOM     12  P   UNL     1      38.480 -24.810 -14.553  0.00  0.00    +0.481 P 
ATOM     13  O   UNL     1      39.532 -24.791 -13.483  0.00  0.00    -0.227 OA
BRANCH  12  14
ATOM     14  O   UNL     1      38.656 -23.699 -15.713  0.00  0.00    -0.302 OA
ATOM     15  H   UNL     1      39.599 -23.540 -15.869  0.00  0.00    +0.222 HD
ENDBRANCH  12  14
BRANCH  12  16
ATOM     16  O   UNL     1      38.352 -26.196 -15.373  0.00  0.00    -0.302 OA
ATOM     17  H   UNL     1      39.026 -26.222 -16.070  0.00  0.00    +0.222 HD
ENDBRANCH  12  16
ENDBRANCH  11  12
ENDBRANCH   1  11
TORSDOF 9
ENDMDL
MODEL 7
REMARK VINA RESULT:      -6.0      2.255      3.751
REMARK  Name = 448400
REMARK  9 active torsions:
REMARK  status: ('A' for Active; 'I' for Inactive)
REMARK    1  A    between atoms: P_1  and  O_3
REMARK    2  A    between atoms: P_1  and  O_5
REMARK    3  A    between atoms: P_1  and  O_11
REMARK    4  A    between atoms: O_5  and  C_6
REMARK    5  A    between atoms: C_6  and  C_7
REMARK    6  A    between atoms: C_7  and  C_8
REMARK    7  A    between atoms: O_11  and  P_12
REMARK    8  A    between atoms: P_12  and  O_14
REMARK    9  A    between atoms: P_12  and  O_16
REMARK                            x       y       z     vdW  Elec       q    Type
REMARK                         _______ _______ _______ _____ _____    ______ ____
ROOT
ATOM      1  P   UNL     1      35.894 -24.933 -14.993  0.00  0.00    +0.484 P 
ATOM      2  O   UNL     1      36.028 -26.356 -15.456  0.00  0.00    -0.227 OA
ENDROOT
BRANCH   1   3
ATOM      3  O   UNL     1      36.416 -23.834 -16.061  0.00  0.00    -0.302 OA
ATOM      4  H   UNL     1      36.914 -23.144 -15.596  0.00  0.00    +0.222 HD
ENDBRANCH   1   3
BRANCH   1   5
ATOM      5  O   UNL     1      34.384 -24.477 -14.647  0.00  0.00    -0.273 OA
BRANCH   5   6
ATOM      6  C   UNL     1      33.891 -23.235 -15.133  0.00  0.00    +0.154 C 
BRANCH   6   7
ATOM      7  C   UNL     1      32.562 -23.479 -15.838  0.00  0.00    +0.033 C 
BRANCH   7   8
ATOM      8  C   UNL     1      31.348 -22.913 -15.084  0.00  0.00    +0.003 C 
ATOM      9  C   UNL     1      30.115 -22.936 -15.992  0.00  0.00    +0.000 C 
ATOM     10  C   UNL     1      31.054 -23.679 -13.795  0.00  0.00    +0.000 C 
ENDBRANCH   7   8
ENDBRANCH   6   7
ENDBRANCH   5   6
ENDBRANCH   1   5
BRANCH   1  11
ATOM     11  O   UNL     1      36.743 -24.587 -13.662  0.00  0.00    -0.186 OA
BRANCH  11  12
ATOM     12  P   UNL     1      36.506 -25.001 -12.117  0.00  0.00    +0.481 P 
ATOM     13  O   UNL     1      37.268 -24.173 -11.124  0.00  0.00    -0.227 OA
BRANCH  12  14
ATOM     14  O   UNL     1      36.847 -26.580 -12.104  0.00  0.00    -0.302 OA
ATOM     15  H   UNL     1      37.593 -26.755 -12.697  0.00  0.00    +0.222 HD
ENDBRANCH  12  14
BRANCH  12  16
ATOM     16  O   UNL     1      34.899 -24.959 -11.961  0.00  0.00    -0.302 OA
ATOM     17  H   UNL     1      34.628 -25.544 -11.237  0.00  0.00    +0.222 HD
ENDBRANCH  12  16
ENDBRANCH  11  12
ENDBRANCH   1  11
TORSDOF 9
ENDMDL
MODEL 8
REMARK VINA RESULT:      -6.0      1.948      3.056
REMARK  Name = 448400
REMARK  9 active torsions:
REMARK  status: ('A' for Active; 'I' for Inactive)
REMARK    1  A    between atoms: P_1  and  O_3
REMARK    2  A    between atoms: P_1  and  O_5
REMARK    3  A    between atoms: P_1  and  O_11
REMARK    4  A    between atoms: O_5  and  C_6
REMARK    5  A    between atoms: C_6  and  C_7
REMARK    6  A    between atoms: C_7  and  C_8
REMARK    7  A    between atoms: O_11  and  P_12
REMARK    8  A    between atoms: P_12  and  O_14
REMARK    9  A    between atoms: P_12  and  O_16
REMARK                            x       y       z     vdW  Elec       q    Type
REMARK                         _______ _______ _______ _____ _____    ______ ____
ROOT
ATOM      1  P   UNL     1      36.749 -23.494 -15.211  0.00  0.00    +0.484 P 
ATOM      2  O   UNL     1      37.377 -22.315 -15.897  0.00  0.00    -0.227 OA
ENDROOT
BRANCH   1   3
ATOM      3  O   UNL     1      36.359 -23.235 -13.662  0.00  0.00    -0.302 OA
ATOM      4  H   UNL     1      36.945 -22.558 -13.291  0.00  0.00    +0.222 HD
ENDBRANCH   1   3
BRANCH   1   5
ATOM      5  O   UNL     1      35.381 -24.018 -15.892  0.00  0.00    -0.273 OA
BRANCH   5   6
ATOM      6  C   UNL     1      34.154 -23.920 -15.179  0.00  0.00    +0.154 C 
BRANCH   6   7
ATOM      7  C   UNL     1      33.089 -23.361 -16.115  0.00  0.00    +0.033 C 
BRANCH   7   8
ATOM      8  C   UNL     1      31.657 -23.496 -15.574  0.00  0.00    +0.003 C 
ATOM      9  C   UNL     1      31.573 -22.890 -14.170  0.00  0.00    +0.000 C 
ATOM     10  C   UNL     1      30.625 -22.832 -16.485  0.00  0.00    +0.000 C 
ENDBRANCH   7   8
ENDBRANCH   6   7
ENDBRANCH   5   6
ENDBRANCH   1   5
BRANCH   1  11
ATOM     11  O   UNL     1      37.698 -24.801 -15.140  0.00  0.00    -0.186 OA
BRANCH  11  12
ATOM     12  P   UNL     1      37.369 -26.329 -14.724  0.00  0.00    +0.481 P 
ATOM     13  O   UNL     1      38.569 -27.224 -14.629  0.00  0.00    -0.227 OA
BRANCH  12  14
ATOM     14  O   UNL     1      36.260 -26.774 -15.812  0.00  0.00    -0.302 OA
ATOM     15  H   UNL     1      36.033 -27.707 -15.679  0.00  0.00    +0.222 HD
ENDBRANCH  12  14
BRANCH  12  16
ATOM     16  O   UNL     1      36.517 -26.168 -13.360  0.00  0.00    -0.302 OA
ATOM     17  H   UNL     1      36.680 -26.931 -12.785  0.00  0.00    +0.222 HD
ENDBRANCH  12  16
ENDBRANCH  11  12
ENDBRANCH   1  11
TORSDOF 9
ENDMDL
MODEL 9
REMARK VINA RESULT:      -6.0      3.894      5.045
REMARK  Name = 448400
REMARK  9 active torsions:
REMARK  status: ('A' for Active; 'I' for Inactive)
REMARK    1  A    between atoms: P_1  and  O_3
REMARK    2  A    between atoms: P_1  and  O_5
REMARK    3  A    between atoms: P_1  and  O_11
REMARK    4  A    between atoms: O_5  and  C_6
REMARK    5  A    between atoms: C_6  and  C_7
REMARK    6  A    between atoms: C_7  and  C_8
REMARK    7  A    between atoms: O_11  and  P_12
REMARK    8  A    between atoms: P_12  and  O_14
REMARK    9  A    between atoms: P_12  and  O_16
REMARK                            x       y       z     vdW  Elec       q    Type
REMARK                         _______ _______ _______ _____ _____    ______ ____
ROOT
ATOM      1  P   UNL     1      35.691 -24.406 -11.358  0.00  0.00    +0.484 P 
ATOM      2  O   UNL     1      35.472 -24.457  -9.873  0.00  0.00    -0.227 OA
ENDROOT
BRANCH   1   3
ATOM      3  O   UNL     1      36.535 -23.121 -11.864  0.00  0.00    -0.302 OA
ATOM      4  H   UNL     1      36.489 -22.421 -11.195  0.00  0.00    +0.222 HD
ENDBRANCH   1   3
BRANCH   1   5
ATOM      5  O   UNL     1      36.484 -25.676 -11.964  0.00  0.00    -0.273 OA
BRANCH   5   6
ATOM      6  C   UNL     1      37.831 -25.528 -12.397  0.00  0.00    +0.154 C 
BRANCH   6   7
ATOM      7  C   UNL     1      38.024 -26.336 -13.676  0.00  0.00    +0.033 C 
BRANCH   7   8
ATOM      8  C   UNL     1      38.785 -25.579 -14.776  0.00  0.00    +0.003 C 
ATOM      9  C   UNL     1      38.185 -24.182 -14.956  0.00  0.00    +0.000 C 
ATOM     10  C   UNL     1      40.279 -25.465 -14.477  0.00  0.00    +0.000 C 
ENDBRANCH   7   8
ENDBRANCH   6   7
ENDBRANCH   5   6
ENDBRANCH   1   5
BRANCH   1  11
ATOM     11  O   UNL     1      34.330 -24.320 -12.226  0.00  0.00    -0.186 OA
BRANCH  11  12
ATOM     12  P   UNL     1      34.095 -24.125 -13.813  0.00  0.00    +0.481 P 
ATOM     13  O   UNL     1      32.657 -24.000 -14.223  0.00  0.00    -0.227 OA
BRANCH  12  14
ATOM     14  O   UNL     1      34.890 -25.376 -14.458  0.00  0.00    -0.302 OA
ATOM     15  H   UNL     1      35.773 -25.435 -14.065  0.00  0.00    +0.222 HD
ENDBRANCH  12  14
BRANCH  12  16
ATOM     16  O   UNL     1      35.029 -22.857 -14.175  0.00  0.00    -0.302 OA
ATOM     17  H   UNL     1      34.492 -22.050 -14.178  0.00  0.00    +0.222 HD
ENDBRANCH  12  16
ENDBRANCH  11  12
ENDBRANCH   1  11
TORSDOF 9
ENDMDL
