MODEL 1
REMARK VINA RESULT:      -7.5      0.000      0.000
REMARK  Name = 60815
REMARK  9 active torsions:
REMARK  status: ('A' for Active; 'I' for Inactive)
REMARK    1  A    between atoms: N_1  and  C_23
REMARK    2  A    between atoms: C_2  and  N_9
REMARK    3  A    between atoms: C_2  and  C_20
REMARK    4  A    between atoms: N_9  and  C_11
REMARK    5  A    between atoms: C_10  and  C_17
REMARK    6  A    between atoms: C_20  and  O_21
REMARK    7  A    between atoms: C_23  and  C_24
REMARK    8  A    between atoms: C_24  and  C_26
REMARK    9  A    between atoms: C_26  and  O_27
REMARK                            x       y       z     vdW  Elec       q    Type
REMARK                         _______ _______ _______ _____ _____    ______ ____
ROOT
ATOM      1  N   UNL     1      36.004 -21.749 -17.588  0.00  0.00    +0.387 N 
ATOM      2  C   UNL     1      35.467 -23.518 -15.306  0.00  0.00    +0.149 C 
ATOM      3  C   UNL     1      34.417 -23.216 -16.380  0.00  0.00    +0.007 C 
ATOM      4  C   UNL     1      36.535 -22.422 -15.265  0.00  0.00    +0.007 C 
ATOM      5  C   UNL     1      35.051 -22.858 -17.728  0.00  0.00    -0.075 C 
ATOM      6  C   UNL     1      37.085 -22.096 -16.658  0.00  0.00    -0.075 C 
ATOM      7  H   UNL     1      35.502 -20.947 -17.206  0.00  0.00    -0.080 HD
ENDROOT
BRANCH   2   9
ATOM      8  O   UNL     1      36.808 -23.577 -12.687  0.00  0.00    -0.275 OA
ATOM      9  N   UNL     1      34.845 -23.679 -14.012  0.00  0.00    -0.252 N 
ATOM     10  C   UNL     1      35.584 -23.695 -12.792  0.00  0.00    +0.230 C 
BRANCH   9  11
ATOM     11  C   UNL     1      33.394 -23.832 -13.950  0.00  0.00    +0.054 C 
ATOM     12  C   UNL     1      32.568 -22.720 -14.117  0.00  0.00    +0.015 C 
ATOM     13  C   UNL     1      32.835 -25.090 -13.724  0.00  0.00    +0.015 C 
ATOM     14  C   UNL     1      31.182 -22.866 -14.059  0.00  0.00    +0.001 C 
ATOM     15  C   UNL     1      31.449 -25.236 -13.665  0.00  0.00    +0.001 C 
ATOM     16  C   UNL     1      30.623 -24.123 -13.832  0.00  0.00    +0.000 C 
ENDBRANCH   9  11
BRANCH  10  17
ATOM     17  C   UNL     1      34.749 -23.922 -11.535  0.00  0.00    +0.086 C 
ATOM     18  C   UNL     1      35.574 -24.428 -10.361  0.00  0.00    +0.010 C 
ENDBRANCH  10  17
ENDBRANCH   2   9
BRANCH   2  20
ATOM     19  O   UNL     1      35.458 -25.873 -15.835  0.00  0.00    -0.248 OA
ATOM     20  C   UNL     1      36.089 -24.870 -15.525  0.00  0.00    +0.333 C 
BRANCH  20  21
ATOM     21  O   UNL     1      37.435 -24.791 -15.326  0.00  0.00    -0.443 OA
ATOM     22  C   UNL     1      38.052 -25.976 -14.814  0.00  0.00    +0.256 C 
ENDBRANCH  20  21
ENDBRANCH   2  20
BRANCH   1  23
ATOM     23  C   UNL     1      36.552 -21.379 -18.893  0.00  0.00    -0.066 C 
BRANCH  23  24
ATOM     24  C   UNL     1      35.442 -21.327 -19.939  0.00  0.00    +0.087 C 
BRANCH  24  26
ATOM     25  O   UNL     1      36.189 -19.095 -20.552  0.00  0.00    -0.250 OA
ATOM     26  C   UNL     1      35.320 -19.955 -20.562  0.00  0.00    +0.315 C 
BRANCH  26  27
ATOM     27  O   UNL     1      34.086 -19.838 -21.136  0.00  0.00    -0.444 OA
ATOM     28  C   UNL     1      32.990 -20.305 -20.343  0.00  0.00    +0.256 C 
ENDBRANCH  26  27
ENDBRANCH  24  26
ENDBRANCH  23  24
ENDBRANCH   1  23
TORSDOF 9
ENDMDL
MODEL 2
REMARK VINA RESULT:      -7.2      2.977      5.421
REMARK  Name = 60815
REMARK  9 active torsions:
REMARK  status: ('A' for Active; 'I' for Inactive)
REMARK    1  A    between atoms: N_1  and  C_23
REMARK    2  A    between atoms: C_2  and  N_9
REMARK    3  A    between atoms: C_2  and  C_20
REMARK    4  A    between atoms: N_9  and  C_11
REMARK    5  A    between atoms: C_10  and  C_17
REMARK    6  A    between atoms: C_20  and  O_21
REMARK    7  A    between atoms: C_23  and  C_24
REMARK    8  A    between atoms: C_24  and  C_26
REMARK    9  A    between atoms: C_26  and  O_27
REMARK                            x       y       z     vdW  Elec       q    Type
REMARK                         _______ _______ _______ _____ _____    ______ ____
ROOT
ATOM      1  N   UNL     1      31.170 -23.613 -14.518  0.00  0.00    +0.387 N 
ATOM      2  C   UNL     1      34.055 -24.097 -14.788  0.00  0.00    +0.149 C 
ATOM      3  C   UNL     1      33.005 -25.158 -15.131  0.00  0.00    +0.007 C 
ATOM      4  C   UNL     1      33.481 -23.056 -13.823  0.00  0.00    +0.007 C 
ATOM      5  C   UNL     1      31.666 -24.539 -15.544  0.00  0.00    -0.075 C 
ATOM      6  C   UNL     1      32.123 -22.519 -14.289  0.00  0.00    -0.075 C 
ATOM      7  H   UNL     1      31.069 -24.133 -13.645  0.00  0.00    -0.080 HD
ENDROOT
BRANCH   2   9
ATOM      8  O   UNL     1      35.654 -26.262 -15.979  0.00  0.00    -0.275 OA
ATOM      9  N   UNL     1      35.242 -24.708 -14.237  0.00  0.00    -0.252 N 
ATOM     10  C   UNL     1      35.952 -25.757 -14.893  0.00  0.00    +0.230 C 
BRANCH   9  11
ATOM     11  C   UNL     1      35.738 -24.230 -12.949  0.00  0.00    +0.054 C 
ATOM     12  C   UNL     1      35.199 -24.731 -11.764  0.00  0.00    +0.015 C 
ATOM     13  C   UNL     1      36.752 -23.272 -12.905  0.00  0.00    +0.015 C 
ATOM     14  C   UNL     1      35.672 -24.274 -10.534  0.00  0.00    +0.001 C 
ATOM     15  C   UNL     1      37.226 -22.816 -11.675  0.00  0.00    +0.001 C 
ATOM     16  C   UNL     1      36.686 -23.317 -10.490  0.00  0.00    +0.000 C 
ENDBRANCH   9  11
BRANCH  10  17
ATOM     17  C   UNL     1      37.154 -26.302 -14.125  0.00  0.00    +0.086 C 
ATOM     18  C   UNL     1      38.482 -25.926 -14.763  0.00  0.00    +0.010 C 
ENDBRANCH  10  17
ENDBRANCH   2   9
BRANCH   2  20
ATOM     19  O   UNL     1      34.261 -23.763 -17.169  0.00  0.00    -0.248 OA
ATOM     20  C   UNL     1      34.588 -23.443 -16.034  0.00  0.00    +0.333 C 
BRANCH  20  21
ATOM     21  O   UNL     1      35.472 -22.463 -15.692  0.00  0.00    -0.443 OA
ATOM     22  C   UNL     1      36.622 -22.350 -16.535  0.00  0.00    +0.256 C 
ENDBRANCH  20  21
ENDBRANCH   2  20
BRANCH   1  23
ATOM     23  C   UNL     1      29.862 -23.080 -14.899  0.00  0.00    -0.066 C 
BRANCH  23  24
ATOM     24  C   UNL     1      29.795 -22.871 -16.409  0.00  0.00    +0.087 C 
BRANCH  24  26
ATOM     25  O   UNL     1      27.845 -24.000 -17.326  0.00  0.00    -0.250 OA
ATOM     26  C   UNL     1      28.379 -22.974 -16.929  0.00  0.00    +0.315 C 
BRANCH  26  27
ATOM     27  O   UNL     1      27.799 -21.738 -16.879  0.00  0.00    -0.444 OA
ATOM     28  C   UNL     1      26.447 -21.672 -17.344  0.00  0.00    +0.256 C 
ENDBRANCH  26  27
ENDBRANCH  24  26
ENDBRANCH  23  24
ENDBRANCH   1  23
TORSDOF 9
ENDMDL
MODEL 3
REMARK VINA RESULT:      -6.9      2.663      5.719
REMARK  Name = 60815
REMARK  9 active torsions:
REMARK  status: ('A' for Active; 'I' for Inactive)
REMARK    1  A    between atoms: N_1  and  C_23
REMARK    2  A    between atoms: C_2  and  N_9
REMARK    3  A    between atoms: C_2  and  C_20
REMARK    4  A    between atoms: N_9  and  C_11
REMARK    5  A    between atoms: C_10  and  C_17
REMARK    6  A    between atoms: C_20  and  O_21
REMARK    7  A    between atoms: C_23  and  C_24
REMARK    8  A    between atoms: C_24  and  C_26
REMARK    9  A    between atoms: C_26  and  O_27
REMARK                            x       y       z     vdW  Elec       q    Type
REMARK                         _______ _______ _______ _____ _____    ______ ____
ROOT
ATOM      1  N   UNL     1      31.604 -23.987 -14.452  0.00  0.00    +0.387 N 
ATOM      2  C   UNL     1      34.524 -24.110 -14.158  0.00  0.00    +0.149 C 
ATOM      3  C   UNL     1      33.791 -22.832 -14.575  0.00  0.00    +0.007 C 
ATOM      4  C   UNL     1      33.673 -25.348 -14.455  0.00  0.00    +0.007 C 
ATOM      5  C   UNL     1      32.353 -22.789 -14.049  0.00  0.00    -0.075 C 
ATOM      6  C   UNL     1      32.239 -25.205 -13.933  0.00  0.00    -0.075 C 
ATOM      7  H   UNL     1      31.610 -24.036 -15.471  0.00  0.00    -0.080 HD
ENDROOT
BRANCH   2   9
ATOM      8  O   UNL     1      36.627 -26.111 -13.670  0.00  0.00    -0.275 OA
ATOM      9  N   UNL     1      35.809 -24.202 -14.811  0.00  0.00    -0.252 N 
ATOM     10  C   UNL     1      36.767 -25.213 -14.505  0.00  0.00    +0.230 C 
BRANCH   9  11
ATOM     11  C   UNL     1      36.143 -23.212 -15.833  0.00  0.00    +0.054 C 
ATOM     12  C   UNL     1      37.253 -22.385 -15.667  0.00  0.00    +0.015 C 
ATOM     13  C   UNL     1      35.351 -23.097 -16.976  0.00  0.00    +0.015 C 
ATOM     14  C   UNL     1      37.572 -21.440 -16.642  0.00  0.00    +0.001 C 
ATOM     15  C   UNL     1      35.670 -22.152 -17.952  0.00  0.00    +0.001 C 
ATOM     16  C   UNL     1      36.780 -21.324 -17.784  0.00  0.00    +0.000 C 
ENDBRANCH   9  11
BRANCH  10  17
ATOM     17  C   UNL     1      38.083 -25.109 -15.271  0.00  0.00    +0.086 C 
ATOM     18  C   UNL     1      39.233 -25.813 -14.568  0.00  0.00    +0.010 C 
ENDBRANCH  10  17
ENDBRANCH   2   9
BRANCH   2  20
ATOM     19  O   UNL     1      34.489 -24.829 -11.855  0.00  0.00    -0.248 OA
ATOM     20  C   UNL     1      34.914 -24.059 -12.706  0.00  0.00    +0.333 C 
BRANCH  20  21
ATOM     21  O   UNL     1      35.793 -23.037 -12.505  0.00  0.00    -0.443 OA
ATOM     22  C   UNL     1      36.750 -23.243 -11.461  0.00  0.00    +0.256 C 
ENDBRANCH  20  21
ENDBRANCH   2  20
BRANCH   1  23
ATOM     23  C   UNL     1      30.217 -23.900 -13.995  0.00  0.00    -0.066 C 
BRANCH  23  24
ATOM     24  C   UNL     1      29.272 -24.442 -15.064  0.00  0.00    +0.087 C 
BRANCH  24  26
ATOM     25  O   UNL     1      29.962 -22.831 -16.750  0.00  0.00    -0.250 OA
ATOM     26  C   UNL     1      29.071 -23.455 -16.191  0.00  0.00    +0.315 C 
BRANCH  26  27
ATOM     27  O   UNL     1      27.738 -23.379 -16.480  0.00  0.00    -0.444 OA
ATOM     28  C   UNL     1      27.049 -22.256 -15.922  0.00  0.00    +0.256 C 
ENDBRANCH  26  27
ENDBRANCH  24  26
ENDBRANCH  23  24
ENDBRANCH   1  23
TORSDOF 9
ENDMDL
MODEL 4
REMARK VINA RESULT:      -6.0      8.398     13.546
REMARK  Name = 60815
REMARK  9 active torsions:
REMARK  status: ('A' for Active; 'I' for Inactive)
REMARK    1  A    between atoms: N_1  and  C_23
REMARK    2  A    between atoms: C_2  and  N_9
REMARK    3  A    between atoms: C_2  and  C_20
REMARK    4  A    between atoms: N_9  and  C_11
REMARK    5  A    between atoms: C_10  and  C_17
REMARK    6  A    between atoms: C_20  and  O_21
REMARK    7  A    between atoms: C_23  and  C_24
REMARK    8  A    between atoms: C_24  and  C_26
REMARK    9  A    between atoms: C_26  and  O_27
REMARK                            x       y       z     vdW  Elec       q    Type
REMARK                         _______ _______ _______ _____ _____    ______ ____
ROOT
ATOM      1  N   UNL     1      34.112 -15.580 -21.137  0.00  0.00    +0.387 N 
ATOM      2  C   UNL     1      33.139 -13.490 -22.958  0.00  0.00    +0.149 C 
ATOM      3  C   UNL     1      34.627 -13.814 -22.795  0.00  0.00    +0.007 C 
ATOM      4  C   UNL     1      32.345 -13.950 -21.732  0.00  0.00    +0.007 C 
ATOM      5  C   UNL     1      34.861 -15.265 -22.361  0.00  0.00    -0.075 C 
ATOM      6  C   UNL     1      32.669 -15.395 -21.340  0.00  0.00    -0.075 C 
ATOM      7  H   UNL     1      34.414 -14.934 -20.406  0.00  0.00    -0.080 HD
ENDROOT
BRANCH   2   9
ATOM      8  O   UNL     1      31.139 -11.735 -21.699  0.00  0.00    -0.275 OA
ATOM      9  N   UNL     1      32.945 -12.078 -23.195  0.00  0.00    -0.252 N 
ATOM     10  C   UNL     1      31.943 -11.309 -22.533  0.00  0.00    +0.230 C 
BRANCH   9  11
ATOM     11  C   UNL     1      33.815 -11.407 -24.158  0.00  0.00    +0.054 C 
ATOM     12  C   UNL     1      34.531 -10.272 -23.778  0.00  0.00    +0.015 C 
ATOM     13  C   UNL     1      33.930 -11.903 -25.457  0.00  0.00    +0.015 C 
ATOM     14  C   UNL     1      35.363  -9.632 -24.697  0.00  0.00    +0.001 C 
ATOM     15  C   UNL     1      34.761 -11.263 -26.376  0.00  0.00    +0.001 C 
ATOM     16  C   UNL     1      35.477 -10.127 -25.995  0.00  0.00    +0.000 C 
ENDBRANCH   9  11
BRANCH  10  17
ATOM     17  C   UNL     1      31.868  -9.845 -22.956  0.00  0.00    +0.086 C 
ATOM     18  C   UNL     1      31.985  -8.884 -21.783  0.00  0.00    +0.010 C 
ENDBRANCH  10  17
ENDBRANCH   2   9
BRANCH   2  20
ATOM     19  O   UNL     1      31.538 -13.754 -24.743  0.00  0.00    -0.248 OA
ATOM     20  C   UNL     1      32.588 -14.099 -24.218  0.00  0.00    +0.333 C 
BRANCH  20  21
ATOM     21  O   UNL     1      33.433 -15.072 -24.662  0.00  0.00    -0.443 OA
ATOM     22  C   UNL     1      33.278 -15.443 -26.035  0.00  0.00    +0.256 C 
ENDBRANCH  20  21
ENDBRANCH   2  20
BRANCH   1  23
ATOM     23  C   UNL     1      34.396 -16.947 -20.701  0.00  0.00    -0.066 C 
BRANCH  23  24
ATOM     24  C   UNL     1      35.096 -17.723 -21.813  0.00  0.00    +0.087 C 
BRANCH  24  26
ATOM     25  O   UNL     1      33.798 -19.695 -21.228  0.00  0.00    -0.250 OA
ATOM     26  C   UNL     1      34.453 -19.070 -22.051  0.00  0.00    +0.315 C 
BRANCH  26  27
ATOM     27  O   UNL     1      34.721 -19.469 -23.329  0.00  0.00    -0.444 OA
ATOM     28  C   UNL     1      34.754 -18.425 -24.308  0.00  0.00    +0.256 C 
ENDBRANCH  26  27
ENDBRANCH  24  26
ENDBRANCH  23  24
ENDBRANCH   1  23
TORSDOF 9
ENDMDL
MODEL 5
REMARK VINA RESULT:      -6.0      7.250     12.584
REMARK  Name = 60815
REMARK  9 active torsions:
REMARK  status: ('A' for Active; 'I' for Inactive)
REMARK    1  A    between atoms: N_1  and  C_23
REMARK    2  A    between atoms: C_2  and  N_9
REMARK    3  A    between atoms: C_2  and  C_20
REMARK    4  A    between atoms: N_9  and  C_11
REMARK    5  A    between atoms: C_10  and  C_17
REMARK    6  A    between atoms: C_20  and  O_21
REMARK    7  A    between atoms: C_23  and  C_24
REMARK    8  A    between atoms: C_24  and  C_26
REMARK    9  A    between atoms: C_26  and  O_27
REMARK                            x       y       z     vdW  Elec       q    Type
REMARK                         _______ _______ _______ _____ _____    ______ ____
ROOT
ATOM      1  N   UNL     1      34.101 -16.337 -21.249  0.00  0.00    +0.387 N 
ATOM      2  C   UNL     1      33.248 -13.959 -22.748  0.00  0.00    +0.149 C 
ATOM      3  C   UNL     1      34.722 -14.296 -22.508  0.00  0.00    +0.007 C 
ATOM      4  C   UNL     1      32.356 -14.640 -21.705  0.00  0.00    +0.007 C 
ATOM      5  C   UNL     1      34.950 -15.800 -22.320  0.00  0.00    -0.075 C 
ATOM      6  C   UNL     1      32.678 -16.129 -21.551  0.00  0.00    -0.075 C 
ATOM      7  H   UNL     1      34.319 -15.832 -20.390  0.00  0.00    -0.080 HD
ENDROOT
BRANCH   2   9
ATOM      8  O   UNL     1      34.342 -12.002 -24.655  0.00  0.00    -0.275 OA
ATOM      9  N   UNL     1      33.042 -12.529 -22.745  0.00  0.00    -0.252 N 
ATOM     10  C   UNL     1      33.618 -11.659 -23.717  0.00  0.00    +0.230 C 
BRANCH   9  11
ATOM     11  C   UNL     1      32.205 -11.948 -21.698  0.00  0.00    +0.054 C 
ATOM     12  C   UNL     1      32.670 -11.891 -20.385  0.00  0.00    +0.015 C 
ATOM     13  C   UNL     1      30.940 -11.450 -22.013  0.00  0.00    +0.015 C 
ATOM     14  C   UNL     1      31.872 -11.335 -19.385  0.00  0.00    +0.001 C 
ATOM     15  C   UNL     1      30.141 -10.895 -21.013  0.00  0.00    +0.001 C 
ATOM     16  C   UNL     1      30.607 -10.838 -19.699  0.00  0.00    +0.000 C 
ENDBRANCH   9  11
BRANCH  10  17
ATOM     17  C   UNL     1      33.319 -10.176 -23.513  0.00  0.00    +0.086 C 
ATOM     18  C   UNL     1      34.437  -9.274 -24.013  0.00  0.00    +0.010 C 
ENDBRANCH  10  17
ENDBRANCH   2   9
BRANCH   2  20
ATOM     19  O   UNL     1      31.788 -13.963 -24.669  0.00  0.00    -0.248 OA
ATOM     20  C   UNL     1      32.829 -14.333 -24.144  0.00  0.00    +0.333 C 
BRANCH  20  21
ATOM     21  O   UNL     1      33.780 -15.133 -24.706  0.00  0.00    -0.443 OA
ATOM     22  C   UNL     1      33.448 -15.676 -25.987  0.00  0.00    +0.256 C 
ENDBRANCH  20  21
ENDBRANCH   2  20
BRANCH   1  23
ATOM     23  C   UNL     1      34.377 -17.758 -21.042  0.00  0.00    -0.066 C 
BRANCH  23  24
ATOM     24  C   UNL     1      35.606 -18.182 -21.842  0.00  0.00    +0.087 C 
BRANCH  24  26
ATOM     25  O   UNL     1      37.732 -19.141 -21.154  0.00  0.00    -0.250 OA
ATOM     26  C   UNL     1      36.516 -19.083 -21.039  0.00  0.00    +0.315 C 
BRANCH  26  27
ATOM     27  O   UNL     1      35.759 -19.816 -20.170  0.00  0.00    -0.444 OA
ATOM     28  C   UNL     1      36.239 -21.136 -19.895  0.00  0.00    +0.256 C 
ENDBRANCH  26  27
ENDBRANCH  24  26
ENDBRANCH  23  24
ENDBRANCH   1  23
TORSDOF 9
ENDMDL
MODEL 6
REMARK VINA RESULT:      -5.8     14.132     17.805
REMARK  Name = 60815
REMARK  9 active torsions:
REMARK  status: ('A' for Active; 'I' for Inactive)
REMARK    1  A    between atoms: N_1  and  C_23
REMARK    2  A    between atoms: C_2  and  N_9
REMARK    3  A    between atoms: C_2  and  C_20
REMARK    4  A    between atoms: N_9  and  C_11
REMARK    5  A    between atoms: C_10  and  C_17
REMARK    6  A    between atoms: C_20  and  O_21
REMARK    7  A    between atoms: C_23  and  C_24
REMARK    8  A    between atoms: C_24  and  C_26
REMARK    9  A    between atoms: C_26  and  O_27
REMARK                            x       y       z     vdW  Elec       q    Type
REMARK                         _______ _______ _______ _____ _____    ______ ____
ROOT
ATOM      1  N   UNL     1      30.897  -5.450 -22.975  0.00  0.00    +0.387 N 
ATOM      2  C   UNL     1      32.498  -7.912 -23.024  0.00  0.00    +0.149 C 
ATOM      3  C   UNL     1      31.437  -7.598 -24.082  0.00  0.00    +0.007 C 
ATOM      4  C   UNL     1      32.232  -7.128 -21.736  0.00  0.00    +0.007 C 
ATOM      5  C   UNL     1      31.218  -6.092 -24.256  0.00  0.00    -0.075 C 
ATOM      6  C   UNL     1      31.982  -5.640 -22.003  0.00  0.00    -0.075 C 
ATOM      7  H   UNL     1      30.057  -5.892 -22.602  0.00  0.00    -0.080 HD
ENDROOT
BRANCH   2   9
ATOM      8  O   UNL     1      33.600 -10.004 -24.777  0.00  0.00    -0.275 OA
ATOM      9  N   UNL     1      32.555  -9.331 -22.759  0.00  0.00    -0.252 N 
ATOM     10  C   UNL     1      33.111 -10.272 -23.676  0.00  0.00    +0.230 C 
BRANCH   9  11
ATOM     11  C   UNL     1      32.017  -9.826 -21.494  0.00  0.00    +0.054 C 
ATOM     12  C   UNL     1      32.577  -9.407 -20.287  0.00  0.00    +0.015 C 
ATOM     13  C   UNL     1      30.944 -10.717 -21.494  0.00  0.00    +0.015 C 
ATOM     14  C   UNL     1      32.064  -9.879 -19.079  0.00  0.00    +0.001 C 
ATOM     15  C   UNL     1      30.430 -11.189 -20.286  0.00  0.00    +0.001 C 
ATOM     16  C   UNL     1      30.991 -10.769 -19.078  0.00  0.00    +0.000 C 
ENDBRANCH   9  11
BRANCH  10  17
ATOM     17  C   UNL     1      33.034 -11.730 -23.232  0.00  0.00    +0.086 C 
ATOM     18  C   UNL     1      33.761 -12.674 -24.176  0.00  0.00    +0.010 C 
ENDBRANCH  10  17
ENDBRANCH   2   9
BRANCH   2  20
ATOM     19  O   UNL     1      34.900  -7.737 -22.879  0.00  0.00    -0.248 OA
ATOM     20  C   UNL     1      33.881  -7.636 -23.548  0.00  0.00    +0.333 C 
BRANCH  20  21
ATOM     21  O   UNL     1      33.807  -7.263 -24.858  0.00  0.00    -0.443 OA
ATOM     22  C   UNL     1      34.753  -6.273 -25.271  0.00  0.00    +0.256 C 
ENDBRANCH  20  21
ENDBRANCH   2  20
BRANCH   1  23
ATOM     23  C   UNL     1      30.630  -4.025 -23.170  0.00  0.00    -0.066 C 
BRANCH  23  24
ATOM     24  C   UNL     1      31.527  -3.463 -24.268  0.00  0.00    +0.087 C 
BRANCH  24  26
ATOM     25  O   UNL     1      29.587  -2.289 -25.150  0.00  0.00    -0.250 OA
ATOM     26  C   UNL     1      30.738  -2.677 -25.291  0.00  0.00    +0.315 C 
BRANCH  26  27
ATOM     27  O   UNL     1      31.522  -2.473 -26.392  0.00  0.00    -0.444 OA
ATOM     28  C   UNL     1      32.169  -3.638 -26.913  0.00  0.00    +0.256 C 
ENDBRANCH  26  27
ENDBRANCH  24  26
ENDBRANCH  23  24
ENDBRANCH   1  23
TORSDOF 9
ENDMDL
MODEL 7
REMARK VINA RESULT:      -5.7      2.622      5.404
REMARK  Name = 60815
REMARK  9 active torsions:
REMARK  status: ('A' for Active; 'I' for Inactive)
REMARK    1  A    between atoms: N_1  and  C_23
REMARK    2  A    between atoms: C_2  and  N_9
REMARK    3  A    between atoms: C_2  and  C_20
REMARK    4  A    between atoms: N_9  and  C_11
REMARK    5  A    between atoms: C_10  and  C_17
REMARK    6  A    between atoms: C_20  and  O_21
REMARK    7  A    between atoms: C_23  and  C_24
REMARK    8  A    between atoms: C_24  and  C_26
REMARK    9  A    between atoms: C_26  and  O_27
REMARK                            x       y       z     vdW  Elec       q    Type
REMARK                         _______ _______ _______ _____ _____    ______ ____
ROOT
ATOM      1  N   UNL     1      31.851 -23.296 -15.772  0.00  0.00    +0.387 N 
ATOM      2  C   UNL     1      34.673 -23.802 -15.131  0.00  0.00    +0.149 C 
ATOM      3  C   UNL     1      33.902 -24.628 -16.165  0.00  0.00    +0.007 C 
ATOM      4  C   UNL     1      33.713 -23.128 -14.148  0.00  0.00    +0.007 C 
ATOM      5  C   UNL     1      32.751 -23.838 -16.798  0.00  0.00    -0.075 C 
ATOM      6  C   UNL     1      32.571 -22.397 -14.861  0.00  0.00    -0.075 C 
ATOM      7  H   UNL     1      31.489 -24.078 -15.224  0.00  0.00    -0.080 HD
ENDROOT
BRANCH   2   9
ATOM      8  O   UNL     1      35.945 -26.271 -16.107  0.00  0.00    -0.275 OA
ATOM      9  N   UNL     1      35.632 -24.625 -14.431  0.00  0.00    -0.252 N 
ATOM     10  C   UNL     1      36.196 -25.810 -14.990  0.00  0.00    +0.230 C 
BRANCH   9  11
ATOM     11  C   UNL     1      36.044 -24.224 -13.088  0.00  0.00    +0.054 C 
ATOM     12  C   UNL     1      37.130 -23.366 -12.918  0.00  0.00    +0.015 C 
ATOM     13  C   UNL     1      35.350 -24.699 -11.975  0.00  0.00    +0.015 C 
ATOM     14  C   UNL     1      37.523 -22.982 -11.636  0.00  0.00    +0.001 C 
ATOM     15  C   UNL     1      35.743 -24.316 -10.692  0.00  0.00    +0.001 C 
ATOM     16  C   UNL     1      36.830 -23.458 -10.524  0.00  0.00    +0.000 C 
ENDBRANCH   9  11
BRANCH  10  17
ATOM     17  C   UNL     1      37.154 -26.564 -14.072  0.00  0.00    +0.086 C 
ATOM     18  C   UNL     1      38.600 -26.124 -14.240  0.00  0.00    +0.010 C 
ENDBRANCH  10  17
ENDBRANCH   2   9
BRANCH   2  20
ATOM     19  O   UNL     1      36.096 -21.856 -15.220  0.00  0.00    -0.248 OA
ATOM     20  C   UNL     1      35.559 -22.789 -15.802  0.00  0.00    +0.333 C 
BRANCH  20  21
ATOM     21  O   UNL     1      35.658 -23.078 -17.131  0.00  0.00    -0.443 OA
ATOM     22  C   UNL     1      36.114 -22.007 -17.963  0.00  0.00    +0.256 C 
ENDBRANCH  20  21
ENDBRANCH   2  20
BRANCH   1  23
ATOM     23  C   UNL     1      30.726 -22.600 -16.395  0.00  0.00    -0.066 C 
BRANCH  23  24
ATOM     24  C   UNL     1      29.437 -22.884 -15.629  0.00  0.00    +0.087 C 
BRANCH  24  26
ATOM     25  O   UNL     1      29.598 -25.120 -14.687  0.00  0.00    -0.250 OA
ATOM     26  C   UNL     1      29.151 -24.365 -15.539  0.00  0.00    +0.315 C 
BRANCH  26  27
ATOM     27  O   UNL     1      28.314 -24.717 -16.560  0.00  0.00    -0.444 OA
ATOM     28  C   UNL     1      27.845 -23.638 -17.374  0.00  0.00    +0.256 C 
ENDBRANCH  26  27
ENDBRANCH  24  26
ENDBRANCH  23  24
ENDBRANCH   1  23
TORSDOF 9
ENDMDL
MODEL 8
REMARK VINA RESULT:      -5.6     12.650     17.776
REMARK  Name = 60815
REMARK  9 active torsions:
REMARK  status: ('A' for Active; 'I' for Inactive)
REMARK    1  A    between atoms: N_1  and  C_23
REMARK    2  A    between atoms: C_2  and  N_9
REMARK    3  A    between atoms: C_2  and  C_20
REMARK    4  A    between atoms: N_9  and  C_11
REMARK    5  A    between atoms: C_10  and  C_17
REMARK    6  A    between atoms: C_20  and  O_21
REMARK    7  A    between atoms: C_23  and  C_24
REMARK    8  A    between atoms: C_24  and  C_26
REMARK    9  A    between atoms: C_26  and  O_27
REMARK                            x       y       z     vdW  Elec       q    Type
REMARK                         _______ _______ _______ _____ _____    ______ ____
ROOT
ATOM      1  N   UNL     1      33.380 -10.938 -24.223  0.00  0.00    +0.387 N 
ATOM      2  C   UNL     1      32.942  -8.129 -23.486  0.00  0.00    +0.149 C 
ATOM      3  C   UNL     1      31.799  -9.144 -23.581  0.00  0.00    +0.007 C 
ATOM      4  C   UNL     1      34.145  -8.585 -24.317  0.00  0.00    +0.007 C 
ATOM      5  C   UNL     1      32.274 -10.578 -23.326  0.00  0.00    -0.075 C 
ATOM      6  C   UNL     1      34.527 -10.042 -24.033  0.00  0.00    -0.075 C 
ATOM      7  H   UNL     1      33.053 -10.835 -25.185  0.00  0.00    -0.080 HD
ENDROOT
BRANCH   2   9
ATOM      8  O   UNL     1      30.735  -6.554 -22.342  0.00  0.00    -0.275 OA
ATOM      9  N   UNL     1      32.499  -6.818 -23.902  0.00  0.00    -0.252 N 
ATOM     10  C   UNL     1      31.414  -6.131 -23.281  0.00  0.00    +0.230 C 
BRANCH   9  11
ATOM     11  C   UNL     1      33.196  -6.165 -25.008  0.00  0.00    +0.054 C 
ATOM     12  C   UNL     1      32.481  -5.393 -25.923  0.00  0.00    +0.015 C 
ATOM     13  C   UNL     1      34.576  -6.314 -25.147  0.00  0.00    +0.015 C 
ATOM     14  C   UNL     1      33.146  -4.769 -26.979  0.00  0.00    +0.001 C 
ATOM     15  C   UNL     1      35.241  -5.691 -26.203  0.00  0.00    +0.001 C 
ATOM     16  C   UNL     1      34.525  -4.918 -27.119  0.00  0.00    +0.000 C 
ENDBRANCH   9  11
BRANCH  10  17
ATOM     17  C   UNL     1      31.070  -4.777 -23.896  0.00  0.00    +0.086 C 
ATOM     18  C   UNL     1      31.247  -3.624 -22.921  0.00  0.00    +0.010 C 
ENDBRANCH  10  17
ENDBRANCH   2   9
BRANCH   2  20
ATOM     19  O   UNL     1      34.219  -7.118 -21.706  0.00  0.00    -0.248 OA
ATOM     20  C   UNL     1      33.334  -7.889 -22.054  0.00  0.00    +0.333 C 
BRANCH  20  21
ATOM     21  O   UNL     1      32.559  -8.654 -21.234  0.00  0.00    -0.443 OA
ATOM     22  C   UNL     1      32.380  -8.150 -19.908  0.00  0.00    +0.256 C 
ENDBRANCH  20  21
ENDBRANCH   2  20
BRANCH   1  23
ATOM     23  C   UNL     1      33.778 -12.330 -24.011  0.00  0.00    -0.066 C 
BRANCH  23  24
ATOM     24  C   UNL     1      32.591 -13.152 -23.518  0.00  0.00    +0.087 C 
BRANCH  24  26
ATOM     25  O   UNL     1      32.280 -14.893 -21.849  0.00  0.00    -0.250 OA
ATOM     26  C   UNL     1      33.023 -14.262 -22.587  0.00  0.00    +0.315 C 
BRANCH  26  27
ATOM     27  O   UNL     1      34.371 -14.442 -22.709  0.00  0.00    -0.444 OA
ATOM     28  C   UNL     1      34.788 -15.766 -23.056  0.00  0.00    +0.256 C 
ENDBRANCH  26  27
ENDBRANCH  24  26
ENDBRANCH  23  24
ENDBRANCH   1  23
TORSDOF 9
ENDMDL
MODEL 9
REMARK VINA RESULT:      -5.5     13.567     18.028
REMARK  Name = 60815
REMARK  9 active torsions:
REMARK  status: ('A' for Active; 'I' for Inactive)
REMARK    1  A    between atoms: N_1  and  C_23
REMARK    2  A    between atoms: C_2  and  N_9
REMARK    3  A    between atoms: C_2  and  C_20
REMARK    4  A    between atoms: N_9  and  C_11
REMARK    5  A    between atoms: C_10  and  C_17
REMARK    6  A    between atoms: C_20  and  O_21
REMARK    7  A    between atoms: C_23  and  C_24
REMARK    8  A    between atoms: C_24  and  C_26
REMARK    9  A    between atoms: C_26  and  O_27
REMARK                            x       y       z     vdW  Elec       q    Type
REMARK                         _______ _______ _______ _____ _____    ______ ____
ROOT
ATOM      1  N   UNL     1      31.321  -5.744 -24.640  0.00  0.00    +0.387 N 
ATOM      2  C   UNL     1      32.469  -8.079 -23.277  0.00  0.00    +0.149 C 
ATOM      3  C   UNL     1      33.134  -7.425 -24.492  0.00  0.00    +0.007 C 
ATOM      4  C   UNL     1      30.974  -7.751 -23.232  0.00  0.00    +0.007 C 
ATOM      5  C   UNL     1      32.777  -5.940 -24.619  0.00  0.00    -0.075 C 
ATOM      6  C   UNL     1      30.703  -6.254 -23.409  0.00  0.00    -0.075 C 
ATOM      7  H   UNL     1      30.942  -6.271 -25.427  0.00  0.00    -0.080 HD
ENDROOT
BRANCH   2   9
ATOM      8  O   UNL     1      31.312 -10.056 -21.429  0.00  0.00    -0.275 OA
ATOM      9  N   UNL     1      32.681  -9.508 -23.285  0.00  0.00    -0.252 N 
ATOM     10  C   UNL     1      32.073 -10.389 -22.342  0.00  0.00    +0.230 C 
BRANCH   9  11
ATOM     11  C   UNL     1      33.560 -10.077 -24.304  0.00  0.00    +0.054 C 
ATOM     12  C   UNL     1      33.097 -11.101 -25.130  0.00  0.00    +0.015 C 
ATOM     13  C   UNL     1      34.861  -9.595 -24.451  0.00  0.00    +0.015 C 
ATOM     14  C   UNL     1      33.936 -11.644 -26.104  0.00  0.00    +0.001 C 
ATOM     15  C   UNL     1      35.699 -10.138 -25.425  0.00  0.00    +0.001 C 
ATOM     16  C   UNL     1      35.236 -11.163 -26.251  0.00  0.00    +0.000 C 
ENDBRANCH   9  11
BRANCH  10  17
ATOM     17  C   UNL     1      32.461 -11.858 -22.488  0.00  0.00    +0.086 C 
ATOM     18  C   UNL     1      31.991 -12.712 -21.320  0.00  0.00    +0.010 C 
ENDBRANCH  10  17
ENDBRANCH   2   9
BRANCH   2  20
ATOM     19  O   UNL     1      34.353  -7.778 -21.801  0.00  0.00    -0.248 OA
ATOM     20  C   UNL     1      33.151  -7.667 -22.002  0.00  0.00    +0.333 C 
BRANCH  20  21
ATOM     21  O   UNL     1      32.229  -7.165 -21.132  0.00  0.00    -0.443 OA
ATOM     22  C   UNL     1      32.568  -7.269 -19.746  0.00  0.00    +0.256 C 
ENDBRANCH  20  21
ENDBRANCH   2  20
BRANCH   1  23
ATOM     23  C   UNL     1      30.999  -4.329 -24.825  0.00  0.00    -0.066 C 
BRANCH  23  24
ATOM     24  C   UNL     1      32.164  -3.603 -25.491  0.00  0.00    +0.087 C 
BRANCH  24  26
ATOM     25  O   UNL     1      31.191  -2.003 -27.043  0.00  0.00    -0.250 OA
ATOM     26  C   UNL     1      31.785  -3.054 -26.847  0.00  0.00    +0.315 C 
BRANCH  26  27
ATOM     27  O   UNL     1      32.214  -3.922 -27.811  0.00  0.00    -0.444 OA
ATOM     28  C   UNL     1      33.616  -4.206 -27.807  0.00  0.00    +0.256 C 
ENDBRANCH  26  27
ENDBRANCH  24  26
ENDBRANCH  23  24
ENDBRANCH   1  23
TORSDOF 9
ENDMDL
