MODEL 1
REMARK VINA RESULT:      -7.3      0.000      0.000
REMARK  Name = 446274
REMARK  2 active torsions:
REMARK  status: ('A' for Active; 'I' for Inactive)
REMARK    1  A    between atoms: C_3  and  S_9
REMARK    2  A    between atoms: S_9  and  N_12
REMARK                            x       y       z     vdW  Elec       q    Type
REMARK                         _______ _______ _______ _____ _____    ______ ____
ROOT
ATOM      1  F   UNL     1      32.571 -20.435 -20.522  0.00  0.00    -0.203 F 
ATOM      2  F   UNL     1      36.796 -21.967 -18.985  0.00  0.00    -0.203 F 
ATOM      3  C   UNL     1      34.667 -21.231 -19.736  0.00  0.00    +0.176 C 
ATOM      4  C   UNL     1      33.903 -20.308 -20.451  0.00  0.00    +0.161 C 
ATOM      5  C   UNL     1      36.052 -21.087 -19.669  0.00  0.00    +0.161 C 
ATOM      6  C   UNL     1      34.526 -19.240 -21.098  0.00  0.00    +0.031 C 
ATOM      7  C   UNL     1      36.675 -20.019 -20.316  0.00  0.00    +0.031 C 
ATOM      8  C   UNL     1      35.912 -19.096 -21.030  0.00  0.00    +0.005 C 
ENDROOT
BRANCH   3   9
ATOM      9  S   UNL     1      33.887 -22.567 -18.926  0.00  0.00    +0.061 S 
ATOM     10  O   UNL     1      32.539 -22.159 -18.559  0.00  0.00    -0.153 OA
ATOM     11  O   UNL     1      34.088 -23.771 -19.721  0.00  0.00    -0.153 OA
BRANCH   9  12
ATOM     12  N   UNL     1      34.833 -22.684 -17.508  0.00  0.00    -0.203 NA
ATOM     13  H   UNL     1      34.284 -22.376 -16.705  0.00  0.00    +0.144 HD
ATOM     14  H   UNL     1      35.660 -22.094 -17.602  0.00  0.00    +0.144 HD
ENDBRANCH   9  12
ENDBRANCH   3   9
TORSDOF 2
ENDMDL
MODEL 2
REMARK VINA RESULT:      -7.3      0.151      2.391
REMARK  Name = 446274
REMARK  2 active torsions:
REMARK  status: ('A' for Active; 'I' for Inactive)
REMARK    1  A    between atoms: C_3  and  S_9
REMARK    2  A    between atoms: S_9  and  N_12
REMARK                            x       y       z     vdW  Elec       q    Type
REMARK                         _______ _______ _______ _____ _____    ______ ____
ROOT
ATOM      1  F   UNL     1      36.793 -21.898 -19.190  0.00  0.00    -0.203 F 
ATOM      2  F   UNL     1      32.454 -20.399 -20.409  0.00  0.00    -0.203 F 
ATOM      3  C   UNL     1      34.608 -21.178 -19.782  0.00  0.00    +0.176 C 
ATOM      4  C   UNL     1      35.993 -21.012 -19.799  0.00  0.00    +0.161 C 
ATOM      5  C   UNL     1      33.786 -20.251 -20.420  0.00  0.00    +0.161 C 
ATOM      6  C   UNL     1      36.555 -19.918 -20.457  0.00  0.00    +0.031 C 
ATOM      7  C   UNL     1      34.348 -19.156 -21.078  0.00  0.00    +0.031 C 
ATOM      8  C   UNL     1      35.733 -18.990 -21.096  0.00  0.00    +0.005 C 
ENDROOT
BRANCH   3   9
ATOM      9  S   UNL     1      33.904 -22.549 -18.959  0.00  0.00    +0.061 S 
ATOM     10  O   UNL     1      32.547 -22.200 -18.563  0.00  0.00    -0.153 OA
ATOM     11  O   UNL     1      34.141 -23.741 -19.761  0.00  0.00    -0.153 OA
BRANCH   9  12
ATOM     12  N   UNL     1      34.882 -22.626 -17.560  0.00  0.00    -0.203 NA
ATOM     13  H   UNL     1      34.739 -23.522 -17.093  0.00  0.00    +0.144 HD
ATOM     14  H   UNL     1      34.629 -21.868 -16.926  0.00  0.00    +0.144 HD
ENDBRANCH   9  12
ENDBRANCH   3   9
TORSDOF 2
ENDMDL
MODEL 3
REMARK VINA RESULT:      -6.9      3.518      3.830
REMARK  Name = 446274
REMARK  2 active torsions:
REMARK  status: ('A' for Active; 'I' for Inactive)
REMARK    1  A    between atoms: C_3  and  S_9
REMARK    2  A    between atoms: S_9  and  N_12
REMARK                            x       y       z     vdW  Elec       q    Type
REMARK                         _______ _______ _______ _____ _____    ______ ____
ROOT
ATOM      1  F   UNL     1      32.474 -19.787 -20.838  0.00  0.00    -0.203 F 
ATOM      2  F   UNL     1      37.162 -20.344 -20.312  0.00  0.00    -0.203 F 
ATOM      3  C   UNL     1      34.824 -20.035 -20.597  0.00  0.00    +0.176 C 
ATOM      4  C   UNL     1      33.519 -20.441 -20.314  0.00  0.00    +0.161 C 
ATOM      5  C   UNL     1      35.904 -20.724 -20.047  0.00  0.00    +0.161 C 
ATOM      6  C   UNL     1      33.296 -21.536 -19.480  0.00  0.00    +0.031 C 
ATOM      7  C   UNL     1      35.680 -21.820 -19.212  0.00  0.00    +0.031 C 
ATOM      8  C   UNL     1      34.376 -22.226 -18.929  0.00  0.00    +0.005 C 
ENDROOT
BRANCH   3   9
ATOM      9  S   UNL     1      35.104 -18.664 -21.642  0.00  0.00    +0.061 S 
ATOM     10  O   UNL     1      34.255 -17.567 -21.199  0.00  0.00    -0.153 OA
ATOM     11  O   UNL     1      36.541 -18.462 -21.765  0.00  0.00    -0.153 OA
BRANCH   9  12
ATOM     12  N   UNL     1      34.505 -19.258 -23.127  0.00  0.00    -0.203 NA
ATOM     13  H   UNL     1      34.190 -20.221 -23.007  0.00  0.00    +0.144 HD
ATOM     14  H   UNL     1      35.247 -19.229 -23.828  0.00  0.00    +0.144 HD
ENDBRANCH   9  12
ENDBRANCH   3   9
TORSDOF 2
ENDMDL
MODEL 4
REMARK VINA RESULT:      -6.9      3.533      4.476
REMARK  Name = 446274
REMARK  2 active torsions:
REMARK  status: ('A' for Active; 'I' for Inactive)
REMARK    1  A    between atoms: C_3  and  S_9
REMARK    2  A    between atoms: S_9  and  N_12
REMARK                            x       y       z     vdW  Elec       q    Type
REMARK                         _______ _______ _______ _____ _____    ______ ____
ROOT
ATOM      1  F   UNL     1      37.199 -20.078 -20.261  0.00  0.00    -0.203 F 
ATOM      2  F   UNL     1      32.498 -20.005 -20.942  0.00  0.00    -0.203 F 
ATOM      3  C   UNL     1      34.853 -20.012 -20.625  0.00  0.00    +0.176 C 
ATOM      4  C   UNL     1      35.977 -20.573 -20.020  0.00  0.00    +0.161 C 
ATOM      5  C   UNL     1      33.586 -20.535 -20.366  0.00  0.00    +0.161 C 
ATOM      6  C   UNL     1      35.835 -21.657 -19.155  0.00  0.00    +0.031 C 
ATOM      7  C   UNL     1      33.444 -21.621 -19.501  0.00  0.00    +0.031 C 
ATOM      8  C   UNL     1      34.568 -22.181 -18.895  0.00  0.00    +0.005 C 
ENDROOT
BRANCH   3   9
ATOM      9  S   UNL     1      35.031 -18.653 -21.709  0.00  0.00    +0.061 S 
ATOM     10  O   UNL     1      34.049 -17.642 -21.344  0.00  0.00    -0.153 OA
ATOM     11  O   UNL     1      36.442 -18.300 -21.779  0.00  0.00    -0.153 OA
BRANCH   9  12
ATOM     12  N   UNL     1      34.569 -19.359 -23.195  0.00  0.00    -0.203 NA
ATOM     13  H   UNL     1      34.921 -18.792 -23.966  0.00  0.00    +0.144 HD
ATOM     14  H   UNL     1      33.551 -19.407 -23.245  0.00  0.00    +0.144 HD
ENDBRANCH   9  12
ENDBRANCH   3   9
TORSDOF 2
ENDMDL
MODEL 5
REMARK VINA RESULT:      -6.9      6.624      7.601
REMARK  Name = 446274
REMARK  2 active torsions:
REMARK  status: ('A' for Active; 'I' for Inactive)
REMARK    1  A    between atoms: C_3  and  S_9
REMARK    2  A    between atoms: S_9  and  N_12
REMARK                            x       y       z     vdW  Elec       q    Type
REMARK                         _______ _______ _______ _____ _____    ______ ____
ROOT
ATOM      1  F   UNL     1      28.449 -25.193 -14.293  0.00  0.00    -0.203 F 
ATOM      2  F   UNL     1      31.045 -22.197 -16.910  0.00  0.00    -0.203 F 
ATOM      3  C   UNL     1      29.715 -23.682 -15.618  0.00  0.00    +0.176 C 
ATOM      4  C   UNL     1      29.635 -24.679 -14.645  0.00  0.00    +0.161 C 
ATOM      5  C   UNL     1      30.955 -23.155 -15.977  0.00  0.00    +0.161 C 
ATOM      6  C   UNL     1      30.796 -25.148 -14.031  0.00  0.00    +0.031 C 
ATOM      7  C   UNL     1      32.117 -23.625 -15.362  0.00  0.00    +0.031 C 
ATOM      8  C   UNL     1      32.037 -24.622 -14.390  0.00  0.00    +0.005 C 
ENDROOT
BRANCH   3   9
ATOM      9  S   UNL     1      28.261 -23.094 -16.387  0.00  0.00    +0.061 S 
ATOM     10  O   UNL     1      27.233 -22.938 -15.368  0.00  0.00    -0.153 OA
ATOM     11  O   UNL     1      28.613 -21.967 -17.240  0.00  0.00    -0.153 OA
BRANCH   9  12
ATOM     12  N   UNL     1      27.857 -24.425 -17.379  0.00  0.00    -0.203 NA
ATOM     13  H   UNL     1      28.706 -24.926 -17.641  0.00  0.00    +0.144 HD
ATOM     14  H   UNL     1      27.386 -24.091 -18.220  0.00  0.00    +0.144 HD
ENDBRANCH   9  12
ENDBRANCH   3   9
TORSDOF 2
ENDMDL
MODEL 6
REMARK VINA RESULT:      -6.8      6.633      7.649
REMARK  Name = 446274
REMARK  2 active torsions:
REMARK  status: ('A' for Active; 'I' for Inactive)
REMARK    1  A    between atoms: C_3  and  S_9
REMARK    2  A    between atoms: S_9  and  N_12
REMARK                            x       y       z     vdW  Elec       q    Type
REMARK                         _______ _______ _______ _____ _____    ______ ____
ROOT
ATOM      1  F   UNL     1      31.018 -22.174 -16.898  0.00  0.00    -0.203 F 
ATOM      2  F   UNL     1      28.435 -25.209 -14.314  0.00  0.00    -0.203 F 
ATOM      3  C   UNL     1      29.695 -23.679 -15.623  0.00  0.00    +0.176 C 
ATOM      4  C   UNL     1      30.933 -23.141 -15.975  0.00  0.00    +0.161 C 
ATOM      5  C   UNL     1      29.619 -24.685 -14.660  0.00  0.00    +0.161 C 
ATOM      6  C   UNL     1      32.095 -23.610 -15.363  0.00  0.00    +0.031 C 
ATOM      7  C   UNL     1      30.783 -25.154 -14.048  0.00  0.00    +0.031 C 
ATOM      8  C   UNL     1      32.020 -24.616 -14.400  0.00  0.00    +0.005 C 
ENDROOT
BRANCH   3   9
ATOM      9  S   UNL     1      28.239 -23.092 -16.388  0.00  0.00    +0.061 S 
ATOM     10  O   UNL     1      27.209 -22.950 -15.369  0.00  0.00    -0.153 OA
ATOM     11  O   UNL     1      28.586 -21.955 -17.231  0.00  0.00    -0.153 OA
BRANCH   9  12
ATOM     12  N   UNL     1      27.843 -24.416 -17.392  0.00  0.00    -0.203 NA
ATOM     13  H   UNL     1      28.250 -24.277 -18.317  0.00  0.00    +0.144 HD
ATOM     14  H   UNL     1      26.828 -24.488 -17.475  0.00  0.00    +0.144 HD
ENDBRANCH   9  12
ENDBRANCH   3   9
TORSDOF 2
ENDMDL
MODEL 7
REMARK VINA RESULT:      -6.7      4.864      5.606
REMARK  Name = 446274
REMARK  2 active torsions:
REMARK  status: ('A' for Active; 'I' for Inactive)
REMARK    1  A    between atoms: C_3  and  S_9
REMARK    2  A    between atoms: S_9  and  N_12
REMARK                            x       y       z     vdW  Elec       q    Type
REMARK                         _______ _______ _______ _____ _____    ______ ____
ROOT
ATOM      1  F   UNL     1      34.583 -15.149 -21.971  0.00  0.00    -0.203 F 
ATOM      2  F   UNL     1      35.150 -19.475 -23.851  0.00  0.00    -0.203 F 
ATOM      3  C   UNL     1      34.877 -17.325 -22.877  0.00  0.00    +0.176 C 
ATOM      4  C   UNL     1      34.529 -15.982 -23.020  0.00  0.00    +0.161 C 
ATOM      5  C   UNL     1      34.818 -18.182 -23.976  0.00  0.00    +0.161 C 
ATOM      6  C   UNL     1      34.123 -15.496 -24.262  0.00  0.00    +0.031 C 
ATOM      7  C   UNL     1      34.411 -17.696 -25.219  0.00  0.00    +0.031 C 
ATOM      8  C   UNL     1      34.064 -16.352 -25.362  0.00  0.00    +0.005 C 
ENDROOT
BRANCH   3   9
ATOM      9  S   UNL     1      35.386 -17.934 -21.321  0.00  0.00    +0.061 S 
ATOM     10  O   UNL     1      36.648 -18.640 -21.494  0.00  0.00    -0.153 OA
ATOM     11  O   UNL     1      35.288 -16.855 -20.348  0.00  0.00    -0.153 OA
BRANCH   9  12
ATOM     12  N   UNL     1      34.156 -19.075 -20.999  0.00  0.00    -0.203 NA
ATOM     13  H   UNL     1      33.695 -18.840 -20.120  0.00  0.00    +0.144 HD
ATOM     14  H   UNL     1      34.567 -20.006 -20.929  0.00  0.00    +0.144 HD
ENDBRANCH   9  12
ENDBRANCH   3   9
TORSDOF 2
ENDMDL
MODEL 8
REMARK VINA RESULT:      -6.7      4.892      5.774
REMARK  Name = 446274
REMARK  2 active torsions:
REMARK  status: ('A' for Active; 'I' for Inactive)
REMARK    1  A    between atoms: C_3  and  S_9
REMARK    2  A    between atoms: S_9  and  N_12
REMARK                            x       y       z     vdW  Elec       q    Type
REMARK                         _______ _______ _______ _____ _____    ______ ____
ROOT
ATOM      1  F   UNL     1      35.183 -19.430 -23.905  0.00  0.00    -0.203 F 
ATOM      2  F   UNL     1      34.543 -15.141 -21.967  0.00  0.00    -0.203 F 
ATOM      3  C   UNL     1      34.875 -17.299 -22.902  0.00  0.00    +0.176 C 
ATOM      4  C   UNL     1      34.835 -18.141 -24.014  0.00  0.00    +0.161 C 
ATOM      5  C   UNL     1      34.509 -15.959 -23.027  0.00  0.00    +0.161 C 
ATOM      6  C   UNL     1      34.428 -17.642 -25.251  0.00  0.00    +0.031 C 
ATOM      7  C   UNL     1      34.102 -15.460 -24.266  0.00  0.00    +0.031 C 
ATOM      8  C   UNL     1      34.062 -16.302 -25.377  0.00  0.00    +0.005 C 
ENDROOT
BRANCH   3   9
ATOM      9  S   UNL     1      35.384 -17.924 -21.352  0.00  0.00    +0.061 S 
ATOM     10  O   UNL     1      36.635 -18.644 -21.535  0.00  0.00    -0.153 OA
ATOM     11  O   UNL     1      35.303 -16.850 -20.372  0.00  0.00    -0.153 OA
BRANCH   9  12
ATOM     12  N   UNL     1      34.141 -19.051 -21.032  0.00  0.00    -0.203 NA
ATOM     13  H   UNL     1      34.552 -19.954 -20.795  0.00  0.00    +0.144 HD
ATOM     14  H   UNL     1      33.553 -19.153 -21.860  0.00  0.00    +0.144 HD
ENDBRANCH   9  12
ENDBRANCH   3   9
TORSDOF 2
ENDMDL
MODEL 9
REMARK VINA RESULT:      -6.6      5.660      6.249
REMARK  Name = 446274
REMARK  2 active torsions:
REMARK  status: ('A' for Active; 'I' for Inactive)
REMARK    1  A    between atoms: C_3  and  S_9
REMARK    2  A    between atoms: S_9  and  N_12
REMARK                            x       y       z     vdW  Elec       q    Type
REMARK                         _______ _______ _______ _____ _____    ______ ____
ROOT
ATOM      1  F   UNL     1      34.214 -15.397 -24.628  0.00  0.00    -0.203 F 
ATOM      2  F   UNL     1      34.750 -18.069 -20.737  0.00  0.00    -0.203 F 
ATOM      3  C   UNL     1      34.477 -16.702 -22.661  0.00  0.00    +0.176 C 
ATOM      4  C   UNL     1      34.433 -16.586 -24.050  0.00  0.00    +0.161 C 
ATOM      5  C   UNL     1      34.706 -17.945 -22.071  0.00  0.00    +0.161 C 
ATOM      6  C   UNL     1      34.619 -17.714 -24.850  0.00  0.00    +0.031 C 
ATOM      7  C   UNL     1      34.892 -19.073 -22.871  0.00  0.00    +0.031 C 
ATOM      8  C   UNL     1      34.848 -18.957 -24.261  0.00  0.00    +0.005 C 
ENDROOT
BRANCH   3   9
ATOM      9  S   UNL     1      34.244 -15.290 -21.659  0.00  0.00    +0.061 S 
ATOM     10  O   UNL     1      34.932 -15.505 -20.394  0.00  0.00    -0.153 OA
ATOM     11  O   UNL     1      34.543 -14.106 -22.454  0.00  0.00    -0.153 OA
BRANCH   9  12
ATOM     12  N   UNL     1      32.559 -15.357 -21.389  0.00  0.00    -0.203 NA
ATOM     13  H   UNL     1      32.353 -16.073 -20.692  0.00  0.00    +0.144 HD
ATOM     14  H   UNL     1      32.084 -15.587 -22.263  0.00  0.00    +0.144 HD
ENDBRANCH   9  12
ENDBRANCH   3   9
TORSDOF 2
ENDMDL
