MODEL 1
REMARK VINA RESULT:      -8.1      0.000      0.000
REMARK  Name = 11984561
REMARK  9 active torsions:
REMARK  status: ('A' for Active; 'I' for Inactive)
REMARK    1  A    between atoms: P_1  and  N_3
REMARK    2  A    between atoms: P_1  and  N_8
REMARK    3  A    between atoms: P_1  and  O_13
REMARK    4  A    between atoms: N_3  and  C_5
REMARK    5  A    between atoms: C_5  and  C_7
REMARK    6  A    between atoms: N_8  and  C_10
REMARK    7  A    between atoms: C_10  and  C_12
REMARK    8  A    between atoms: O_13  and  C_14
REMARK    9  A    between atoms: C_14  and  C_20
REMARK                            x       y       z     vdW  Elec       q    Type
REMARK                         _______ _______ _______ _____ _____    ______ ____
ROOT
ATOM      1  P   UNL     1      34.078 -15.727 -21.420  0.00  0.00    +0.345 P 
ATOM      2  O   UNL     1      34.914 -15.449 -20.193  0.00  0.00    -0.254 OA
ENDROOT
BRANCH   1   3
ATOM      3  N   UNL     1      32.639 -14.890 -21.472  0.00  0.00    -0.222 NA
ATOM      4  H   UNL     1      31.922 -15.501 -21.080  0.00  0.00    +0.133 HD
BRANCH   3   5
ATOM      5  C   UNL     1      32.542 -13.615 -20.776  0.00  0.00    +0.090 C 
BRANCH   5   7
ATOM      6 BR   UNL     1      31.069 -11.191 -20.598  0.00  0.00    -0.079 Br
ATOM      7  C   UNL     1      31.905 -12.578 -21.680  0.00  0.00    +0.085 C 
ENDBRANCH   5   7
ENDBRANCH   3   5
ENDBRANCH   1   3
BRANCH   1   8
ATOM      8  N   UNL     1      34.863 -15.426 -22.858  0.00  0.00    -0.222 NA
ATOM      9  H   UNL     1      35.049 -16.330 -23.292  0.00  0.00    +0.133 HD
BRANCH   8  10
ATOM     10  C   UNL     1      34.212 -14.598 -23.864  0.00  0.00    +0.090 C 
BRANCH  10  12
ATOM     11 BR   UNL     1      34.676 -17.133 -25.068  0.00  0.00    -0.079 Br
ATOM     12  C   UNL     1      33.660 -15.472 -24.974  0.00  0.00    +0.085 C 
ENDBRANCH  10  12
ENDBRANCH   8  10
ENDBRANCH   1   8
BRANCH   1  13
ATOM     13  O   UNL     1      33.685 -17.311 -21.458  0.00  0.00    -0.286 OA
BRANCH  13  14
ATOM     14  C   UNL     1      34.696 -18.306 -21.474  0.00  0.00    +0.194 C 
BRANCH  14  20
ATOM     15  O   UNL     1      33.775 -23.598 -19.019  0.00  0.00    -0.123 OA
ATOM     16  O   UNL     1      35.520 -22.493 -18.265  0.00  0.00    -0.123 OA
ATOM     17  N   UNL     1      34.899 -20.458 -20.170  0.00  0.00    -0.252 N 
ATOM     18  N   UNL     1      32.795 -21.127 -19.928  0.00  0.00    -0.207 NA
ATOM     19  N   UNL     1      34.464 -22.541 -18.958  0.00  0.00    +0.091 N 
ATOM     20  C   UNL     1      34.131 -19.514 -20.793  0.00  0.00    +0.081 C 
ATOM     21  C   UNL     1      32.837 -19.950 -20.631  0.00  0.00    +0.115 C 
ATOM     22  C   UNL     1      34.052 -21.407 -19.666  0.00  0.00    +0.284 C 
ATOM     23  C   UNL     1      36.341 -20.450 -20.066  0.00  0.00    +0.120 C 
ENDBRANCH  14  20
ENDBRANCH  13  14
ENDBRANCH   1  13
TORSDOF 9
ENDMDL
MODEL 2
REMARK VINA RESULT:      -8.0     10.049     11.346
REMARK  Name = 11984561
REMARK  9 active torsions:
REMARK  status: ('A' for Active; 'I' for Inactive)
REMARK    1  A    between atoms: P_1  and  N_3
REMARK    2  A    between atoms: P_1  and  N_8
REMARK    3  A    between atoms: P_1  and  O_13
REMARK    4  A    between atoms: N_3  and  C_5
REMARK    5  A    between atoms: C_5  and  C_7
REMARK    6  A    between atoms: N_8  and  C_10
REMARK    7  A    between atoms: C_10  and  C_12
REMARK    8  A    between atoms: O_13  and  C_14
REMARK    9  A    between atoms: C_14  and  C_20
REMARK                            x       y       z     vdW  Elec       q    Type
REMARK                         _______ _______ _______ _____ _____    ______ ____
ROOT
ATOM      1  P   UNL     1      33.466 -24.138 -13.869  0.00  0.00    +0.345 P 
ATOM      2  O   UNL     1      32.992 -22.995 -14.735  0.00  0.00    -0.254 OA
ENDROOT
BRANCH   1   3
ATOM      3  N   UNL     1      34.297 -23.665 -12.505  0.00  0.00    -0.222 NA
ATOM      4  H   UNL     1      33.604 -23.337 -11.831  0.00  0.00    +0.133 HD
BRANCH   3   5
ATOM      5  C   UNL     1      35.133 -24.639 -11.819  0.00  0.00    +0.090 C 
BRANCH   5   7
ATOM      6 BR   UNL     1      37.478 -23.035 -11.917  0.00  0.00    -0.079 Br
ATOM      7  C   UNL     1      36.092 -23.929 -10.881  0.00  0.00    +0.085 C 
ENDBRANCH   5   7
ENDBRANCH   3   5
ENDBRANCH   1   3
BRANCH   1   8
ATOM      8  N   UNL     1      32.249 -25.158 -13.363  0.00  0.00    -0.222 NA
ATOM      9  H   UNL     1      32.393 -25.322 -12.366  0.00  0.00    +0.133 HD
BRANCH   8  10
ATOM     10  C   UNL     1      30.862 -24.747 -13.529  0.00  0.00    +0.090 C 
BRANCH  10  12
ATOM     11 BR   UNL     1      28.944 -24.166 -15.546  0.00  0.00    -0.079 Br
ATOM     12  C   UNL     1      30.290 -25.358 -14.793  0.00  0.00    +0.085 C 
ENDBRANCH  10  12
ENDBRANCH   8  10
ENDBRANCH   1   8
BRANCH   1  13
ATOM     13  O   UNL     1      34.493 -25.074 -14.726  0.00  0.00    -0.286 OA
BRANCH  13  14
ATOM     14  C   UNL     1      35.601 -24.501 -15.401  0.00  0.00    +0.194 C 
BRANCH  14  20
ATOM     15  O   UNL     1      41.032 -26.726 -14.745  0.00  0.00    -0.123 OA
ATOM     16  O   UNL     1      40.842 -24.565 -14.381  0.00  0.00    -0.123 OA
ATOM     17  N   UNL     1      38.087 -24.816 -15.090  0.00  0.00    -0.252 N 
ATOM     18  N   UNL     1      38.261 -26.888 -14.312  0.00  0.00    -0.207 NA
ATOM     19  N   UNL     1      40.317 -25.695 -14.593  0.00  0.00    +0.091 N 
ATOM     20  C   UNL     1      36.809 -25.296 -15.013  0.00  0.00    +0.081 C 
ATOM     21  C   UNL     1      36.943 -26.576 -14.531  0.00  0.00    +0.115 C 
ATOM     22  C   UNL     1      38.923 -25.807 -14.659  0.00  0.00    +0.284 C 
ATOM     23  C   UNL     1      38.475 -23.499 -15.544  0.00  0.00    +0.120 C 
ENDBRANCH  14  20
ENDBRANCH  13  14
ENDBRANCH   1  13
TORSDOF 9
ENDMDL
MODEL 3
REMARK VINA RESULT:      -7.8      6.181      8.847
REMARK  Name = 11984561
REMARK  9 active torsions:
REMARK  status: ('A' for Active; 'I' for Inactive)
REMARK    1  A    between atoms: P_1  and  N_3
REMARK    2  A    between atoms: P_1  and  N_8
REMARK    3  A    between atoms: P_1  and  O_13
REMARK    4  A    between atoms: N_3  and  C_5
REMARK    5  A    between atoms: C_5  and  C_7
REMARK    6  A    between atoms: N_8  and  C_10
REMARK    7  A    between atoms: C_10  and  C_12
REMARK    8  A    between atoms: O_13  and  C_14
REMARK    9  A    between atoms: C_14  and  C_20
REMARK                            x       y       z     vdW  Elec       q    Type
REMARK                         _______ _______ _______ _____ _____    ______ ____
ROOT
ATOM      1  P   UNL     1      33.778 -23.164 -18.137  0.00  0.00    +0.345 P 
ATOM      2  O   UNL     1      33.815 -24.174 -19.259  0.00  0.00    -0.254 OA
ENDROOT
BRANCH   1   3
ATOM      3  N   UNL     1      34.689 -21.797 -18.416  0.00  0.00    -0.222 NA
ATOM      4  H   UNL     1      35.304 -21.677 -17.611  0.00  0.00    +0.133 HD
BRANCH   3   5
ATOM      5  C   UNL     1      35.526 -21.743 -19.605  0.00  0.00    +0.090 C 
BRANCH   5   7
ATOM      6 BR   UNL     1      33.352 -20.171 -20.543  0.00  0.00    -0.079 Br
ATOM      7  C   UNL     1      35.271 -20.452 -20.360  0.00  0.00    +0.085 C 
ENDBRANCH   5   7
ENDBRANCH   3   5
ENDBRANCH   1   3
BRANCH   1   8
ATOM      8  N   UNL     1      32.246 -22.648 -17.737  0.00  0.00    -0.222 NA
ATOM      9  H   UNL     1      31.636 -22.890 -18.518  0.00  0.00    +0.133 HD
BRANCH   8  10
ATOM     10  C   UNL     1      31.613 -23.164 -16.531  0.00  0.00    +0.090 C 
BRANCH  10  12
ATOM     11 BR   UNL     1      29.162 -24.264 -15.601  0.00  0.00    -0.079 Br
ATOM     12  C   UNL     1      30.126 -22.868 -16.559  0.00  0.00    +0.085 C 
ENDBRANCH  10  12
ENDBRANCH   8  10
ENDBRANCH   1   8
BRANCH   1  13
ATOM     13  O   UNL     1      34.380 -23.843 -16.780  0.00  0.00    -0.286 OA
BRANCH  13  14
ATOM     14  C   UNL     1      35.202 -23.093 -15.899  0.00  0.00    +0.194 C 
BRANCH  14  20
ATOM     15  O   UNL     1      35.346 -25.314 -10.429  0.00  0.00    -0.123 OA
ATOM     16  O   UNL     1      36.887 -23.811 -10.883  0.00  0.00    -0.123 OA
ATOM     17  N   UNL     1      35.838 -23.724 -13.539  0.00  0.00    -0.252 N 
ATOM     18  N   UNL     1      33.902 -24.268 -12.599  0.00  0.00    -0.207 NA
ATOM     19  N   UNL     1      35.834 -24.436 -11.197  0.00  0.00    +0.091 N 
ATOM     20  C   UNL     1      34.890 -23.556 -14.510  0.00  0.00    +0.081 C 
ATOM     21  C   UNL     1      33.704 -23.899 -13.906  0.00  0.00    +0.115 C 
ATOM     22  C   UNL     1      35.197 -24.152 -12.410  0.00  0.00    +0.284 C 
ATOM     23  C   UNL     1      37.257 -23.489 -13.685  0.00  0.00    +0.120 C 
ENDBRANCH  14  20
ENDBRANCH  13  14
ENDBRANCH   1  13
TORSDOF 9
ENDMDL
MODEL 4
REMARK VINA RESULT:      -7.7      0.985      1.722
REMARK  Name = 11984561
REMARK  9 active torsions:
REMARK  status: ('A' for Active; 'I' for Inactive)
REMARK    1  A    between atoms: P_1  and  N_3
REMARK    2  A    between atoms: P_1  and  N_8
REMARK    3  A    between atoms: P_1  and  O_13
REMARK    4  A    between atoms: N_3  and  C_5
REMARK    5  A    between atoms: C_5  and  C_7
REMARK    6  A    between atoms: N_8  and  C_10
REMARK    7  A    between atoms: C_10  and  C_12
REMARK    8  A    between atoms: O_13  and  C_14
REMARK    9  A    between atoms: C_14  and  C_20
REMARK                            x       y       z     vdW  Elec       q    Type
REMARK                         _______ _______ _______ _____ _____    ______ ____
ROOT
ATOM      1  P   UNL     1      34.224 -15.584 -21.365  0.00  0.00    +0.345 P 
ATOM      2  O   UNL     1      35.020 -14.936 -20.257  0.00  0.00    -0.254 OA
ENDROOT
BRANCH   1   3
ATOM      3  N   UNL     1      32.688 -14.967 -21.555  0.00  0.00    -0.222 NA
ATOM      4  H   UNL     1      32.035 -15.693 -21.259  0.00  0.00    +0.133 HD
BRANCH   3   5
ATOM      5  C   UNL     1      32.327 -13.750 -20.843  0.00  0.00    +0.090 C 
BRANCH   5   7
ATOM      6 BR   UNL     1      31.054 -11.209 -20.905  0.00  0.00    -0.079 Br
ATOM      7  C   UNL     1      31.969 -12.658 -21.833  0.00  0.00    +0.085 C 
ENDBRANCH   5   7
ENDBRANCH   3   5
ENDBRANCH   1   3
BRANCH   1   8
ATOM      8  N   UNL     1      34.959 -15.516 -22.858  0.00  0.00    -0.222 NA
ATOM      9  H   UNL     1      35.077 -16.477 -23.178  0.00  0.00    +0.133 HD
BRANCH   8  10
ATOM     10  C   UNL     1      34.309 -14.787 -23.939  0.00  0.00    +0.090 C 
BRANCH  10  12
ATOM     11 BR   UNL     1      32.909 -14.778 -26.413  0.00  0.00    -0.079 Br
ATOM     12  C   UNL     1      33.821 -15.757 -24.997  0.00  0.00    +0.085 C 
ENDBRANCH  10  12
ENDBRANCH   8  10
ENDBRANCH   1   8
BRANCH   1  13
ATOM     13  O   UNL     1      34.040 -17.173 -21.039  0.00  0.00    -0.286 OA
BRANCH  13  14
ATOM     14  C   UNL     1      34.597 -18.156 -21.897  0.00  0.00    +0.194 C 
BRANCH  14  20
ATOM     15  O   UNL     1      35.282 -22.526 -17.984  0.00  0.00    -0.123 OA
ATOM     16  O   UNL     1      33.656 -22.802 -19.439  0.00  0.00    -0.123 OA
ATOM     17  N   UNL     1      34.316 -20.224 -20.476  0.00  0.00    -0.252 N 
ATOM     18  N   UNL     1      36.379 -20.676 -19.791  0.00  0.00    -0.207 NA
ATOM     19  N   UNL     1      34.669 -22.168 -19.030  0.00  0.00    +0.091 N 
ATOM     20  C   UNL     1      35.113 -19.257 -21.023  0.00  0.00    +0.081 C 
ATOM     21  C   UNL     1      36.381 -19.557 -20.585  0.00  0.00    +0.115 C 
ATOM     22  C   UNL     1      35.121 -21.053 -19.745  0.00  0.00    +0.284 C 
ATOM     23  C   UNL     1      32.885 -20.343 -20.645  0.00  0.00    +0.120 C 
ENDBRANCH  14  20
ENDBRANCH  13  14
ENDBRANCH   1  13
TORSDOF 9
ENDMDL
MODEL 5
REMARK VINA RESULT:      -7.7      9.411     11.039
REMARK  Name = 11984561
REMARK  9 active torsions:
REMARK  status: ('A' for Active; 'I' for Inactive)
REMARK    1  A    between atoms: P_1  and  N_3
REMARK    2  A    between atoms: P_1  and  N_8
REMARK    3  A    between atoms: P_1  and  O_13
REMARK    4  A    between atoms: N_3  and  C_5
REMARK    5  A    between atoms: C_5  and  C_7
REMARK    6  A    between atoms: N_8  and  C_10
REMARK    7  A    between atoms: C_10  and  C_12
REMARK    8  A    between atoms: O_13  and  C_14
REMARK    9  A    between atoms: C_14  and  C_20
REMARK                            x       y       z     vdW  Elec       q    Type
REMARK                         _______ _______ _______ _____ _____    ______ ____
ROOT
ATOM      1  P   UNL     1      33.443 -24.197 -13.765  0.00  0.00    +0.345 P 
ATOM      2  O   UNL     1      32.354 -25.099 -13.236  0.00  0.00    -0.254 OA
ENDROOT
BRANCH   1   3
ATOM      3  N   UNL     1      32.885 -22.872 -14.608  0.00  0.00    -0.222 NA
ATOM      4  H   UNL     1      33.243 -22.949 -15.560  0.00  0.00    +0.133 HD
BRANCH   3   5
ATOM      5  C   UNL     1      31.449 -22.657 -14.707  0.00  0.00    +0.090 C 
BRANCH   5   7
ATOM      6 BR   UNL     1      29.549 -24.500 -15.741  0.00  0.00    -0.079 Br
ATOM      7  C   UNL     1      30.939 -23.170 -16.040  0.00  0.00    +0.085 C 
ENDBRANCH   5   7
ENDBRANCH   3   5
ENDBRANCH   1   3
BRANCH   1   8
ATOM      8  N   UNL     1      34.478 -23.622 -12.593  0.00  0.00    -0.222 NA
ATOM      9  H   UNL     1      33.920 -23.053 -11.956  0.00  0.00    +0.133 HD
BRANCH   8  10
ATOM     10  C   UNL     1      35.223 -24.568 -11.775  0.00  0.00    +0.090 C 
BRANCH  10  12
ATOM     11 BR   UNL     1      37.842 -23.463 -11.770  0.00  0.00    -0.079 Br
ATOM     12  C   UNL     1      36.164 -23.823 -10.848  0.00  0.00    +0.085 C 
ENDBRANCH  10  12
ENDBRANCH   8  10
ENDBRANCH   1   8
BRANCH   1  13
ATOM     13  O   UNL     1      34.381 -25.036 -14.805  0.00  0.00    -0.286 OA
BRANCH  13  14
ATOM     14  C   UNL     1      35.504 -24.424 -15.420  0.00  0.00    +0.194 C 
BRANCH  14  20
ATOM     15  O   UNL     1      40.913 -26.713 -14.804  0.00  0.00    -0.123 OA
ATOM     16  O   UNL     1      40.744 -24.558 -14.400  0.00  0.00    -0.123 OA
ATOM     17  N   UNL     1      37.986 -24.769 -15.114  0.00  0.00    -0.252 N 
ATOM     18  N   UNL     1      38.141 -26.857 -14.375  0.00  0.00    -0.207 NA
ATOM     19  N   UNL     1      40.208 -25.679 -14.633  0.00  0.00    +0.091 N 
ATOM     20  C   UNL     1      36.704 -25.238 -15.046  0.00  0.00    +0.081 C 
ATOM     21  C   UNL     1      36.826 -26.529 -14.588  0.00  0.00    +0.115 C 
ATOM     22  C   UNL     1      38.813 -25.776 -14.701  0.00  0.00    +0.284 C 
ATOM     23  C   UNL     1      38.387 -23.448 -15.544  0.00  0.00    +0.120 C 
ENDBRANCH  14  20
ENDBRANCH  13  14
ENDBRANCH   1  13
TORSDOF 9
ENDMDL
MODEL 6
REMARK VINA RESULT:      -7.6      5.669      8.523
REMARK  Name = 11984561
REMARK  9 active torsions:
REMARK  status: ('A' for Active; 'I' for Inactive)
REMARK    1  A    between atoms: P_1  and  N_3
REMARK    2  A    between atoms: P_1  and  N_8
REMARK    3  A    between atoms: P_1  and  O_13
REMARK    4  A    between atoms: N_3  and  C_5
REMARK    5  A    between atoms: C_5  and  C_7
REMARK    6  A    between atoms: N_8  and  C_10
REMARK    7  A    between atoms: C_10  and  C_12
REMARK    8  A    between atoms: O_13  and  C_14
REMARK    9  A    between atoms: C_14  and  C_20
REMARK                            x       y       z     vdW  Elec       q    Type
REMARK                         _______ _______ _______ _____ _____    ______ ____
ROOT
ATOM      1  P   UNL     1      33.552 -23.132 -18.009  0.00  0.00    +0.345 P 
ATOM      2  O   UNL     1      33.736 -24.291 -18.960  0.00  0.00    -0.254 OA
ENDROOT
BRANCH   1   3
ATOM      3  N   UNL     1      33.022 -21.729 -18.734  0.00  0.00    -0.222 NA
ATOM      4  H   UNL     1      32.955 -21.020 -18.003  0.00  0.00    +0.133 HD
BRANCH   3   5
ATOM      5  C   UNL     1      33.810 -21.156 -19.815  0.00  0.00    +0.090 C 
BRANCH   5   7
ATOM      6 BR   UNL     1      34.218 -18.784 -21.327  0.00  0.00    -0.079 Br
ATOM      7  C   UNL     1      33.008 -20.086 -20.531  0.00  0.00    +0.085 C 
ENDBRANCH   5   7
ENDBRANCH   3   5
ENDBRANCH   1   3
BRANCH   1   8
ATOM      8  N   UNL     1      32.509 -23.446 -16.749  0.00  0.00    -0.222 NA
ATOM      9  H   UNL     1      33.008 -23.228 -15.886  0.00  0.00    +0.133 HD
BRANCH   8  10
ATOM     10  C   UNL     1      31.233 -22.746 -16.689  0.00  0.00    +0.090 C 
BRANCH  10  12
ATOM     11 BR   UNL     1      31.640 -23.196 -13.911  0.00  0.00    -0.079 Br
ATOM     12  C   UNL     1      30.459 -23.185 -15.461  0.00  0.00    +0.085 C 
ENDBRANCH  10  12
ENDBRANCH   8  10
ENDBRANCH   1   8
BRANCH   1  13
ATOM     13  O   UNL     1      34.984 -22.771 -17.313  0.00  0.00    -0.286 OA
BRANCH  13  14
ATOM     14  C   UNL     1      35.127 -22.791 -15.902  0.00  0.00    +0.194 C 
BRANCH  14  20
ATOM     15  O   UNL     1      39.689 -25.953 -13.883  0.00  0.00    -0.123 OA
ATOM     16  O   UNL     1      38.029 -27.119 -14.733  0.00  0.00    -0.123 OA
ATOM     17  N   UNL     1      36.661 -24.643 -15.134  0.00  0.00    -0.252 N 
ATOM     18  N   UNL     1      38.690 -23.762 -15.330  0.00  0.00    -0.207 NA
ATOM     19  N   UNL     1      38.597 -26.010 -14.516  0.00  0.00    +0.091 N 
ATOM     20  C   UNL     1      36.474 -23.375 -15.607  0.00  0.00    +0.081 C 
ATOM     21  C   UNL     1      37.740 -22.851 -15.719  0.00  0.00    +0.115 C 
ATOM     22  C   UNL     1      38.008 -24.830 -14.983  0.00  0.00    +0.284 C 
ATOM     23  C   UNL     1      35.622 -25.607 -14.848  0.00  0.00    +0.120 C 
ENDBRANCH  14  20
ENDBRANCH  13  14
ENDBRANCH   1  13
TORSDOF 9
ENDMDL
MODEL 7
REMARK VINA RESULT:      -7.5      8.191     10.129
REMARK  Name = 11984561
REMARK  9 active torsions:
REMARK  status: ('A' for Active; 'I' for Inactive)
REMARK    1  A    between atoms: P_1  and  N_3
REMARK    2  A    between atoms: P_1  and  N_8
REMARK    3  A    between atoms: P_1  and  O_13
REMARK    4  A    between atoms: N_3  and  C_5
REMARK    5  A    between atoms: C_5  and  C_7
REMARK    6  A    between atoms: N_8  and  C_10
REMARK    7  A    between atoms: C_10  and  C_12
REMARK    8  A    between atoms: O_13  and  C_14
REMARK    9  A    between atoms: C_14  and  C_20
REMARK                            x       y       z     vdW  Elec       q    Type
REMARK                         _______ _______ _______ _____ _____    ______ ____
ROOT
ATOM      1  P   UNL     1      32.763 -24.046 -14.228  0.00  0.00    +0.345 P 
ATOM      2  O   UNL     1      32.488 -23.239 -12.981  0.00  0.00    -0.254 OA
ENDROOT
BRANCH   1   3
ATOM      3  N   UNL     1      31.721 -25.324 -14.461  0.00  0.00    -0.222 NA
ATOM      4  H   UNL     1      32.045 -26.088 -13.866  0.00  0.00    +0.133 HD
BRANCH   3   5
ATOM      5  C   UNL     1      30.305 -25.135 -14.180  0.00  0.00    +0.090 C 
BRANCH   5   7
ATOM      6 BR   UNL     1      29.131 -23.007 -15.654  0.00  0.00    -0.079 Br
ATOM      7  C   UNL     1      29.547 -24.902 -15.473  0.00  0.00    +0.085 C 
ENDBRANCH   5   7
ENDBRANCH   3   5
ENDBRANCH   1   3
BRANCH   1   8
ATOM      8  N   UNL     1      32.749 -23.150 -15.633  0.00  0.00    -0.222 NA
ATOM      9  H   UNL     1      32.768 -22.167 -15.361  0.00  0.00    +0.133 HD
BRANCH   8  10
ATOM     10  C   UNL     1      33.812 -23.341 -16.609  0.00  0.00    +0.090 C 
BRANCH  10  12
ATOM     11 BR   UNL     1      34.757 -22.074 -18.973  0.00  0.00    -0.079 Br
ATOM     12  C   UNL     1      33.322 -22.953 -17.991  0.00  0.00    +0.085 C 
ENDBRANCH  10  12
ENDBRANCH   8  10
ENDBRANCH   1   8
BRANCH   1  13
ATOM     13  O   UNL     1      34.261 -24.690 -14.134  0.00  0.00    -0.286 OA
BRANCH  13  14
ATOM     14  C   UNL     1      35.205 -24.192 -13.201  0.00  0.00    +0.194 C 
BRANCH  14  20
ATOM     15  O   UNL     1      40.819 -24.939 -14.873  0.00  0.00    -0.123 OA
ATOM     16  O   UNL     1      39.674 -26.787 -14.544  0.00  0.00    -0.123 OA
ATOM     17  N   UNL     1      37.477 -25.137 -13.760  0.00  0.00    -0.252 N 
ATOM     18  N   UNL     1      38.346 -23.635 -15.145  0.00  0.00    -0.207 NA
ATOM     19  N   UNL     1      39.724 -25.529 -14.653  0.00  0.00    +0.091 N 
ATOM     20  C   UNL     1      36.531 -24.160 -13.894  0.00  0.00    +0.081 C 
ATOM     21  C   UNL     1      37.091 -23.244 -14.753  0.00  0.00    +0.115 C 
ATOM     22  C   UNL     1      38.549 -24.778 -14.530  0.00  0.00    +0.284 C 
ATOM     23  C   UNL     1      37.360 -26.331 -12.952  0.00  0.00    +0.120 C 
ENDBRANCH  14  20
ENDBRANCH  13  14
ENDBRANCH   1  13
TORSDOF 9
ENDMDL
MODEL 8
REMARK VINA RESULT:      -7.5      7.361      9.798
REMARK  Name = 11984561
REMARK  9 active torsions:
REMARK  status: ('A' for Active; 'I' for Inactive)
REMARK    1  A    between atoms: P_1  and  N_3
REMARK    2  A    between atoms: P_1  and  N_8
REMARK    3  A    between atoms: P_1  and  O_13
REMARK    4  A    between atoms: N_3  and  C_5
REMARK    5  A    between atoms: C_5  and  C_7
REMARK    6  A    between atoms: N_8  and  C_10
REMARK    7  A    between atoms: C_10  and  C_12
REMARK    8  A    between atoms: O_13  and  C_14
REMARK    9  A    between atoms: C_14  and  C_20
REMARK                            x       y       z     vdW  Elec       q    Type
REMARK                         _______ _______ _______ _____ _____    ______ ____
ROOT
ATOM      1  P   UNL     1      36.567 -23.789 -15.318  0.00  0.00    +0.345 P 
ATOM      2  O   UNL     1      36.496 -23.084 -13.985  0.00  0.00    -0.254 OA
ENDROOT
BRANCH   1   3
ATOM      3  N   UNL     1      37.311 -22.908 -16.520  0.00  0.00    -0.222 NA
ATOM      4  H   UNL     1      37.417 -23.527 -17.325  0.00  0.00    +0.133 HD
BRANCH   3   5
ATOM      5  C   UNL     1      36.670 -21.692 -16.998  0.00  0.00    +0.090 C 
BRANCH   5   7
ATOM      6 BR   UNL     1      36.590 -20.896 -19.726  0.00  0.00    -0.079 Br
ATOM      7  C   UNL     1      35.891 -21.981 -18.268  0.00  0.00    +0.085 C 
ENDBRANCH   5   7
ENDBRANCH   3   5
ENDBRANCH   1   3
BRANCH   1   8
ATOM      8  N   UNL     1      37.331 -25.269 -15.263  0.00  0.00    -0.222 NA
ATOM      9  H   UNL     1      38.282 -25.127 -15.604  0.00  0.00    +0.133 HD
BRANCH   8  10
ATOM     10  C   UNL     1      37.436 -25.969 -13.991  0.00  0.00    +0.090 C 
BRANCH  10  12
ATOM     11 BR   UNL     1      40.208 -25.675 -14.551  0.00  0.00    -0.079 Br
ATOM     12  C   UNL     1      38.725 -25.580 -13.292  0.00  0.00    +0.085 C 
ENDBRANCH  10  12
ENDBRANCH   8  10
ENDBRANCH   1   8
BRANCH   1  13
ATOM     13  O   UNL     1      35.054 -24.097 -15.849  0.00  0.00    -0.286 OA
BRANCH  13  14
ATOM     14  C   UNL     1      33.940 -23.943 -14.984  0.00  0.00    +0.194 C 
BRANCH  14  20
ATOM     15  O   UNL     1      28.661 -22.630 -17.284  0.00  0.00    -0.123 OA
ATOM     16  O   UNL     1      28.947 -22.061 -15.178  0.00  0.00    -0.123 OA
ATOM     17  N   UNL     1      31.538 -23.252 -15.339  0.00  0.00    -0.252 N 
ATOM     18  N   UNL     1      31.462 -22.695 -17.487  0.00  0.00    -0.207 NA
ATOM     19  N   UNL     1      29.409 -22.486 -16.275  0.00  0.00    +0.091 N 
ATOM     20  C   UNL     1      32.802 -23.448 -15.822  0.00  0.00    +0.081 C 
ATOM     21  C   UNL     1      32.730 -23.098 -17.149  0.00  0.00    +0.115 C 
ATOM     22  C   UNL     1      30.770 -22.800 -16.376  0.00  0.00    +0.284 C 
ATOM     23  C   UNL     1      31.101 -23.482 -13.980  0.00  0.00    +0.120 C 
ENDBRANCH  14  20
ENDBRANCH  13  14
ENDBRANCH   1  13
TORSDOF 9
ENDMDL
MODEL 9
REMARK VINA RESULT:      -7.4      6.484      9.252
REMARK  Name = 11984561
REMARK  9 active torsions:
REMARK  status: ('A' for Active; 'I' for Inactive)
REMARK    1  A    between atoms: P_1  and  N_3
REMARK    2  A    between atoms: P_1  and  N_8
REMARK    3  A    between atoms: P_1  and  O_13
REMARK    4  A    between atoms: N_3  and  C_5
REMARK    5  A    between atoms: C_5  and  C_7
REMARK    6  A    between atoms: N_8  and  C_10
REMARK    7  A    between atoms: C_10  and  C_12
REMARK    8  A    between atoms: O_13  and  C_14
REMARK    9  A    between atoms: C_14  and  C_20
REMARK                            x       y       z     vdW  Elec       q    Type
REMARK                         _______ _______ _______ _____ _____    ______ ____
ROOT
ATOM      1  P   UNL     1      33.929 -23.300 -16.369  0.00  0.00    +0.345 P 
ATOM      2  O   UNL     1      34.005 -22.493 -15.095  0.00  0.00    -0.254 OA
ENDROOT
BRANCH   1   3
ATOM      3  N   UNL     1      32.378 -23.660 -16.860  0.00  0.00    -0.222 NA
ATOM      4  H   UNL     1      32.286 -24.676 -16.842  0.00  0.00    +0.133 HD
BRANCH   3   5
ATOM      5  C   UNL     1      31.259 -23.116 -16.105  0.00  0.00    +0.090 C 
BRANCH   5   7
ATOM      6 BR   UNL     1      31.193 -24.973 -13.953  0.00  0.00    -0.079 Br
ATOM      7  C   UNL     1      30.395 -24.245 -15.574  0.00  0.00    +0.085 C 
ENDBRANCH   5   7
ENDBRANCH   3   5
ENDBRANCH   1   3
BRANCH   1   8
ATOM      8  N   UNL     1      34.692 -22.590 -17.669  0.00  0.00    -0.222 NA
ATOM      9  H   UNL     1      35.546 -23.121 -17.841  0.00  0.00    +0.133 HD
BRANCH   8  10
ATOM     10  C   UNL     1      33.990 -22.494 -18.941  0.00  0.00    +0.090 C 
BRANCH  10  12
ATOM     11 BR   UNL     1      33.038 -20.264 -20.427  0.00  0.00    -0.079 Br
ATOM     12  C   UNL     1      34.524 -21.320 -19.740  0.00  0.00    +0.085 C 
ENDBRANCH  10  12
ENDBRANCH   8  10
ENDBRANCH   1   8
BRANCH   1  13
ATOM     13  O   UNL     1      34.681 -24.731 -16.148  0.00  0.00    -0.286 OA
BRANCH  13  14
ATOM     14  C   UNL     1      35.273 -25.051 -14.899  0.00  0.00    +0.194 C 
BRANCH  14  20
ATOM     15  O   UNL     1      41.148 -24.773 -14.370  0.00  0.00    -0.123 OA
ATOM     16  O   UNL     1      40.334 -26.755 -14.864  0.00  0.00    -0.123 OA
ATOM     17  N   UNL     1      37.732 -25.587 -14.700  0.00  0.00    -0.252 N 
ATOM     18  N   UNL     1      38.732 -23.708 -15.331  0.00  0.00    -0.207 NA
ATOM     19  N   UNL     1      40.179 -25.510 -14.708  0.00  0.00    +0.091 N 
ATOM     20  C   UNL     1      36.727 -24.711 -15.005  0.00  0.00    +0.081 C 
ATOM     21  C   UNL     1      37.370 -23.559 -15.391  0.00  0.00    +0.115 C 
ATOM     22  C   UNL     1      38.917 -24.940 -14.912  0.00  0.00    +0.284 C 
ATOM     23  C   UNL     1      37.565 -26.948 -14.240  0.00  0.00    +0.120 C 
ENDBRANCH  14  20
ENDBRANCH  13  14
ENDBRANCH   1  13
TORSDOF 9
ENDMDL
