MODEL 1
REMARK VINA RESULT:      -8.4      0.000      0.000
REMARK  Name = 5587
REMARK  5 active torsions:
REMARK  status: ('A' for Active; 'I' for Inactive)
REMARK    1  A    between atoms: N_1  and  C_8
REMARK    2  A    between atoms: N_1  and  C_14
REMARK    3  A    between atoms: C_8  and  C_9
REMARK    4  A    between atoms: C_9  and  N_10
REMARK    5  A    between atoms: C_14  and  C_15
REMARK                            x       y       z     vdW  Elec       q    Type
REMARK                         _______ _______ _______ _____ _____    ______ ____
ROOT
ATOM      1  N   UNL     1      33.562 -23.121 -16.660  0.00  0.00    -0.291 N 
ATOM      2  N   UNL     1      31.214 -22.815 -16.918  0.00  0.00    -0.229 NA
ATOM      3  C   UNL     1      32.273 -23.087 -16.111  0.00  0.00    +0.132 C 
ATOM      4  C   UNL     1      32.142 -23.336 -14.748  0.00  0.00    +0.034 C 
ATOM      5  C   UNL     1      30.869 -23.305 -14.189  0.00  0.00    +0.004 C 
ATOM      6  C   UNL     1      29.993 -22.794 -16.340  0.00  0.00    +0.100 C 
ATOM      7  C   UNL     1      29.769 -23.031 -14.993  0.00  0.00    +0.021 C 
ENDROOT
BRANCH   1   8
ATOM      8  C   UNL     1      34.722 -22.755 -15.881  0.00  0.00    +0.070 C 
BRANCH   8   9
ATOM      9  C   UNL     1      35.534 -24.001 -15.554  0.00  0.00    -0.056 C 
BRANCH   9  10
ATOM     10  N   UNL     1      36.959 -23.749 -15.762  0.00  0.00    +0.385 N 
ATOM     11  C   UNL     1      37.744 -24.311 -14.662  0.00  0.00    -0.101 C 
ATOM     12  C   UNL     1      37.212 -22.314 -15.891  0.00  0.00    -0.101 C 
ATOM     13  H   UNL     1      37.245 -24.206 -16.629  0.00  0.00    -0.080 HD
ENDBRANCH   9  10
ENDBRANCH   8   9
ENDBRANCH   1   8
BRANCH   1  14
ATOM     14  C   UNL     1      33.754 -23.522 -18.055  0.00  0.00    +0.119 C 
BRANCH  14  15
ATOM     15  C   UNL     1      34.100 -22.329 -18.903  0.00  0.00    -0.002 C 
ATOM     16  C   UNL     1      33.082 -21.536 -19.416  0.00  0.00    -0.003 C 
ATOM     17  C   UNL     1      35.432 -22.037 -19.163  0.00  0.00    -0.003 C 
ATOM     18  C   UNL     1      33.402 -20.429 -20.203  0.00  0.00    -0.000 C 
ATOM     19  C   UNL     1      35.752 -20.930 -19.951  0.00  0.00    -0.000 C 
ATOM     20  C   UNL     1      34.737 -20.126 -20.470  0.00  0.00    -0.000 C 
ENDBRANCH  14  15
ENDBRANCH   1  14
TORSDOF 5
ENDMDL
MODEL 2
REMARK VINA RESULT:      -8.0     13.043     15.588
REMARK  Name = 5587
REMARK  5 active torsions:
REMARK  status: ('A' for Active; 'I' for Inactive)
REMARK    1  A    between atoms: N_1  and  C_8
REMARK    2  A    between atoms: N_1  and  C_14
REMARK    3  A    between atoms: C_8  and  C_9
REMARK    4  A    between atoms: C_9  and  N_10
REMARK    5  A    between atoms: C_14  and  C_15
REMARK                            x       y       z     vdW  Elec       q    Type
REMARK                         _______ _______ _______ _____ _____    ______ ____
ROOT
ATOM      1  N   UNL     1      32.998  -8.947 -22.579  0.00  0.00    -0.291 N 
ATOM      2  N   UNL     1      32.557  -9.237 -20.256  0.00  0.00    -0.229 NA
ATOM      3  C   UNL     1      32.269  -9.552 -21.546  0.00  0.00    +0.132 C 
ATOM      4  C   UNL     1      31.272 -10.457 -21.900  0.00  0.00    +0.034 C 
ATOM      5  C   UNL     1      30.540 -11.066 -20.886  0.00  0.00    +0.004 C 
ATOM      6  C   UNL     1      31.825  -9.847 -19.298  0.00  0.00    +0.100 C 
ATOM      7  C   UNL     1      30.815 -10.760 -19.558  0.00  0.00    +0.021 C 
ENDROOT
BRANCH   1   8
ATOM      8  C   UNL     1      33.240  -9.629 -23.829  0.00  0.00    +0.070 C 
BRANCH   8   9
ATOM      9  C   UNL     1      34.724  -9.566 -24.167  0.00  0.00    -0.056 C 
BRANCH   9  10
ATOM     10  N   UNL     1      35.123 -10.748 -24.930  0.00  0.00    +0.385 N 
ATOM     11  C   UNL     1      35.639 -10.358 -26.243  0.00  0.00    -0.101 C 
ATOM     12  C   UNL     1      33.996 -11.668 -25.075  0.00  0.00    -0.101 C 
ATOM     13  H   UNL     1      35.867 -11.226 -24.420  0.00  0.00    -0.080 HD
ENDBRANCH   9  10
ENDBRANCH   8   9
ENDBRANCH   1   8
BRANCH   1  14
ATOM     14  C   UNL     1      33.544  -7.601 -22.399  0.00  0.00    +0.119 C 
BRANCH  14  15
ATOM     15  C   UNL     1      32.679  -6.584 -23.092  0.00  0.00    -0.002 C 
ATOM     16  C   UNL     1      32.939  -6.251 -24.415  0.00  0.00    -0.003 C 
ATOM     17  C   UNL     1      31.632  -5.991 -22.400  0.00  0.00    -0.003 C 
ATOM     18  C   UNL     1      32.137  -5.308 -25.057  0.00  0.00    -0.000 C 
ATOM     19  C   UNL     1      30.829  -5.046 -23.042  0.00  0.00    -0.000 C 
ATOM     20  C   UNL     1      31.082  -4.706 -24.371  0.00  0.00    -0.000 C 
ENDBRANCH  14  15
ENDBRANCH   1  14
TORSDOF 5
ENDMDL
MODEL 3
REMARK VINA RESULT:      -7.4      1.241      4.342
REMARK  Name = 5587
REMARK  5 active torsions:
REMARK  status: ('A' for Active; 'I' for Inactive)
REMARK    1  A    between atoms: N_1  and  C_8
REMARK    2  A    between atoms: N_1  and  C_14
REMARK    3  A    between atoms: C_8  and  C_9
REMARK    4  A    between atoms: C_9  and  N_10
REMARK    5  A    between atoms: C_14  and  C_15
REMARK                            x       y       z     vdW  Elec       q    Type
REMARK                         _______ _______ _______ _____ _____    ______ ____
ROOT
ATOM      1  N   UNL     1      33.707 -23.398 -16.131  0.00  0.00    -0.291 N 
ATOM      2  N   UNL     1      35.514 -24.916 -15.811  0.00  0.00    -0.229 NA
ATOM      3  C   UNL     1      34.865 -23.781 -15.442  0.00  0.00    +0.132 C 
ATOM      4  C   UNL     1      35.299 -22.966 -14.399  0.00  0.00    +0.034 C 
ATOM      5  C   UNL     1      36.447 -23.334 -13.705  0.00  0.00    +0.004 C 
ATOM      6  C   UNL     1      36.626 -25.241 -15.115  0.00  0.00    +0.100 C 
ATOM      7  C   UNL     1      37.129 -24.491 -14.064  0.00  0.00    +0.021 C 
ENDROOT
BRANCH   1   8
ATOM      8  C   UNL     1      32.647 -22.670 -15.475  0.00  0.00    +0.070 C 
BRANCH   8   9
ATOM      9  C   UNL     1      31.298 -23.250 -15.882  0.00  0.00    -0.056 C 
BRANCH   9  10
ATOM     10  N   UNL     1      30.964 -24.399 -15.044  0.00  0.00    +0.385 N 
ATOM     11  C   UNL     1      29.667 -24.955 -15.433  0.00  0.00    -0.101 C 
ATOM     12  C   UNL     1      30.954 -24.017 -13.632  0.00  0.00    -0.101 C 
ATOM     13  H   UNL     1      31.676 -25.117 -15.179  0.00  0.00    -0.080 HD
ENDBRANCH   9  10
ENDBRANCH   8   9
ENDBRANCH   1   8
BRANCH   1  14
ATOM     14  C   UNL     1      33.546 -23.747 -17.544  0.00  0.00    +0.119 C 
BRANCH  14  15
ATOM     15  C   UNL     1      33.988 -22.609 -18.422  0.00  0.00    -0.002 C 
ATOM     16  C   UNL     1      33.040 -21.882 -19.129  0.00  0.00    -0.003 C 
ATOM     17  C   UNL     1      35.339 -22.301 -18.515  0.00  0.00    -0.003 C 
ATOM     18  C   UNL     1      33.450 -20.826 -19.944  0.00  0.00    -0.000 C 
ATOM     19  C   UNL     1      35.749 -21.245 -19.330  0.00  0.00    -0.000 C 
ATOM     20  C   UNL     1      34.804 -20.508 -20.044  0.00  0.00    -0.000 C 
ENDBRANCH  14  15
ENDBRANCH   1  14
TORSDOF 5
ENDMDL
MODEL 4
REMARK VINA RESULT:      -7.3      1.729      5.407
REMARK  Name = 5587
REMARK  5 active torsions:
REMARK  status: ('A' for Active; 'I' for Inactive)
REMARK    1  A    between atoms: N_1  and  C_8
REMARK    2  A    between atoms: N_1  and  C_14
REMARK    3  A    between atoms: C_8  and  C_9
REMARK    4  A    between atoms: C_9  and  N_10
REMARK    5  A    between atoms: C_14  and  C_15
REMARK                            x       y       z     vdW  Elec       q    Type
REMARK                         _______ _______ _______ _____ _____    ______ ____
ROOT
ATOM      1  N   UNL     1      36.022 -23.959 -15.001  0.00  0.00    -0.291 N 
ATOM      2  N   UNL     1      38.383 -23.954 -15.318  0.00  0.00    -0.229 NA
ATOM      3  C   UNL     1      37.286 -24.501 -14.732  0.00  0.00    +0.132 C 
ATOM      4  C   UNL     1      37.355 -25.588 -13.865  0.00  0.00    +0.034 C 
ATOM      5  C   UNL     1      38.602 -26.137 -13.589  0.00  0.00    +0.004 C 
ATOM      6  C   UNL     1      39.578 -24.513 -15.026  0.00  0.00    +0.100 C 
ATOM      7  C   UNL     1      39.740 -25.595 -14.175  0.00  0.00    +0.021 C 
ENDROOT
BRANCH   1   8
ATOM      8  C   UNL     1      34.834 -24.780 -14.993  0.00  0.00    +0.070 C 
BRANCH   8   9
ATOM      9  C   UNL     1      33.842 -24.236 -13.974  0.00  0.00    -0.056 C 
BRANCH   9  10
ATOM     10  N   UNL     1      32.488 -24.244 -14.526  0.00  0.00    +0.385 N 
ATOM     11  C   UNL     1      31.949 -22.885 -14.575  0.00  0.00    -0.101 C 
ATOM     12  C   UNL     1      31.618 -25.112 -13.733  0.00  0.00    -0.101 C 
ATOM     13  H   UNL     1      32.529 -24.610 -15.477  0.00  0.00    -0.080 HD
ENDBRANCH   9  10
ENDBRANCH   8   9
ENDBRANCH   1   8
BRANCH   1  14
ATOM     14  C   UNL     1      35.887 -22.535 -15.311  0.00  0.00    +0.119 C 
BRANCH  14  15
ATOM     15  C   UNL     1      35.675 -22.335 -16.786  0.00  0.00    -0.002 C 
ATOM     16  C   UNL     1      34.471 -22.720 -17.363  0.00  0.00    -0.003 C 
ATOM     17  C   UNL     1      36.684 -21.770 -17.553  0.00  0.00    -0.003 C 
ATOM     18  C   UNL     1      34.274 -22.535 -18.732  0.00  0.00    -0.000 C 
ATOM     19  C   UNL     1      36.487 -21.585 -18.923  0.00  0.00    -0.000 C 
ATOM     20  C   UNL     1      35.282 -21.967 -19.511  0.00  0.00    -0.000 C 
ENDBRANCH  14  15
ENDBRANCH   1  14
TORSDOF 5
ENDMDL
MODEL 5
REMARK VINA RESULT:      -7.3      4.514      7.932
REMARK  Name = 5587
REMARK  5 active torsions:
REMARK  status: ('A' for Active; 'I' for Inactive)
REMARK    1  A    between atoms: N_1  and  C_8
REMARK    2  A    between atoms: N_1  and  C_14
REMARK    3  A    between atoms: C_8  and  C_9
REMARK    4  A    between atoms: C_9  and  N_10
REMARK    5  A    between atoms: C_14  and  C_15
REMARK                            x       y       z     vdW  Elec       q    Type
REMARK                         _______ _______ _______ _____ _____    ______ ____
ROOT
ATOM      1  N   UNL     1      34.445 -18.310 -21.657  0.00  0.00    -0.291 N 
ATOM      2  N   UNL     1      32.608 -16.882 -21.148  0.00  0.00    -0.229 NA
ATOM      3  C   UNL     1      33.951 -17.075 -21.218  0.00  0.00    +0.132 C 
ATOM      4  C   UNL     1      34.876 -16.094 -20.870  0.00  0.00    +0.034 C 
ATOM      5  C   UNL     1      34.402 -14.862 -20.432  0.00  0.00    +0.004 C 
ATOM      6  C   UNL     1      32.184 -15.673 -20.717  0.00  0.00    +0.100 C 
ATOM      7  C   UNL     1      33.032 -14.640 -20.351  0.00  0.00    +0.021 C 
ENDROOT
BRANCH   1   8
ATOM      8  C   UNL     1      35.701 -18.412 -22.362  0.00  0.00    +0.070 C 
BRANCH   8   9
ATOM      9  C   UNL     1      35.448 -18.830 -23.804  0.00  0.00    -0.056 C 
BRANCH   9  10
ATOM     10  N   UNL     1      34.389 -18.011 -24.393  0.00  0.00    +0.385 N 
ATOM     11  C   UNL     1      33.702 -18.750 -25.453  0.00  0.00    -0.101 C 
ATOM     12  C   UNL     1      34.940 -16.761 -24.915  0.00  0.00    -0.101 C 
ATOM     13  H   UNL     1      33.711 -17.787 -23.665  0.00  0.00    -0.080 HD
ENDBRANCH   9  10
ENDBRANCH   8   9
ENDBRANCH   1   8
BRANCH   1  14
ATOM     14  C   UNL     1      33.676 -19.533 -21.418  0.00  0.00    +0.119 C 
BRANCH  14  15
ATOM     15  C   UNL     1      34.381 -20.412 -20.423  0.00  0.00    -0.002 C 
ATOM     16  C   UNL     1      35.765 -20.353 -20.316  0.00  0.00    -0.003 C 
ATOM     17  C   UNL     1      33.640 -21.273 -19.624  0.00  0.00    -0.003 C 
ATOM     18  C   UNL     1      36.419 -21.169 -19.392  0.00  0.00    -0.000 C 
ATOM     19  C   UNL     1      34.294 -22.090 -18.700  0.00  0.00    -0.000 C 
ATOM     20  C   UNL     1      35.683 -22.037 -18.585  0.00  0.00    -0.000 C 
ENDBRANCH  14  15
ENDBRANCH   1  14
TORSDOF 5
ENDMDL
MODEL 6
REMARK VINA RESULT:      -7.2     11.224     14.336
REMARK  Name = 5587
REMARK  5 active torsions:
REMARK  status: ('A' for Active; 'I' for Inactive)
REMARK    1  A    between atoms: N_1  and  C_8
REMARK    2  A    between atoms: N_1  and  C_14
REMARK    3  A    between atoms: C_8  and  C_9
REMARK    4  A    between atoms: C_9  and  N_10
REMARK    5  A    between atoms: C_14  and  C_15
REMARK                            x       y       z     vdW  Elec       q    Type
REMARK                         _______ _______ _______ _____ _____    ______ ____
ROOT
ATOM      1  N   UNL     1      32.876 -10.459 -23.540  0.00  0.00    -0.291 N 
ATOM      2  N   UNL     1      32.100  -8.260 -24.025  0.00  0.00    -0.229 NA
ATOM      3  C   UNL     1      33.136  -9.102 -23.772  0.00  0.00    +0.132 C 
ATOM      4  C   UNL     1      34.462  -8.679 -23.730  0.00  0.00    +0.034 C 
ATOM      5  C   UNL     1      34.736  -7.335 -23.958  0.00  0.00    +0.004 C 
ATOM      6  C   UNL     1      32.404  -6.961 -24.241  0.00  0.00    +0.100 C 
ATOM      7  C   UNL     1      33.693  -6.453 -24.219  0.00  0.00    +0.021 C 
ENDROOT
BRANCH   1   8
ATOM      8  C   UNL     1      33.830 -11.481 -23.903  0.00  0.00    +0.070 C 
BRANCH   8   9
ATOM      9  C   UNL     1      33.146 -12.842 -23.911  0.00  0.00    -0.056 C 
BRANCH   9  10
ATOM     10  N   UNL     1      34.109 -13.898 -23.605  0.00  0.00    +0.385 N 
ATOM     11  C   UNL     1      33.792 -15.112 -24.357  0.00  0.00    -0.101 C 
ATOM     12  C   UNL     1      34.125 -14.175 -22.169  0.00  0.00    -0.101 C 
ATOM     13  H   UNL     1      35.037 -13.579 -23.882  0.00  0.00    -0.080 HD
ENDBRANCH   9  10
ENDBRANCH   8   9
ENDBRANCH   1   8
BRANCH   1  14
ATOM     14  C   UNL     1      31.610 -10.869 -22.931  0.00  0.00    +0.119 C 
BRANCH  14  15
ATOM     15  C   UNL     1      31.663 -10.695 -21.438  0.00  0.00    -0.002 C 
ATOM     16  C   UNL     1      31.536 -11.807 -20.615  0.00  0.00    -0.003 C 
ATOM     17  C   UNL     1      31.836  -9.427 -20.902  0.00  0.00    -0.003 C 
ATOM     18  C   UNL     1      31.584 -11.646 -19.230  0.00  0.00    -0.000 C 
ATOM     19  C   UNL     1      31.885  -9.265 -19.516  0.00  0.00    -0.000 C 
ATOM     20  C   UNL     1      31.759 -10.375 -18.681  0.00  0.00    -0.000 C 
ENDBRANCH  14  15
ENDBRANCH   1  14
TORSDOF 5
ENDMDL
MODEL 7
REMARK VINA RESULT:      -7.2      2.154      6.176
REMARK  Name = 5587
REMARK  5 active torsions:
REMARK  status: ('A' for Active; 'I' for Inactive)
REMARK    1  A    between atoms: N_1  and  C_8
REMARK    2  A    between atoms: N_1  and  C_14
REMARK    3  A    between atoms: C_8  and  C_9
REMARK    4  A    between atoms: C_9  and  N_10
REMARK    5  A    between atoms: C_14  and  C_15
REMARK                            x       y       z     vdW  Elec       q    Type
REMARK                         _______ _______ _______ _____ _____    ______ ____
ROOT
ATOM      1  N   UNL     1      33.998 -23.839 -15.293  0.00  0.00    -0.291 N 
ATOM      2  N   UNL     1      35.376 -22.956 -17.024  0.00  0.00    -0.229 NA
ATOM      3  C   UNL     1      34.133 -23.217 -16.541  0.00  0.00    +0.132 C 
ATOM      4  C   UNL     1      32.969 -22.893 -17.233  0.00  0.00    +0.034 C 
ATOM      5  C   UNL     1      33.086 -22.275 -18.474  0.00  0.00    +0.004 C 
ATOM      6  C   UNL     1      35.451 -22.355 -18.232  0.00  0.00    +0.100 C 
ATOM      7  C   UNL     1      34.347 -21.998 -18.990  0.00  0.00    +0.021 C 
ENDROOT
BRANCH   1   8
ATOM      8  C   UNL     1      32.861 -23.579 -14.441  0.00  0.00    +0.070 C 
BRANCH   8   9
ATOM      9  C   UNL     1      32.050 -24.856 -14.265  0.00  0.00    -0.056 C 
BRANCH   9  10
ATOM     10  N   UNL     1      30.635 -24.540 -14.084  0.00  0.00    +0.385 N 
ATOM     11  C   UNL     1      29.800 -25.495 -14.814  0.00  0.00    -0.101 C 
ATOM     12  C   UNL     1      30.355 -23.174 -14.526  0.00  0.00    -0.101 C 
ATOM     13  H   UNL     1      30.412 -24.609 -13.091  0.00  0.00    -0.080 HD
ENDBRANCH   9  10
ENDBRANCH   8   9
ENDBRANCH   1   8
BRANCH   1  14
ATOM     14  C   UNL     1      35.030 -24.764 -14.820  0.00  0.00    +0.119 C 
BRANCH  14  15
ATOM     15  C   UNL     1      35.670 -24.242 -13.564  0.00  0.00    -0.002 C 
ATOM     16  C   UNL     1      36.721 -23.339 -13.655  0.00  0.00    -0.003 C 
ATOM     17  C   UNL     1      35.203 -24.670 -12.329  0.00  0.00    -0.003 C 
ATOM     18  C   UNL     1      37.315 -22.855 -12.489  0.00  0.00    -0.000 C 
ATOM     19  C   UNL     1      35.797 -24.187 -11.162  0.00  0.00    -0.000 C 
ATOM     20  C   UNL     1      36.853 -23.279 -11.243  0.00  0.00    -0.000 C 
ENDBRANCH  14  15
ENDBRANCH   1  14
TORSDOF 5
ENDMDL
MODEL 8
REMARK VINA RESULT:      -7.1      7.886     11.135
REMARK  Name = 5587
REMARK  5 active torsions:
REMARK  status: ('A' for Active; 'I' for Inactive)
REMARK    1  A    between atoms: N_1  and  C_8
REMARK    2  A    between atoms: N_1  and  C_14
REMARK    3  A    between atoms: C_8  and  C_9
REMARK    4  A    between atoms: C_9  and  N_10
REMARK    5  A    between atoms: C_14  and  C_15
REMARK                            x       y       z     vdW  Elec       q    Type
REMARK                         _______ _______ _______ _____ _____    ______ ____
ROOT
ATOM      1  N   UNL     1      33.173 -13.854 -22.509  0.00  0.00    -0.291 N 
ATOM      2  N   UNL     1      32.489 -12.927 -20.425  0.00  0.00    -0.229 NA
ATOM      3  C   UNL     1      32.425 -12.919 -21.782  0.00  0.00    +0.132 C 
ATOM      4  C   UNL     1      31.643 -12.016 -22.497  0.00  0.00    +0.034 C 
ATOM      5  C   UNL     1      30.895 -11.082 -21.789  0.00  0.00    +0.004 C 
ATOM      6  C   UNL     1      31.749 -12.005 -19.770  0.00  0.00    +0.100 C 
ATOM      7  C   UNL     1      30.943 -11.069 -20.400  0.00  0.00    +0.021 C 
ENDROOT
BRANCH   1   8
ATOM      8  C   UNL     1      32.718 -14.354 -23.785  0.00  0.00    +0.070 C 
BRANCH   8   9
ATOM      9  C   UNL     1      33.342 -13.536 -24.909  0.00  0.00    -0.056 C 
BRANCH   9  10
ATOM     10  N   UNL     1      32.839 -13.985 -26.206  0.00  0.00    +0.385 N 
ATOM     11  C   UNL     1      33.024 -15.429 -26.354  0.00  0.00    -0.101 C 
ATOM     12  C   UNL     1      33.510 -13.270 -27.291  0.00  0.00    -0.101 C 
ATOM     13  H   UNL     1      31.840 -13.781 -26.254  0.00  0.00    -0.080 HD
ENDBRANCH   9  10
ENDBRANCH   8   9
ENDBRANCH   1   8
BRANCH   1  14
ATOM     14  C   UNL     1      34.439 -14.356 -21.973  0.00  0.00    +0.119 C 
BRANCH  14  15
ATOM     15  C   UNL     1      34.525 -15.848 -22.133  0.00  0.00    -0.002 C 
ATOM     16  C   UNL     1      33.952 -16.674 -21.174  0.00  0.00    -0.003 C 
ATOM     17  C   UNL     1      35.176 -16.382 -23.237  0.00  0.00    -0.003 C 
ATOM     18  C   UNL     1      34.032 -18.059 -21.323  0.00  0.00    -0.000 C 
ATOM     19  C   UNL     1      35.256 -17.768 -23.386  0.00  0.00    -0.000 C 
ATOM     20  C   UNL     1      34.684 -18.606 -22.428  0.00  0.00    -0.000 C 
ENDBRANCH  14  15
ENDBRANCH   1  14
TORSDOF 5
ENDMDL
MODEL 9
REMARK VINA RESULT:      -7.1     13.351     16.356
REMARK  Name = 5587
REMARK  5 active torsions:
REMARK  status: ('A' for Active; 'I' for Inactive)
REMARK    1  A    between atoms: N_1  and  C_8
REMARK    2  A    between atoms: N_1  and  C_14
REMARK    3  A    between atoms: C_8  and  C_9
REMARK    4  A    between atoms: C_9  and  N_10
REMARK    5  A    between atoms: C_14  and  C_15
REMARK                            x       y       z     vdW  Elec       q    Type
REMARK                         _______ _______ _______ _____ _____    ______ ____
ROOT
ATOM      1  N   UNL     1      32.934  -7.664 -23.022  0.00  0.00    -0.291 N 
ATOM      2  N   UNL     1      31.538  -5.769 -22.660  0.00  0.00    -0.229 NA
ATOM      3  C   UNL     1      32.387  -6.454 -23.469  0.00  0.00    +0.132 C 
ATOM      4  C   UNL     1      32.746  -6.010 -24.739  0.00  0.00    +0.034 C 
ATOM      5  C   UNL     1      32.211  -4.811 -25.197  0.00  0.00    +0.004 C 
ATOM      6  C   UNL     1      31.038  -4.608 -23.137  0.00  0.00    +0.100 C 
ATOM      7  C   UNL     1      31.341  -4.090 -24.387  0.00  0.00    +0.021 C 
ENDROOT
BRANCH   1   8
ATOM      8  C   UNL     1      33.268  -8.726 -23.943  0.00  0.00    +0.070 C 
BRANCH   8   9
ATOM      9  C   UNL     1      34.780  -8.895 -24.003  0.00  0.00    -0.056 C 
BRANCH   9  10
ATOM     10  N   UNL     1      35.124 -10.244 -24.450  0.00  0.00    +0.385 N 
ATOM     11  C   UNL     1      35.618 -10.216 -25.827  0.00  0.00    -0.101 C 
ATOM     12  C   UNL     1      33.965 -11.130 -24.340  0.00  0.00    -0.101 C 
ATOM     13  H   UNL     1      35.865 -10.605 -23.848  0.00  0.00    -0.080 HD
ENDBRANCH   9  10
ENDBRANCH   8   9
ENDBRANCH   1   8
BRANCH   1  14
ATOM     14  C   UNL     1      33.166  -7.879 -21.593  0.00  0.00    +0.119 C 
BRANCH  14  15
ATOM     15  C   UNL     1      32.329  -9.022 -21.089  0.00  0.00    -0.002 C 
ATOM     16  C   UNL     1      32.222  -9.243 -19.722  0.00  0.00    -0.003 C 
ATOM     17  C   UNL     1      31.673  -9.843 -21.997  0.00  0.00    -0.003 C 
ATOM     18  C   UNL     1      31.446 -10.304 -19.255  0.00  0.00    -0.000 C 
ATOM     19  C   UNL     1      30.897 -10.905 -21.530  0.00  0.00    -0.000 C 
ATOM     20  C   UNL     1      30.783 -11.134 -20.159  0.00  0.00    -0.000 C 
ENDBRANCH  14  15
ENDBRANCH   1  14
TORSDOF 5
ENDMDL
