MODEL 1
REMARK VINA RESULT:      -8.4      0.000      0.000
REMARK  Name = 68947
REMARK  1 active torsions:
REMARK  status: ('A' for Active; 'I' for Inactive)
REMARK    1  A    between atoms: C_10  and  O_22
REMARK                            x       y       z     vdW  Elec       q    Type
REMARK                         _______ _______ _______ _____ _____    ______ ____
ROOT
ATOM      1 CL   UNL     1      39.429 -24.347 -16.074  0.00  0.00    -0.080 Cl
ATOM      2  O   UNL     1      39.416 -26.735 -14.382  0.00  0.00    -0.290 OA
ATOM      3  C   UNL     1      33.130 -23.587 -15.725  0.00  0.00    +0.002 C 
ATOM      4  C   UNL     1      31.978 -23.881 -14.744  0.00  0.00    +0.025 C 
ATOM      5  C   UNL     1      34.437 -23.238 -15.007  0.00  0.00    +0.001 C 
ATOM      6  C   UNL     1      34.858 -24.460 -14.116  0.00  0.00    +0.003 C 
ATOM      7  C   UNL     1      36.231 -24.202 -13.392  0.00  0.00    +0.016 C 
ATOM      8  C   UNL     1      32.363 -25.109 -13.909  0.00  0.00    +0.002 C 
ATOM      9  C   UNL     1      33.704 -24.905 -13.179  0.00  0.00    +0.000 C 
ATOM     10  C   UNL     1      30.842 -24.120 -15.757  0.00  0.00    +0.110 C 
ATOM     11  C   UNL     1      32.522 -22.580 -16.697  0.00  0.00    +0.003 C 
ATOM     12  C   UNL     1      35.547 -22.853 -15.999  0.00  0.00    +0.004 C 
ATOM     13  C   UNL     1      31.052 -23.021 -16.818  0.00  0.00    +0.029 C 
ATOM     14  C   UNL     1      37.248 -23.885 -14.511  0.00  0.00    -0.031 C 
ATOM     15  C   UNL     1      36.898 -22.643 -15.310  0.00  0.00    +0.023 C 
ATOM     16  C   UNL     1      31.617 -22.707 -13.797  0.00  0.00    +0.002 C 
ATOM     17  C   UNL     1      36.713 -25.413 -12.546  0.00  0.00    +0.012 C 
ATOM     18  C   UNL     1      36.135 -23.027 -12.383  0.00  0.00    +0.004 C 
ATOM     19  C   UNL     1      37.257 -26.549 -13.387  0.00  0.00    +0.070 C 
ATOM     20  C   UNL     1      38.276 -24.695 -14.833  0.00  0.00    +0.084 C 
ATOM     21  C   UNL     1      38.420 -26.037 -14.197  0.00  0.00    +0.183 C 
ENDROOT
BRANCH  10  22
ATOM     22  O   UNL     1      29.556 -24.047 -15.174  0.00  0.00    -0.384 OA
ATOM     23  H   UNL     1      28.960 -23.562 -15.766  0.00  0.00    +0.210 HD
ENDBRANCH  10  22
TORSDOF 1
ENDMDL
MODEL 2
REMARK VINA RESULT:      -8.3      3.841      6.457
REMARK  Name = 68947
REMARK  1 active torsions:
REMARK  status: ('A' for Active; 'I' for Inactive)
REMARK    1  A    between atoms: C_10  and  O_22
REMARK                            x       y       z     vdW  Elec       q    Type
REMARK                         _______ _______ _______ _____ _____    ______ ____
ROOT
ATOM      1 CL   UNL     1      36.417 -18.984 -20.826  0.00  0.00    -0.080 Cl
ATOM      2  O   UNL     1      33.544 -18.574 -21.204  0.00  0.00    -0.290 OA
ATOM      3  C   UNL     1      35.615 -22.671 -15.714  0.00  0.00    +0.002 C 
ATOM      4  C   UNL     1      34.572 -23.651 -15.142  0.00  0.00    +0.025 C 
ATOM      5  C   UNL     1      35.683 -22.713 -17.242  0.00  0.00    +0.001 C 
ATOM      6  C   UNL     1      34.277 -22.316 -17.816  0.00  0.00    +0.003 C 
ATOM      7  C   UNL     1      34.284 -22.274 -19.389  0.00  0.00    +0.016 C 
ATOM      8  C   UNL     1      33.190 -23.232 -15.656  0.00  0.00    +0.002 C 
ATOM      9  C   UNL     1      33.145 -23.177 -17.195  0.00  0.00    +0.000 C 
ATOM     10  C   UNL     1      34.802 -23.410 -13.637  0.00  0.00    +0.110 C 
ATOM     11  C   UNL     1      36.872 -22.974 -14.902  0.00  0.00    +0.003 C 
ATOM     12  C   UNL     1      36.795 -21.802 -17.789  0.00  0.00    +0.004 C 
ATOM     13  C   UNL     1      36.335 -23.325 -13.502  0.00  0.00    +0.029 C 
ATOM     14  C   UNL     1      35.404 -21.286 -19.782  0.00  0.00    -0.031 C 
ATOM     15  C   UNL     1      36.782 -21.720 -19.318  0.00  0.00    +0.023 C 
ATOM     16  C   UNL     1      34.822 -25.141 -15.493  0.00  0.00    +0.002 C 
ATOM     17  C   UNL     1      32.926 -21.826 -19.994  0.00  0.00    +0.012 C 
ATOM     18  C   UNL     1      34.546 -23.678 -19.998  0.00  0.00    +0.004 C 
ATOM     19  C   UNL     1      32.673 -20.339 -19.859  0.00  0.00    +0.070 C 
ATOM     20  C   UNL     1      35.173 -20.094 -20.368  0.00  0.00    +0.084 C 
ATOM     21  C   UNL     1      33.780 -19.595 -20.560  0.00  0.00    +0.183 C 
ENDROOT
BRANCH  10  22
ATOM     22  O   UNL     1      34.260 -24.433 -12.824  0.00  0.00    -0.384 OA
ATOM     23  H   UNL     1      34.756 -24.481 -11.992  0.00  0.00    +0.210 HD
ENDBRANCH  10  22
TORSDOF 1
ENDMDL
MODEL 3
REMARK VINA RESULT:      -8.1     17.682     19.836
REMARK  Name = 68947
REMARK  1 active torsions:
REMARK  status: ('A' for Active; 'I' for Inactive)
REMARK    1  A    between atoms: C_10  and  O_22
REMARK                            x       y       z     vdW  Elec       q    Type
REMARK                         _______ _______ _______ _____ _____    ______ ____
ROOT
ATOM      1 CL   UNL     1      34.721 -11.072 -24.692  0.00  0.00    -0.080 Cl
ATOM      2  O   UNL     1      32.451 -12.195 -23.226  0.00  0.00    -0.290 OA
ATOM      3  C   UNL     1      32.185  -5.252 -24.944  0.00  0.00    +0.002 C 
ATOM      4  C   UNL     1      31.232  -4.365 -24.119  0.00  0.00    +0.025 C 
ATOM      5  C   UNL     1      33.044  -6.166 -24.065  0.00  0.00    +0.001 C 
ATOM      6  C   UNL     1      32.092  -7.107 -23.244  0.00  0.00    +0.003 C 
ATOM      7  C   UNL     1      32.905  -8.123 -22.360  0.00  0.00    +0.016 C 
ATOM      8  C   UNL     1      30.265  -5.281 -23.359  0.00  0.00    +0.002 C 
ATOM      9  C   UNL     1      31.014  -6.296 -22.476  0.00  0.00    +0.000 C 
ATOM     10  C   UNL     1      30.591  -3.557 -25.264  0.00  0.00    +0.110 C 
ATOM     11  C   UNL     1      32.870  -4.263 -25.883  0.00  0.00    +0.003 C 
ATOM     12  C   UNL     1      34.055  -6.972 -24.897  0.00  0.00    +0.004 C 
ATOM     13  C   UNL     1      31.773  -3.228 -26.197  0.00  0.00    +0.029 C 
ATOM     14  C   UNL     1      33.828  -8.889 -23.333  0.00  0.00    -0.031 C 
ATOM     15  C   UNL     1      34.820  -7.994 -24.053  0.00  0.00    +0.023 C 
ATOM     16  C   UNL     1      31.936  -3.414 -23.117  0.00  0.00    +0.002 C 
ATOM     17  C   UNL     1      31.999  -9.113 -21.577  0.00  0.00    +0.012 C 
ATOM     18  C   UNL     1      33.734  -7.397 -21.267  0.00  0.00    +0.004 C 
ATOM     19  C   UNL     1      31.405 -10.197 -22.451  0.00  0.00    +0.070 C 
ATOM     20  C   UNL     1      33.688 -10.200 -23.615  0.00  0.00    +0.084 C 
ATOM     21  C   UNL     1      32.528 -10.976 -23.087  0.00  0.00    +0.183 C 
ENDROOT
BRANCH  10  22
ATOM     22  O   UNL     1      29.936  -2.386 -24.815  0.00  0.00    -0.384 OA
ATOM     23  H   UNL     1      29.106  -2.628 -24.376  0.00  0.00    +0.210 HD
ENDBRANCH  10  22
TORSDOF 1
ENDMDL
MODEL 4
REMARK VINA RESULT:      -7.2     12.377     14.947
REMARK  Name = 68947
REMARK  1 active torsions:
REMARK  status: ('A' for Active; 'I' for Inactive)
REMARK    1  A    between atoms: C_10  and  O_22
REMARK                            x       y       z     vdW  Elec       q    Type
REMARK                         _______ _______ _______ _____ _____    ______ ____
ROOT
ATOM      1 CL   UNL     1      33.116  -7.567 -22.706  0.00  0.00    -0.080 Cl
ATOM      2  O   UNL     1      32.794  -7.250 -19.815  0.00  0.00    -0.290 OA
ATOM      3  C   UNL     1      33.924 -13.858 -22.323  0.00  0.00    +0.002 C 
ATOM      4  C   UNL     1      33.492 -15.030 -21.420  0.00  0.00    +0.025 C 
ATOM      5  C   UNL     1      32.846 -12.777 -22.435  0.00  0.00    +0.001 C 
ATOM      6  C   UNL     1      32.560 -12.206 -21.000  0.00  0.00    +0.003 C 
ATOM      7  C   UNL     1      31.503 -11.041 -21.041  0.00  0.00    +0.016 C 
ATOM      8  C   UNL     1      33.266 -14.485 -20.004  0.00  0.00    +0.002 C 
ATOM      9  C   UNL     1      32.237 -13.340 -19.991  0.00  0.00    +0.000 C 
ATOM     10  C   UNL     1      34.732 -15.932 -21.574  0.00  0.00    +0.110 C 
ATOM     11  C   UNL     1      34.423 -14.548 -23.589  0.00  0.00    +0.003 C 
ATOM     12  C   UNL     1      33.253 -11.664 -23.415  0.00  0.00    +0.004 C 
ATOM     13  C   UNL     1      35.074 -15.844 -23.074  0.00  0.00    +0.029 C 
ATOM     14  C   UNL     1      32.073  -9.985 -22.014  0.00  0.00    -0.031 C 
ATOM     15  C   UNL     1      32.254 -10.505 -23.429  0.00  0.00    +0.023 C 
ATOM     16  C   UNL     1      32.219 -15.779 -21.893  0.00  0.00    +0.002 C 
ATOM     17  C   UNL     1      31.237 -10.408 -19.647  0.00  0.00    +0.012 C 
ATOM     18  C   UNL     1      30.115 -11.543 -21.520  0.00  0.00    +0.004 C 
ATOM     19  C   UNL     1      32.359  -9.506 -19.178  0.00  0.00    +0.070 C 
ATOM     20  C   UNL     1      32.488  -8.763 -21.626  0.00  0.00    +0.084 C 
ATOM     21  C   UNL     1      32.541  -8.397 -20.181  0.00  0.00    +0.183 C 
ENDROOT
BRANCH  10  22
ATOM     22  O   UNL     1      34.499 -17.267 -21.167  0.00  0.00    -0.384 OA
ATOM     23  H   UNL     1      34.011 -17.736 -21.861  0.00  0.00    +0.210 HD
ENDBRANCH  10  22
TORSDOF 1
ENDMDL
MODEL 5
REMARK VINA RESULT:      -7.0     11.604     14.148
REMARK  Name = 68947
REMARK  1 active torsions:
REMARK  status: ('A' for Active; 'I' for Inactive)
REMARK    1  A    between atoms: C_10  and  O_22
REMARK                            x       y       z     vdW  Elec       q    Type
REMARK                         _______ _______ _______ _____ _____    ______ ____
ROOT
ATOM      1 CL   UNL     1      34.204 -12.257 -27.761  0.00  0.00    -0.080 Cl
ATOM      2  O   UNL     1      34.947 -10.111 -25.915  0.00  0.00    -0.290 OA
ATOM      3  C   UNL     1      34.865 -16.799 -23.368  0.00  0.00    +0.002 C 
ATOM      4  C   UNL     1      34.741 -16.963 -21.840  0.00  0.00    +0.025 C 
ATOM      5  C   UNL     1      33.858 -15.794 -23.933  0.00  0.00    +0.001 C 
ATOM      6  C   UNL     1      34.124 -14.395 -23.271  0.00  0.00    +0.003 C 
ATOM      7  C   UNL     1      33.166 -13.289 -23.850  0.00  0.00    +0.016 C 
ATOM      8  C   UNL     1      35.056 -15.611 -21.188  0.00  0.00    +0.002 C 
ATOM      9  C   UNL     1      34.141 -14.492 -21.723  0.00  0.00    +0.000 C 
ATOM     10  C   UNL     1      35.811 -18.050 -21.619  0.00  0.00    +0.110 C 
ATOM     11  C   UNL     1      34.853 -18.236 -23.882  0.00  0.00    +0.003 C 
ATOM     12  C   UNL     1      33.929 -15.716 -25.467  0.00  0.00    +0.004 C 
ATOM     13  C   UNL     1      35.597 -19.028 -22.792  0.00  0.00    +0.029 C 
ATOM     14  C   UNL     1      33.389 -13.292 -25.378  0.00  0.00    -0.031 C 
ATOM     15  C   UNL     1      33.034 -14.613 -26.037  0.00  0.00    +0.023 C 
ATOM     16  C   UNL     1      33.357 -17.461 -21.351  0.00  0.00    +0.002 C 
ATOM     17  C   UNL     1      33.439 -11.877 -23.264  0.00  0.00    +0.012 C 
ATOM     18  C   UNL     1      31.681 -13.581 -23.507  0.00  0.00    +0.004 C 
ATOM     19  C   UNL     1      34.686 -11.228 -23.825  0.00  0.00    +0.070 C 
ATOM     20  C   UNL     1      33.960 -12.272 -26.049  0.00  0.00    +0.084 C 
ATOM     21  C   UNL     1      34.539 -11.106 -25.319  0.00  0.00    +0.183 C 
ENDROOT
BRANCH  10  22
ATOM     22  O   UNL     1      35.690 -18.698 -20.367  0.00  0.00    -0.384 OA
ATOM     23  H   UNL     1      36.554 -19.050 -20.101  0.00  0.00    +0.210 HD
ENDBRANCH  10  22
TORSDOF 1
ENDMDL
MODEL 6
REMARK VINA RESULT:      -6.8     15.639     18.262
REMARK  Name = 68947
REMARK  1 active torsions:
REMARK  status: ('A' for Active; 'I' for Inactive)
REMARK    1  A    between atoms: C_10  and  O_22
REMARK                            x       y       z     vdW  Elec       q    Type
REMARK                         _______ _______ _______ _____ _____    ______ ____
ROOT
ATOM      1 CL   UNL     1      30.349  -5.287 -21.315  0.00  0.00    -0.080 Cl
ATOM      2  O   UNL     1      30.552  -4.462 -24.116  0.00  0.00    -0.290 OA
ATOM      3  C   UNL     1      32.200 -11.243 -22.526  0.00  0.00    +0.002 C 
ATOM      4  C   UNL     1      33.088 -12.000 -23.534  0.00  0.00    +0.025 C 
ATOM      5  C   UNL     1      32.738  -9.846 -22.206  0.00  0.00    +0.001 C 
ATOM      6  C   UNL     1      32.784  -9.012 -23.536  0.00  0.00    +0.003 C 
ATOM      7  C   UNL     1      33.268  -7.537 -23.278  0.00  0.00    +0.016 C 
ATOM      8  C   UNL     1      33.089 -11.217 -24.852  0.00  0.00    +0.002 C 
ATOM      9  C   UNL     1      33.558  -9.763 -24.651  0.00  0.00    +0.000 C 
ATOM     10  C   UNL     1      32.326 -13.339 -23.580  0.00  0.00    +0.110 C 
ATOM     11  C   UNL     1      32.012 -12.247 -21.393  0.00  0.00    +0.003 C 
ATOM     12  C   UNL     1      31.895  -9.144 -21.128  0.00  0.00    +0.004 C 
ATOM     13  C   UNL     1      31.957 -13.610 -22.108  0.00  0.00    +0.029 C 
ATOM     14  C   UNL     1      32.302  -6.952 -22.224  0.00  0.00    -0.031 C 
ATOM     15  C   UNL     1      32.331  -7.694 -20.901  0.00  0.00    +0.023 C 
ATOM     16  C   UNL     1      34.549 -12.228 -23.068  0.00  0.00    +0.002 C 
ATOM     17  C   UNL     1      33.270  -6.661 -24.561  0.00  0.00    +0.012 C 
ATOM     18  C   UNL     1      34.733  -7.496 -22.768  0.00  0.00    +0.004 C 
ATOM     19  C   UNL     1      31.883  -6.235 -24.994  0.00  0.00    +0.070 C 
ATOM     20  C   UNL     1      31.426  -5.961 -22.487  0.00  0.00    +0.084 C 
ATOM     21  C   UNL     1      31.248  -5.447 -23.877  0.00  0.00    +0.183 C 
ENDROOT
BRANCH  10  22
ATOM     22  O   UNL     1      33.092 -14.393 -24.131  0.00  0.00    -0.384 OA
ATOM     23  H   UNL     1      32.625 -14.767 -24.894  0.00  0.00    +0.210 HD
ENDBRANCH  10  22
TORSDOF 1
ENDMDL
MODEL 7
REMARK VINA RESULT:      -6.4     19.183     21.494
REMARK  Name = 68947
REMARK  1 active torsions:
REMARK  status: ('A' for Active; 'I' for Inactive)
REMARK    1  A    between atoms: C_10  and  O_22
REMARK                            x       y       z     vdW  Elec       q    Type
REMARK                         _______ _______ _______ _____ _____    ______ ____
ROOT
ATOM      1 CL   UNL     1      33.929 -10.216 -23.489  0.00  0.00    -0.080 Cl
ATOM      2  O   UNL     1      31.082 -10.475 -22.863  0.00  0.00    -0.290 OA
ATOM      3  C   UNL     1      33.152  -4.721 -26.582  0.00  0.00    +0.002 C 
ATOM      4  C   UNL     1      32.211  -3.501 -26.561  0.00  0.00    +0.025 C 
ATOM      5  C   UNL     1      33.384  -5.307 -25.187  0.00  0.00    +0.001 C 
ATOM      6  C   UNL     1      32.001  -5.769 -24.604  0.00  0.00    +0.003 C 
ATOM      7  C   UNL     1      32.165  -6.443 -23.191  0.00  0.00    +0.016 C 
ATOM      8  C   UNL     1      30.842  -3.962 -26.045  0.00  0.00    +0.002 C 
ATOM      9  C   UNL     1      30.950  -4.629 -24.661  0.00  0.00    +0.000 C 
ATOM     10  C   UNL     1      32.246  -3.134 -28.058  0.00  0.00    +0.110 C 
ATOM     11  C   UNL     1      34.349  -4.234 -27.394  0.00  0.00    +0.003 C 
ATOM     12  C   UNL     1      34.400  -6.461 -25.214  0.00  0.00    +0.004 C 
ATOM     13  C   UNL     1      33.728  -3.300 -28.448  0.00  0.00    +0.029 C 
ATOM     14  C   UNL     1      33.162  -7.606 -23.389  0.00  0.00    -0.031 C 
ATOM     15  C   UNL     1      34.534  -7.151 -23.854  0.00  0.00    +0.023 C 
ATOM     16  C   UNL     1      32.712  -2.310 -25.703  0.00  0.00    +0.002 C 
ATOM     17  C   UNL     1      30.825  -6.969 -22.606  0.00  0.00    +0.012 C 
ATOM     18  C   UNL     1      32.691  -5.436 -22.134  0.00  0.00    +0.004 C 
ATOM     19  C   UNL     1      30.345  -8.244 -23.268  0.00  0.00    +0.070 C 
ATOM     20  C   UNL     1      32.820  -8.905 -23.283  0.00  0.00    +0.084 C 
ATOM     21  C   UNL     1      31.397  -9.308 -23.089  0.00  0.00    +0.183 C 
ENDROOT
BRANCH  10  22
ATOM     22  O   UNL     1      31.778  -1.824 -28.317  0.00  0.00    -0.384 OA
ATOM     23  H   UNL     1      31.604  -1.371 -27.477  0.00  0.00    +0.210 HD
ENDBRANCH  10  22
TORSDOF 1
ENDMDL
MODEL 8
REMARK VINA RESULT:      -6.2      6.055      7.994
REMARK  Name = 68947
REMARK  1 active torsions:
REMARK  status: ('A' for Active; 'I' for Inactive)
REMARK    1  A    between atoms: C_10  and  O_22
REMARK                            x       y       z     vdW  Elec       q    Type
REMARK                         _______ _______ _______ _____ _____    ______ ____
ROOT
ATOM      1 CL   UNL     1      33.074 -22.867 -16.534  0.00  0.00    -0.080 Cl
ATOM      2  O   UNL     1      35.838 -22.823 -15.571  0.00  0.00    -0.290 OA
ATOM      3  C   UNL     1      34.141 -18.463 -20.988  0.00  0.00    +0.002 C 
ATOM      4  C   UNL     1      35.301 -17.963 -21.871  0.00  0.00    +0.025 C 
ATOM      5  C   UNL     1      34.208 -19.971 -20.731  0.00  0.00    +0.001 C 
ATOM      6  C   UNL     1      35.555 -20.291 -19.991  0.00  0.00    +0.003 C 
ATOM      7  C   UNL     1      35.670 -21.819 -19.634  0.00  0.00    +0.016 C 
ATOM      8  C   UNL     1      36.616 -18.224 -21.126  0.00  0.00    +0.002 C 
ATOM      9  C   UNL     1      36.775 -19.711 -20.754  0.00  0.00    +0.000 C 
ATOM     10  C   UNL     1      34.907 -16.477 -21.982  0.00  0.00    +0.110 C 
ATOM     11  C   UNL     1      32.903 -17.875 -21.659  0.00  0.00    +0.003 C 
ATOM     12  C   UNL     1      32.992 -20.467 -19.931  0.00  0.00    +0.004 C 
ATOM     13  C   UNL     1      33.380 -16.511 -22.190  0.00  0.00    +0.029 C 
ATOM     14  C   UNL     1      34.418 -22.153 -18.792  0.00  0.00    -0.031 C 
ATOM     15  C   UNL     1      33.114 -21.942 -19.540  0.00  0.00    +0.023 C 
ATOM     16  C   UNL     1      35.369 -18.609 -23.279  0.00  0.00    +0.002 C 
ATOM     17  C   UNL     1      36.963 -22.168 -18.847  0.00  0.00    +0.012 C 
ATOM     18  C   UNL     1      35.731 -22.703 -20.908  0.00  0.00    +0.004 C 
ATOM     19  C   UNL     1      36.915 -21.732 -17.397  0.00  0.00    +0.070 C 
ATOM     20  C   UNL     1      34.465 -22.478 -17.485  0.00  0.00    +0.084 C 
ATOM     21  C   UNL     1      35.749 -22.410 -16.726  0.00  0.00    +0.183 C 
ENDROOT
BRANCH  10  22
ATOM     22  O   UNL     1      35.565 -15.808 -23.041  0.00  0.00    -0.384 OA
ATOM     23  H   UNL     1      35.657 -14.868 -22.821  0.00  0.00    +0.210 HD
ENDBRANCH  10  22
TORSDOF 1
ENDMDL
MODEL 9
REMARK VINA RESULT:      -5.9     13.386     15.742
REMARK  Name = 68947
REMARK  1 active torsions:
REMARK  status: ('A' for Active; 'I' for Inactive)
REMARK    1  A    between atoms: C_10  and  O_22
REMARK                            x       y       z     vdW  Elec       q    Type
REMARK                         _______ _______ _______ _____ _____    ______ ____
ROOT
ATOM      1 CL   UNL     1      32.478 -15.219 -19.746  0.00  0.00    -0.080 Cl
ATOM      2  O   UNL     1      34.644 -16.429 -21.297  0.00  0.00    -0.290 OA
ATOM      3  C   UNL     1      33.195  -9.517 -22.455  0.00  0.00    +0.002 C 
ATOM      4  C   UNL     1      33.666  -8.920 -23.796  0.00  0.00    +0.025 C 
ATOM      5  C   UNL     1      32.487 -10.863 -22.628  0.00  0.00    +0.001 C 
ATOM      6  C   UNL     1      33.493 -11.875 -23.284  0.00  0.00    +0.003 C 
ATOM      7  C   UNL     1      32.857 -13.305 -23.438  0.00  0.00    +0.016 C 
ATOM      8  C   UNL     1      34.690  -9.880 -24.412  0.00  0.00    +0.002 C 
ATOM      9  C   UNL     1      34.114 -11.297 -24.584  0.00  0.00    +0.000 C 
ATOM     10  C   UNL     1      34.253  -7.590 -23.284  0.00  0.00    +0.110 C 
ATOM     11  C   UNL     1      32.449  -8.362 -21.793  0.00  0.00    +0.003 C 
ATOM     12  C   UNL     1      31.939 -11.396 -21.294  0.00  0.00    +0.004 C 
ATOM     13  C   UNL     1      33.233  -7.112 -22.232  0.00  0.00    +0.029 C 
ATOM     14  C   UNL     1      32.408 -13.725 -22.021  0.00  0.00    -0.031 C 
ATOM     15  C   UNL     1      31.358 -12.806 -21.424  0.00  0.00    +0.023 C 
ATOM     16  C   UNL     1      32.532  -8.650 -24.819  0.00  0.00    +0.002 C 
ATOM     17  C   UNL     1      33.842 -14.352 -24.029  0.00  0.00    +0.012 C 
ATOM     18  C   UNL     1      31.654 -13.295 -24.419  0.00  0.00    +0.004 C 
ATOM     19  C   UNL     1      34.886 -14.815 -23.035  0.00  0.00    +0.070 C 
ATOM     20  C   UNL     1      32.978 -14.730 -21.327  0.00  0.00    +0.084 C 
ATOM     21  C   UNL     1      34.188 -15.430 -21.850  0.00  0.00    +0.183 C 
ENDROOT
BRANCH  10  22
ATOM     22  O   UNL     1      34.434  -6.634 -24.311  0.00  0.00    -0.384 OA
ATOM     23  H   UNL     1      35.250  -6.135 -24.147  0.00  0.00    +0.210 HD
ENDBRANCH  10  22
TORSDOF 1
ENDMDL
