MODEL 1
REMARK VINA RESULT:      -9.7      0.000      0.000
REMARK  Name = 42615253
REMARK  6 active torsions:
REMARK  status: ('A' for Active; 'I' for Inactive)
REMARK    1  A    between atoms: C_3  and  C_10
REMARK    2  A    between atoms: C_7  and  C_20
REMARK    3  A    between atoms: N_9  and  C_12
REMARK    4  A    between atoms: C_12  and  C_14
REMARK    5  A    between atoms: C_20  and  C_21
REMARK    6  A    between atoms: C_21  and  C_22
REMARK                            x       y       z     vdW  Elec       q    Type
REMARK                         _______ _______ _______ _____ _____    ______ ____
ROOT
ATOM      1  O   UNL     1      34.952 -15.841 -20.355  0.00  0.00    -0.275 OA
ATOM      2  N   UNL     1      34.481 -16.003 -22.614  0.00  0.00    -0.273 N 
ATOM      3  C   UNL     1      34.286 -14.578 -22.847  0.00  0.00    +0.152 C 
ATOM      4  C   UNL     1      34.328 -14.424 -24.363  0.00  0.00    +0.031 C 
ATOM      5  C   UNL     1      33.816 -15.770 -24.871  0.00  0.00    +0.024 C 
ATOM      6  C   UNL     1      34.373 -16.759 -23.860  0.00  0.00    +0.094 C 
ATOM      7  C   UNL     1      34.872 -16.511 -21.385  0.00  0.00    +0.226 C 
ENDROOT
BRANCH   3  10
ATOM      8  O   UNL     1      32.235 -15.046 -21.718  0.00  0.00    -0.273 OA
ATOM      9  N   UNL     1      32.620 -12.891 -22.512  0.00  0.00    -0.299 N 
ATOM     10  C   UNL     1      32.943 -14.219 -22.288  0.00  0.00    +0.241 C 
ATOM     11  H   UNL     1      33.273 -12.323 -22.982  0.00  0.00    +0.150 HD
BRANCH   9  12
ATOM     12  C   UNL     1      31.370 -12.299 -22.092  0.00  0.00    +0.116 C 
BRANCH  12  14
ATOM     13 CL   UNL     1      32.635  -7.266 -21.666  0.00  0.00    -0.082 Cl
ATOM     14  C   UNL     1      31.583 -11.099 -21.216  0.00  0.00    -0.002 C 
ATOM     15  C   UNL     1      31.965  -9.882 -21.782  0.00  0.00    +0.009 C 
ATOM     16  C   UNL     1      31.399 -11.200 -19.837  0.00  0.00    -0.003 C 
ATOM     17  C   UNL     1      32.161  -8.766 -20.968  0.00  0.00    +0.057 C 
ATOM     18  C   UNL     1      31.596 -10.084 -19.024  0.00  0.00    +0.001 C 
ATOM     19  C   UNL     1      31.977  -8.867 -19.589  0.00  0.00    +0.011 C 
ENDBRANCH  12  14
ENDBRANCH   9  12
ENDBRANCH   3  10
BRANCH   7  20
ATOM     20  C   UNL     1      35.199 -17.983 -21.364  0.00  0.00    +0.085 C 
BRANCH  20  21
ATOM     21  C   UNL     1      33.954 -18.762 -20.971  0.00  0.00    +0.010 C 
BRANCH  21  22
ATOM     22  C   UNL     1      34.226 -20.263 -20.767  0.00  0.00    +0.000 C 
ATOM     23  C   UNL     1      33.234 -20.908 -19.799  0.00  0.00    +0.000 C 
ATOM     24  C   UNL     1      35.654 -20.468 -20.256  0.00  0.00    +0.000 C 
ENDBRANCH  21  22
ENDBRANCH  20  21
ENDBRANCH   7  20
TORSDOF 6
ENDMDL
MODEL 2
REMARK VINA RESULT:      -9.6      2.427      3.351
REMARK  Name = 42615253
REMARK  6 active torsions:
REMARK  status: ('A' for Active; 'I' for Inactive)
REMARK    1  A    between atoms: C_3  and  C_10
REMARK    2  A    between atoms: C_7  and  C_20
REMARK    3  A    between atoms: N_9  and  C_12
REMARK    4  A    between atoms: C_12  and  C_14
REMARK    5  A    between atoms: C_20  and  C_21
REMARK    6  A    between atoms: C_21  and  C_22
REMARK                            x       y       z     vdW  Elec       q    Type
REMARK                         _______ _______ _______ _____ _____    ______ ____
ROOT
ATOM      1  O   UNL     1      33.736 -16.793 -25.562  0.00  0.00    -0.275 OA
ATOM      2  N   UNL     1      33.975 -15.637 -23.573  0.00  0.00    -0.273 N 
ATOM      3  C   UNL     1      32.878 -14.702 -23.790  0.00  0.00    +0.152 C 
ATOM      4  C   UNL     1      32.623 -14.080 -22.422  0.00  0.00    +0.031 C 
ATOM      5  C   UNL     1      33.990 -14.135 -21.746  0.00  0.00    +0.024 C 
ATOM      6  C   UNL     1      34.579 -15.441 -22.257  0.00  0.00    +0.094 C 
ATOM      7  C   UNL     1      34.268 -16.661 -24.459  0.00  0.00    +0.226 C 
ENDROOT
BRANCH   3  10
ATOM      8  O   UNL     1      33.446 -13.945 -25.982  0.00  0.00    -0.273 OA
ATOM      9  N   UNL     1      33.675 -12.479 -24.187  0.00  0.00    -0.299 N 
ATOM     10  C   UNL     1      33.353 -13.686 -24.784  0.00  0.00    +0.241 C 
ATOM     11  H   UNL     1      33.556 -12.392 -23.213  0.00  0.00    +0.150 HD
BRANCH   9  12
ATOM     12  C   UNL     1      34.178 -11.342 -24.923  0.00  0.00    +0.116 C 
BRANCH  12  14
ATOM     13 CL   UNL     1      31.736  -8.585 -21.242  0.00  0.00    -0.082 Cl
ATOM     14  C   UNL     1      34.062 -10.068 -24.139  0.00  0.00    -0.002 C 
ATOM     15  C   UNL     1      33.069  -9.934 -23.167  0.00  0.00    +0.009 C 
ATOM     16  C   UNL     1      34.947  -9.017 -24.381  0.00  0.00    -0.003 C 
ATOM     17  C   UNL     1      32.962  -8.750 -22.438  0.00  0.00    +0.057 C 
ATOM     18  C   UNL     1      34.839  -7.833 -23.651  0.00  0.00    +0.001 C 
ATOM     19  C   UNL     1      33.847  -7.699 -22.680  0.00  0.00    +0.011 C 
ENDBRANCH  12  14
ENDBRANCH   9  12
ENDBRANCH   3  10
BRANCH   7  20
ATOM     20  C   UNL     1      35.317 -17.640 -23.997  0.00  0.00    +0.085 C 
BRANCH  20  21
ATOM     21  C   UNL     1      34.639 -18.939 -23.591  0.00  0.00    +0.010 C 
BRANCH  21  22
ATOM     22  C   UNL     1      34.983 -19.370 -22.154  0.00  0.00    +0.000 C 
ATOM     23  C   UNL     1      33.815 -19.158 -21.188  0.00  0.00    +0.000 C 
ATOM     24  C   UNL     1      36.208 -18.599 -21.659  0.00  0.00    +0.000 C 
ENDBRANCH  21  22
ENDBRANCH  20  21
ENDBRANCH   7  20
TORSDOF 6
ENDMDL
MODEL 3
REMARK VINA RESULT:      -9.6      2.170      2.786
REMARK  Name = 42615253
REMARK  6 active torsions:
REMARK  status: ('A' for Active; 'I' for Inactive)
REMARK    1  A    between atoms: C_3  and  C_10
REMARK    2  A    between atoms: C_7  and  C_20
REMARK    3  A    between atoms: N_9  and  C_12
REMARK    4  A    between atoms: C_12  and  C_14
REMARK    5  A    between atoms: C_20  and  C_21
REMARK    6  A    between atoms: C_21  and  C_22
REMARK                            x       y       z     vdW  Elec       q    Type
REMARK                         _______ _______ _______ _____ _____    ______ ____
ROOT
ATOM      1  O   UNL     1      35.695 -17.829 -20.555  0.00  0.00    -0.275 OA
ATOM      2  N   UNL     1      35.012 -18.028 -22.757  0.00  0.00    -0.273 N 
ATOM      3  C   UNL     1      35.123 -16.615 -23.094  0.00  0.00    +0.152 C 
ATOM      4  C   UNL     1      35.071 -16.576 -24.617  0.00  0.00    +0.031 C 
ATOM      5  C   UNL     1      34.230 -17.798 -24.976  0.00  0.00    +0.024 C 
ATOM      6  C   UNL     1      34.633 -18.820 -23.925  0.00  0.00    +0.094 C 
ATOM      7  C   UNL     1      35.380 -18.530 -21.519  0.00  0.00    +0.226 C 
ENDROOT
BRANCH   3  10
ATOM      8  O   UNL     1      33.328 -16.404 -21.535  0.00  0.00    -0.273 OA
ATOM      9  N   UNL     1      33.658 -14.721 -23.110  0.00  0.00    -0.299 N 
ATOM     10  C   UNL     1      33.946 -15.920 -22.479  0.00  0.00    +0.241 C 
ATOM     11  H   UNL     1      34.230 -14.436 -23.860  0.00  0.00    +0.150 HD
BRANCH   9  12
ATOM     12  C   UNL     1      32.557 -13.869 -22.723  0.00  0.00    +0.116 C 
BRANCH  12  14
ATOM     13 CL   UNL     1      35.238 -10.360 -25.483  0.00  0.00    -0.082 Cl
ATOM     14  C   UNL     1      32.809 -12.431 -23.072  0.00  0.00    -0.002 C 
ATOM     15  C   UNL     1      33.791 -12.102 -24.007  0.00  0.00    +0.009 C 
ATOM     16  C   UNL     1      32.060 -11.424 -22.463  0.00  0.00    -0.003 C 
ATOM     17  C   UNL     1      34.024 -10.766 -24.332  0.00  0.00    +0.057 C 
ATOM     18  C   UNL     1      32.294 -10.088 -22.788  0.00  0.00    +0.001 C 
ATOM     19  C   UNL     1      33.276  -9.759 -23.722  0.00  0.00    +0.011 C 
ENDBRANCH  12  14
ENDBRANCH   9  12
ENDBRANCH   3  10
BRANCH   7  20
ATOM     20  C   UNL     1      35.369 -20.032 -21.396  0.00  0.00    +0.085 C 
BRANCH  20  21
ATOM     21  C   UNL     1      34.471 -20.429 -20.235  0.00  0.00    +0.010 C 
BRANCH  21  22
ATOM     22  C   UNL     1      34.882 -21.764 -19.589  0.00  0.00    +0.000 C 
ATOM     23  C   UNL     1      33.763 -22.368 -18.738  0.00  0.00    +0.000 C 
ATOM     24  C   UNL     1      36.132 -21.564 -18.731  0.00  0.00    +0.000 C 
ENDBRANCH  21  22
ENDBRANCH  20  21
ENDBRANCH   7  20
TORSDOF 6
ENDMDL
MODEL 4
REMARK VINA RESULT:      -9.5      7.444     10.919
REMARK  Name = 42615253
REMARK  6 active torsions:
REMARK  status: ('A' for Active; 'I' for Inactive)
REMARK    1  A    between atoms: C_3  and  C_10
REMARK    2  A    between atoms: C_7  and  C_20
REMARK    3  A    between atoms: N_9  and  C_12
REMARK    4  A    between atoms: C_12  and  C_14
REMARK    5  A    between atoms: C_20  and  C_21
REMARK    6  A    between atoms: C_21  and  C_22
REMARK                            x       y       z     vdW  Elec       q    Type
REMARK                         _______ _______ _______ _____ _____    ______ ____
ROOT
ATOM      1  O   UNL     1      30.433 -22.323 -17.171  0.00  0.00    -0.275 OA
ATOM      2  N   UNL     1      31.151 -23.701 -15.457  0.00  0.00    -0.273 N 
ATOM      3  C   UNL     1      32.427 -23.035 -15.231  0.00  0.00    +0.152 C 
ATOM      4  C   UNL     1      32.906 -23.561 -13.883  0.00  0.00    +0.031 C 
ATOM      5  C   UNL     1      32.288 -24.955 -13.806  0.00  0.00    +0.024 C 
ATOM      6  C   UNL     1      30.942 -24.779 -14.493  0.00  0.00    +0.094 C 
ATOM      7  C   UNL     1      30.220 -23.237 -16.373  0.00  0.00    +0.226 C 
ENDROOT
BRANCH   3  10
ATOM      8  O   UNL     1      34.184 -24.328 -16.201  0.00  0.00    -0.273 OA
ATOM      9  N   UNL     1      33.130 -22.706 -17.497  0.00  0.00    -0.299 N 
ATOM     10  C   UNL     1      33.343 -23.444 -16.345  0.00  0.00    +0.241 C 
ATOM     11  H   UNL     1      32.422 -22.021 -17.490  0.00  0.00    +0.150 HD
BRANCH   9  12
ATOM     12  C   UNL     1      33.897 -22.890 -18.707  0.00  0.00    +0.116 C 
BRANCH  12  14
ATOM     13 CL   UNL     1      36.866 -19.257 -20.966  0.00  0.00    -0.082 Cl
ATOM     14  C   UNL     1      33.990 -21.627 -19.512  0.00  0.00    -0.002 C 
ATOM     15  C   UNL     1      35.239 -21.092 -19.829  0.00  0.00    +0.009 C 
ATOM     16  C   UNL     1      32.828 -20.987 -19.943  0.00  0.00    -0.003 C 
ATOM     17  C   UNL     1      35.326 -19.918 -20.578  0.00  0.00    +0.057 C 
ATOM     18  C   UNL     1      32.915 -19.814 -20.692  0.00  0.00    +0.001 C 
ATOM     19  C   UNL     1      34.163 -19.279 -21.009  0.00  0.00    +0.011 C 
ENDBRANCH  12  14
ENDBRANCH   9  12
ENDBRANCH   3  10
BRANCH   7  20
ATOM     20  C   UNL     1      28.885 -23.937 -16.354  0.00  0.00    +0.085 C 
BRANCH  20  21
ATOM     21  C   UNL     1      27.968 -23.284 -17.376  0.00  0.00    +0.010 C 
BRANCH  21  22
ATOM     22  C   UNL     1      27.323 -21.986 -16.858  0.00  0.00    +0.000 C 
ATOM     23  C   UNL     1      26.661 -22.171 -15.491  0.00  0.00    +0.000 C 
ATOM     24  C   UNL     1      26.290 -21.480 -17.867  0.00  0.00    +0.000 C 
ENDBRANCH  21  22
ENDBRANCH  20  21
ENDBRANCH   7  20
TORSDOF 6
ENDMDL
MODEL 5
REMARK VINA RESULT:      -9.5      3.126      7.692
REMARK  Name = 42615253
REMARK  6 active torsions:
REMARK  status: ('A' for Active; 'I' for Inactive)
REMARK    1  A    between atoms: C_3  and  C_10
REMARK    2  A    between atoms: C_7  and  C_20
REMARK    3  A    between atoms: N_9  and  C_12
REMARK    4  A    between atoms: C_12  and  C_14
REMARK    5  A    between atoms: C_20  and  C_21
REMARK    6  A    between atoms: C_21  and  C_22
REMARK                            x       y       z     vdW  Elec       q    Type
REMARK                         _______ _______ _______ _____ _____    ______ ____
ROOT
ATOM      1  O   UNL     1      32.133 -15.134 -21.416  0.00  0.00    -0.275 OA
ATOM      2  N   UNL     1      32.933 -13.660 -23.010  0.00  0.00    -0.273 N 
ATOM      3  C   UNL     1      32.981 -14.614 -24.110  0.00  0.00    +0.152 C 
ATOM      4  C   UNL     1      33.133 -13.756 -25.361  0.00  0.00    +0.031 C 
ATOM      5  C   UNL     1      33.875 -12.521 -24.856  0.00  0.00    +0.024 C 
ATOM      6  C   UNL     1      33.309 -12.321 -23.458  0.00  0.00    +0.094 C 
ATOM      7  C   UNL     1      32.440 -13.991 -21.758  0.00  0.00    +0.226 C 
ENDROOT
BRANCH   3  10
ATOM      8  O   UNL     1      35.143 -15.111 -23.228  0.00  0.00    -0.273 OA
ATOM      9  N   UNL     1      34.054 -16.717 -24.515  0.00  0.00    -0.299 N 
ATOM     10  C   UNL     1      34.177 -15.489 -23.887  0.00  0.00    +0.241 C 
ATOM     11  H   UNL     1      33.227 -16.906 -25.016  0.00  0.00    +0.150 HD
BRANCH   9  12
ATOM     12  C   UNL     1      35.080 -17.733 -24.472  0.00  0.00    +0.116 C 
BRANCH  12  14
ATOM     13 CL   UNL     1      32.779 -20.435 -20.661  0.00  0.00    -0.082 Cl
ATOM     14  C   UNL     1      35.173 -18.382 -23.122  0.00  0.00    -0.002 C 
ATOM     15  C   UNL     1      34.063 -19.032 -22.582  0.00  0.00    +0.009 C 
ATOM     16  C   UNL     1      36.370 -18.334 -22.406  0.00  0.00    -0.003 C 
ATOM     17  C   UNL     1      34.150 -19.635 -21.328  0.00  0.00    +0.057 C 
ATOM     18  C   UNL     1      36.456 -18.938 -21.152  0.00  0.00    +0.001 C 
ATOM     19  C   UNL     1      35.346 -19.588 -20.612  0.00  0.00    +0.011 C 
ENDBRANCH  12  14
ENDBRANCH   9  12
ENDBRANCH   3  10
BRANCH   7  20
ATOM     20  C   UNL     1      32.299 -12.843 -20.791  0.00  0.00    +0.085 C 
BRANCH  20  21
ATOM     21  C   UNL     1      31.159 -11.947 -21.247  0.00  0.00    +0.010 C 
BRANCH  21  22
ATOM     22  C   UNL     1      31.060 -10.643 -20.435  0.00  0.00    +0.000 C 
ATOM     23  C   UNL     1      31.895  -9.515 -21.042  0.00  0.00    +0.000 C 
ATOM     24  C   UNL     1      31.504 -10.895 -18.992  0.00  0.00    +0.000 C 
ENDBRANCH  21  22
ENDBRANCH  20  21
ENDBRANCH   7  20
TORSDOF 6
ENDMDL
MODEL 6
REMARK VINA RESULT:      -9.5      2.030      2.812
REMARK  Name = 42615253
REMARK  6 active torsions:
REMARK  status: ('A' for Active; 'I' for Inactive)
REMARK    1  A    between atoms: C_3  and  C_10
REMARK    2  A    between atoms: C_7  and  C_20
REMARK    3  A    between atoms: N_9  and  C_12
REMARK    4  A    between atoms: C_12  and  C_14
REMARK    5  A    between atoms: C_20  and  C_21
REMARK    6  A    between atoms: C_21  and  C_22
REMARK                            x       y       z     vdW  Elec       q    Type
REMARK                         _______ _______ _______ _____ _____    ______ ____
ROOT
ATOM      1  O   UNL     1      34.317 -17.640 -24.185  0.00  0.00    -0.275 OA
ATOM      2  N   UNL     1      34.347 -16.482 -22.182  0.00  0.00    -0.273 N 
ATOM      3  C   UNL     1      33.342 -15.492 -22.547  0.00  0.00    +0.152 C 
ATOM      4  C   UNL     1      32.938 -14.845 -21.227  0.00  0.00    +0.031 C 
ATOM      5  C   UNL     1      34.195 -14.970 -20.370  0.00  0.00    +0.024 C 
ATOM      6  C   UNL     1      34.776 -16.310 -20.796  0.00  0.00    +0.094 C 
ATOM      7  C   UNL     1      34.701 -17.528 -23.020  0.00  0.00    +0.226 C 
ENDROOT
BRANCH   3  10
ATOM      8  O   UNL     1      35.081 -14.750 -24.005  0.00  0.00    -0.273 OA
ATOM      9  N   UNL     1      33.270 -13.343 -23.603  0.00  0.00    -0.299 N 
ATOM     10  C   UNL     1      34.003 -14.510 -23.468  0.00  0.00    +0.241 C 
ATOM     11  H   UNL     1      32.415 -13.268 -23.119  0.00  0.00    +0.150 HD
BRANCH   9  12
ATOM     12  C   UNL     1      33.701 -12.229 -24.417  0.00  0.00    +0.116 C 
BRANCH  12  14
ATOM     13 CL   UNL     1      34.858  -7.181 -23.882  0.00  0.00    -0.082 Cl
ATOM     14  C   UNL     1      33.416 -10.910 -23.760  0.00  0.00    -0.002 C 
ATOM     15  C   UNL     1      34.180  -9.788 -24.088  0.00  0.00    +0.009 C 
ATOM     16  C   UNL     1      32.390 -10.804 -22.822  0.00  0.00    -0.003 C 
ATOM     17  C   UNL     1      33.915  -8.563 -23.479  0.00  0.00    +0.057 C 
ATOM     18  C   UNL     1      32.126  -9.578 -22.212  0.00  0.00    +0.001 C 
ATOM     19  C   UNL     1      32.888  -8.457 -22.540  0.00  0.00    +0.011 C 
ENDBRANCH  12  14
ENDBRANCH   9  12
ENDBRANCH   3  10
BRANCH   7  20
ATOM     20  C   UNL     1      35.622 -18.559 -22.419  0.00  0.00    +0.085 C 
BRANCH  20  21
ATOM     21  C   UNL     1      34.825 -19.816 -22.109  0.00  0.00    +0.010 C 
BRANCH  21  22
ATOM     22  C   UNL     1      34.414 -19.915 -20.629  0.00  0.00    +0.000 C 
ATOM     23  C   UNL     1      35.135 -21.051 -19.900  0.00  0.00    +0.000 C 
ATOM     24  C   UNL     1      32.901 -20.112 -20.521  0.00  0.00    +0.000 C 
ENDBRANCH  21  22
ENDBRANCH  20  21
ENDBRANCH   7  20
TORSDOF 6
ENDMDL
MODEL 7
REMARK VINA RESULT:      -9.4      1.723      2.352
REMARK  Name = 42615253
REMARK  6 active torsions:
REMARK  status: ('A' for Active; 'I' for Inactive)
REMARK    1  A    between atoms: C_3  and  C_10
REMARK    2  A    between atoms: C_7  and  C_20
REMARK    3  A    between atoms: N_9  and  C_12
REMARK    4  A    between atoms: C_12  and  C_14
REMARK    5  A    between atoms: C_20  and  C_21
REMARK    6  A    between atoms: C_21  and  C_22
REMARK                            x       y       z     vdW  Elec       q    Type
REMARK                         _______ _______ _______ _____ _____    ______ ____
ROOT
ATOM      1  O   UNL     1      34.983 -14.616 -21.675  0.00  0.00    -0.275 OA
ATOM      2  N   UNL     1      33.983 -14.579 -23.761  0.00  0.00    -0.273 N 
ATOM      3  C   UNL     1      33.859 -13.131 -23.861  0.00  0.00    +0.152 C 
ATOM      4  C   UNL     1      33.556 -12.868 -25.332  0.00  0.00    +0.031 C 
ATOM      5  C   UNL     1      32.828 -14.135 -25.777  0.00  0.00    +0.024 C 
ATOM      6  C   UNL     1      33.522 -15.232 -24.984  0.00  0.00    +0.094 C 
ATOM      7  C   UNL     1      34.607 -15.201 -22.692  0.00  0.00    +0.226 C 
ENDROOT
BRANCH   3  10
ATOM      8  O   UNL     1      32.015 -13.549 -22.403  0.00  0.00    -0.273 OA
ATOM      9  N   UNL     1      32.566 -11.347 -22.921  0.00  0.00    -0.299 N 
ATOM     10  C   UNL     1      32.719 -12.722 -22.978  0.00  0.00    +0.241 C 
ATOM     11  H   UNL     1      33.196 -10.784 -23.428  0.00  0.00    +0.150 HD
BRANCH   9  12
ATOM     12  C   UNL     1      31.526 -10.698 -22.156  0.00  0.00    +0.116 C 
BRANCH  12  14
ATOM     13 CL   UNL     1      31.127  -6.015 -24.397  0.00  0.00    -0.082 Cl
ATOM     14  C   UNL     1      31.732  -9.213 -22.073  0.00  0.00    -0.002 C 
ATOM     15  C   UNL     1      31.375  -8.399 -23.148  0.00  0.00    +0.009 C 
ATOM     16  C   UNL     1      32.281  -8.649 -20.921  0.00  0.00    -0.003 C 
ATOM     17  C   UNL     1      31.565  -7.019 -23.070  0.00  0.00    +0.057 C 
ATOM     18  C   UNL     1      32.471  -7.269 -20.845  0.00  0.00    +0.001 C 
ATOM     19  C   UNL     1      32.114  -6.454 -21.919  0.00  0.00    +0.011 C 
ENDBRANCH  12  14
ENDBRANCH   9  12
ENDBRANCH   3  10
BRANCH   7  20
ATOM     20  C   UNL     1      34.805 -16.689 -22.831  0.00  0.00    +0.085 C 
BRANCH  20  21
ATOM     21  C   UNL     1      34.634 -17.342 -21.469  0.00  0.00    +0.010 C 
BRANCH  21  22
ATOM     22  C   UNL     1      34.713 -18.878 -21.527  0.00  0.00    +0.000 C 
ATOM     23  C   UNL     1      34.889 -19.397 -22.955  0.00  0.00    +0.000 C 
ATOM     24  C   UNL     1      33.454 -19.488 -20.908  0.00  0.00    +0.000 C 
ENDBRANCH  21  22
ENDBRANCH  20  21
ENDBRANCH   7  20
TORSDOF 6
ENDMDL
MODEL 8
REMARK VINA RESULT:      -9.2      4.278      9.075
REMARK  Name = 42615253
REMARK  6 active torsions:
REMARK  status: ('A' for Active; 'I' for Inactive)
REMARK    1  A    between atoms: C_3  and  C_10
REMARK    2  A    between atoms: C_7  and  C_20
REMARK    3  A    between atoms: N_9  and  C_12
REMARK    4  A    between atoms: C_12  and  C_14
REMARK    5  A    between atoms: C_20  and  C_21
REMARK    6  A    between atoms: C_21  and  C_22
REMARK                            x       y       z     vdW  Elec       q    Type
REMARK                         _______ _______ _______ _____ _____    ______ ____
ROOT
ATOM      1  O   UNL     1      34.315 -16.453 -20.176  0.00  0.00    -0.275 OA
ATOM      2  N   UNL     1      34.668 -17.107 -22.367  0.00  0.00    -0.273 N 
ATOM      3  C   UNL     1      34.492 -18.536 -22.145  0.00  0.00    +0.152 C 
ATOM      4  C   UNL     1      34.318 -19.126 -23.541  0.00  0.00    +0.031 C 
ATOM      5  C   UNL     1      35.112 -18.173 -24.431  0.00  0.00    +0.024 C 
ATOM      6  C   UNL     1      34.880 -16.817 -23.784  0.00  0.00    +0.094 C 
ATOM      7  C   UNL     1      34.492 -16.170 -21.362  0.00  0.00    +0.226 C 
ENDROOT
BRANCH   3  10
ATOM      8  O   UNL     1      36.832 -18.512 -21.673  0.00  0.00    -0.273 OA
ATOM      9  N   UNL     1      35.497 -20.138 -20.675  0.00  0.00    -0.299 N 
ATOM     10  C   UNL     1      35.739 -19.038 -21.481  0.00  0.00    +0.241 C 
ATOM     11  H   UNL     1      34.573 -20.469 -20.600  0.00  0.00    +0.150 HD
BRANCH   9  12
ATOM     12  C   UNL     1      36.536 -20.823 -19.941  0.00  0.00    +0.116 C 
BRANCH  12  14
ATOM     13 CL   UNL     1      37.235 -22.746 -15.153  0.00  0.00    -0.082 Cl
ATOM     14  C   UNL     1      35.987 -21.589 -18.772  0.00  0.00    -0.002 C 
ATOM     15  C   UNL     1      36.774 -21.788 -17.637  0.00  0.00    +0.009 C 
ATOM     16  C   UNL     1      34.690 -22.101 -18.821  0.00  0.00    -0.003 C 
ATOM     17  C   UNL     1      36.264 -22.499 -16.551  0.00  0.00    +0.057 C 
ATOM     18  C   UNL     1      34.181 -22.812 -17.734  0.00  0.00    +0.001 C 
ATOM     19  C   UNL     1      34.967 -23.011 -16.600  0.00  0.00    +0.011 C 
ENDBRANCH  12  14
ENDBRANCH   9  12
ENDBRANCH   3  10
BRANCH   7  20
ATOM     20  C   UNL     1      34.539 -14.728 -21.802  0.00  0.00    +0.085 C 
BRANCH  20  21
ATOM     21  C   UNL     1      33.247 -14.041 -21.388  0.00  0.00    +0.010 C 
BRANCH  21  22
ATOM     22  C   UNL     1      32.458 -13.480 -22.585  0.00  0.00    +0.000 C 
ATOM     23  C   UNL     1      33.306 -13.406 -23.857  0.00  0.00    +0.000 C 
ATOM     24  C   UNL     1      31.915 -12.091 -22.245  0.00  0.00    +0.000 C 
ENDBRANCH  21  22
ENDBRANCH  20  21
ENDBRANCH   7  20
TORSDOF 6
ENDMDL
MODEL 9
REMARK VINA RESULT:      -9.2      4.811      8.763
REMARK  Name = 42615253
REMARK  6 active torsions:
REMARK  status: ('A' for Active; 'I' for Inactive)
REMARK    1  A    between atoms: C_3  and  C_10
REMARK    2  A    between atoms: C_7  and  C_20
REMARK    3  A    between atoms: N_9  and  C_12
REMARK    4  A    between atoms: C_12  and  C_14
REMARK    5  A    between atoms: C_20  and  C_21
REMARK    6  A    between atoms: C_21  and  C_22
REMARK                            x       y       z     vdW  Elec       q    Type
REMARK                         _______ _______ _______ _____ _____    ______ ____
ROOT
ATOM      1  O   UNL     1      34.812 -16.283 -25.177  0.00  0.00    -0.275 OA
ATOM      2  N   UNL     1      33.970 -15.780 -23.081  0.00  0.00    -0.273 N 
ATOM      3  C   UNL     1      34.940 -16.557 -22.321  0.00  0.00    +0.152 C 
ATOM      4  C   UNL     1      34.791 -16.066 -20.886  0.00  0.00    +0.031 C 
ATOM      5  C   UNL     1      33.330 -15.628 -20.810  0.00  0.00    +0.024 C 
ATOM      6  C   UNL     1      33.067 -15.052 -22.193  0.00  0.00    +0.094 C 
ATOM      7  C   UNL     1      34.034 -15.651 -24.460  0.00  0.00    +0.226 C 
ENDROOT
BRANCH   3  10
ATOM      8  O   UNL     1      34.803 -18.643 -23.475  0.00  0.00    -0.273 OA
ATOM      9  N   UNL     1      33.894 -18.474 -21.338  0.00  0.00    -0.299 N 
ATOM     10  C   UNL     1      34.555 -18.000 -22.458  0.00  0.00    +0.241 C 
ATOM     11  H   UNL     1      33.754 -17.860 -20.581  0.00  0.00    +0.150 HD
BRANCH   9  12
ATOM     12  C   UNL     1      33.398 -19.827 -21.226  0.00  0.00    +0.116 C 
BRANCH  12  14
ATOM     13 CL   UNL     1      33.433 -23.388 -17.427  0.00  0.00    -0.082 Cl
ATOM     14  C   UNL     1      34.179 -20.632 -20.229  0.00  0.00    -0.002 C 
ATOM     15  C   UNL     1      33.520 -21.532 -19.390  0.00  0.00    +0.009 C 
ATOM     16  C   UNL     1      35.563 -20.480 -20.140  0.00  0.00    -0.003 C 
ATOM     17  C   UNL     1      34.246 -22.280 -18.463  0.00  0.00    +0.057 C 
ATOM     18  C   UNL     1      36.288 -21.229 -19.213  0.00  0.00    +0.001 C 
ATOM     19  C   UNL     1      35.630 -22.129 -18.375  0.00  0.00    +0.011 C 
ENDBRANCH  12  14
ENDBRANCH   9  12
ENDBRANCH   3  10
BRANCH   7  20
ATOM     20  C   UNL     1      33.063 -14.672 -25.067  0.00  0.00    +0.085 C 
BRANCH  20  21
ATOM     21  C   UNL     1      33.503 -13.258 -24.721  0.00  0.00    +0.010 C 
BRANCH  21  22
ATOM     22  C   UNL     1      33.485 -12.312 -25.936  0.00  0.00    +0.000 C 
ATOM     23  C   UNL     1      33.572 -13.067 -27.263  0.00  0.00    +0.000 C 
ATOM     24  C   UNL     1      34.639 -11.313 -25.834  0.00  0.00    +0.000 C 
ENDBRANCH  21  22
ENDBRANCH  20  21
ENDBRANCH   7  20
TORSDOF 6
ENDMDL
