MODEL 1
REMARK VINA RESULT:      -3.7      0.000      0.000
REMARK  Name = 46174141
REMARK  7 active torsions:
REMARK  status: ('A' for Active; 'I' for Inactive)
REMARK    1  A    between atoms: C_9  and  O_21
REMARK    2  A    between atoms: C_15  and  O_23
REMARK    3  A    between atoms: C_16  and  O_25
REMARK    4  A    between atoms: C_18  and  C_32
REMARK    5  A    between atoms: O_25  and  C_27
REMARK    6  A    between atoms: C_27  and  C_28
REMARK    7  A    between atoms: C_32  and  O_33
REMARK                            x       y       z     vdW  Elec       q    Type
REMARK                         _______ _______ _______ _____ _____    ______ ____
ROOT
ATOM      1  O   UNL     1      36.888 -22.582 -11.818  0.00  0.00    -0.296 OA
ATOM      2  C   UNL     1      39.085 -24.526 -13.193  0.00  0.00    +0.011 C 
ATOM      3  C   UNL     1      38.566 -25.933 -13.329  0.00  0.00    +0.001 C 
ATOM      4  C   UNL     1      39.720 -25.479 -14.179  0.00  0.00    +0.001 C 
ATOM      5  C   UNL     1      38.264 -23.327 -13.594  0.00  0.00    +0.079 C 
ATOM      6  C   UNL     1      37.242 -26.228 -13.956  0.00  0.00    +0.001 C 
ATOM      7  C   UNL     1      35.751 -24.175 -13.284  0.00  0.00    +0.080 C 
ATOM      8  C   UNL     1      36.033 -25.712 -13.143  0.00  0.00    +0.009 C 
ATOM      9  C   UNL     1      35.132 -23.739 -14.683  0.00  0.00    +0.159 C 
ATOM     10  C   UNL     1      36.947 -23.295 -12.828  0.00  0.00    +0.156 C 
ATOM     11  C   UNL     1      41.059 -26.113 -14.062  0.00  0.00    +0.000 C 
ATOM     12  C   UNL     1      39.404 -25.209 -15.620  0.00  0.00    +0.000 C 
ATOM     13  C   UNL     1      38.182 -22.976 -15.048  0.00  0.00    -0.023 C 
ATOM     14  C   UNL     1      34.613 -23.775 -12.350  0.00  0.00    +0.013 C 
ATOM     15  C   UNL     1      35.722 -22.403 -15.228  0.00  0.00    +0.159 C 
ATOM     16  C   UNL     1      33.590 -23.629 -14.438  0.00  0.00    +0.196 C 
ATOM     17  C   UNL     1      36.138 -26.194 -11.682  0.00  0.00    +0.001 C 
ATOM     18  C   UNL     1      37.132 -22.561 -15.780  0.00  0.00    +0.010 C 
ATOM     19  C   UNL     1      33.473 -23.464 -12.968  0.00  0.00    +0.043 C 
ATOM     20  C   UNL     1      32.196 -23.056 -12.325  0.00  0.00    +0.004 C 
ENDROOT
BRANCH   9  21
ATOM     21  O   UNL     1      35.319 -24.732 -15.695  0.00  0.00    -0.380 OA
ATOM     22  H   UNL     1      34.541 -25.312 -15.726  0.00  0.00    +0.211 HD
ENDBRANCH   9  21
BRANCH  15  23
ATOM     23  O   UNL     1      34.860 -21.918 -16.267  0.00  0.00    -0.378 OA
ATOM     24  H   UNL     1      33.968 -21.783 -15.911  0.00  0.00    +0.211 HD
ENDBRANCH  15  23
BRANCH  16  25
ATOM     25  O   UNL     1      32.898 -24.824 -14.789  0.00  0.00    -0.447 OA
BRANCH  25  27
ATOM     26  O   UNL     1      30.654 -25.342 -14.755  0.00  0.00    -0.245 OA
ATOM     27  C   UNL     1      31.592 -24.675 -15.169  0.00  0.00    +0.337 C 
BRANCH  27  28
ATOM     28  C   UNL     1      31.477 -23.577 -16.176  0.00  0.00    +0.049 C 
ATOM     29  C   UNL     1      32.471 -23.532 -17.298  0.00  0.00    +0.037 C 
ATOM     30  C   UNL     1      30.487 -22.690 -15.966  0.00  0.00    -0.024 C 
ATOM     31  C   UNL     1      29.498 -22.685 -14.843  0.00  0.00    +0.031 C 
ENDBRANCH  27  28
ENDBRANCH  25  27
ENDBRANCH  16  25
BRANCH  18  32
ATOM     32  C   UNL     1      37.351 -22.243 -17.240  0.00  0.00    +0.161 C 
BRANCH  32  33
ATOM     33  O   UNL     1      37.166 -20.859 -17.454  0.00  0.00    -0.377 OA
ATOM     34  H   UNL     1      38.030 -20.416 -17.472  0.00  0.00    +0.211 HD
ENDBRANCH  32  33
ENDBRANCH  18  32
TORSDOF 7
ENDMDL
MODEL 2
REMARK VINA RESULT:      -2.6     18.017     20.795
REMARK  Name = 46174141
REMARK  7 active torsions:
REMARK  status: ('A' for Active; 'I' for Inactive)
REMARK    1  A    between atoms: C_9  and  O_21
REMARK    2  A    between atoms: C_15  and  O_23
REMARK    3  A    between atoms: C_16  and  O_25
REMARK    4  A    between atoms: C_18  and  C_32
REMARK    5  A    between atoms: O_25  and  C_27
REMARK    6  A    between atoms: C_27  and  C_28
REMARK    7  A    between atoms: C_32  and  O_33
REMARK                            x       y       z     vdW  Elec       q    Type
REMARK                         _______ _______ _______ _____ _____    ______ ____
ROOT
ATOM      1  O   UNL     1      33.007  -5.982 -20.976  0.00  0.00    -0.296 OA
ATOM      2  C   UNL     1      32.010  -9.010 -21.552  0.00  0.00    +0.011 C 
ATOM      3  C   UNL     1      30.697  -9.027 -22.287  0.00  0.00    +0.001 C 
ATOM      4  C   UNL     1      31.579 -10.244 -22.310  0.00  0.00    +0.001 C 
ATOM      5  C   UNL     1      33.154  -8.124 -21.974  0.00  0.00    +0.079 C 
ATOM      6  C   UNL     1      30.481  -8.233 -23.534  0.00  0.00    +0.001 C 
ATOM      7  C   UNL     1      31.929  -6.074 -23.169  0.00  0.00    +0.080 C 
ATOM      8  C   UNL     1      30.499  -6.703 -23.315  0.00  0.00    +0.009 C 
ATOM      9  C   UNL     1      32.762  -5.997 -24.522  0.00  0.00    +0.159 C 
ATOM     10  C   UNL     1      32.729  -6.660 -21.974  0.00  0.00    +0.156 C 
ATOM     11  C   UNL     1      31.128 -11.533 -21.722  0.00  0.00    +0.000 C 
ATOM     12  C   UNL     1      32.315 -10.495 -23.592  0.00  0.00    +0.000 C 
ATOM     13  C   UNL     1      34.001  -8.558 -23.131  0.00  0.00    -0.023 C 
ATOM     14  C   UNL     1      31.804  -4.588 -22.846  0.00  0.00    +0.013 C 
ATOM     15  C   UNL     1      34.269  -6.347 -24.336  0.00  0.00    +0.159 C 
ATOM     16  C   UNL     1      32.570  -4.535 -25.046  0.00  0.00    +0.196 C 
ATOM     17  C   UNL     1      29.533  -6.324 -22.175  0.00  0.00    +0.001 C 
ATOM     18  C   UNL     1      34.513  -7.837 -24.146  0.00  0.00    +0.010 C 
ATOM     19  C   UNL     1      32.167  -3.773 -23.838  0.00  0.00    +0.043 C 
ATOM     20  C   UNL     1      32.139  -2.287 -23.822  0.00  0.00    +0.004 C 
ENDROOT
BRANCH   9  21
ATOM     21  O   UNL     1      32.243  -6.867 -25.532  0.00  0.00    -0.380 OA
ATOM     22  H   UNL     1      32.310  -7.788 -25.231  0.00  0.00    +0.211 HD
ENDBRANCH   9  21
BRANCH  15  23
ATOM     23  O   UNL     1      34.985  -5.897 -25.496  0.00  0.00    -0.378 OA
ATOM     24  H   UNL     1      35.239  -6.662 -26.037  0.00  0.00    +0.211 HD
ENDBRANCH  15  23
BRANCH  16  25
ATOM     25  O   UNL     1      31.508  -4.431 -25.989  0.00  0.00    -0.447 OA
BRANCH  25  27
ATOM     26  O   UNL     1      30.914  -2.491 -27.079  0.00  0.00    -0.245 OA
ATOM     27  C   UNL     1      31.644  -3.463 -26.946  0.00  0.00    +0.337 C 
BRANCH  27  28
ATOM     28  C   UNL     1      32.818  -3.770 -27.818  0.00  0.00    +0.049 C 
ATOM     29  C   UNL     1      32.735  -4.956 -28.733  0.00  0.00    +0.037 C 
ATOM     30  C   UNL     1      33.881  -2.956 -27.681  0.00  0.00    -0.024 C 
ATOM     31  C   UNL     1      34.012  -1.786 -26.757  0.00  0.00    +0.031 C 
ENDBRANCH  27  28
ENDBRANCH  25  27
ENDBRANCH  16  25
BRANCH  18  32
ATOM     32  C   UNL     1      35.370  -8.543 -25.170  0.00  0.00    +0.161 C 
BRANCH  32  33
ATOM     33  O   UNL     1      35.502  -9.905 -24.817  0.00  0.00    -0.377 OA
ATOM     34  H   UNL     1      34.623 -10.287 -24.666  0.00  0.00    +0.211 HD
ENDBRANCH  32  33
ENDBRANCH  18  32
TORSDOF 7
ENDMDL
MODEL 3
REMARK VINA RESULT:      -1.4     15.206     18.442
REMARK  Name = 46174141
REMARK  7 active torsions:
REMARK  status: ('A' for Active; 'I' for Inactive)
REMARK    1  A    between atoms: C_9  and  O_21
REMARK    2  A    between atoms: C_15  and  O_23
REMARK    3  A    between atoms: C_16  and  O_25
REMARK    4  A    between atoms: C_18  and  C_32
REMARK    5  A    between atoms: O_25  and  C_27
REMARK    6  A    between atoms: C_27  and  C_28
REMARK    7  A    between atoms: C_32  and  O_33
REMARK                            x       y       z     vdW  Elec       q    Type
REMARK                         _______ _______ _______ _____ _____    ______ ____
ROOT
ATOM      1  O   UNL     1      35.175  -7.388 -22.142  0.00  0.00    -0.296 OA
ATOM      2  C   UNL     1      32.280  -5.938 -22.034  0.00  0.00    +0.011 C 
ATOM      3  C   UNL     1      31.703  -5.757 -23.412  0.00  0.00    +0.001 C 
ATOM      4  C   UNL     1      30.797  -5.711 -22.214  0.00  0.00    +0.001 C 
ATOM      5  C   UNL     1      32.879  -7.244 -21.581  0.00  0.00    +0.079 C 
ATOM      6  C   UNL     1      31.607  -6.891 -24.382  0.00  0.00    +0.001 C 
ATOM      7  C   UNL     1      33.724  -8.352 -23.858  0.00  0.00    +0.080 C 
ATOM      8  C   UNL     1      32.976  -7.416 -24.871  0.00  0.00    +0.009 C 
ATOM      9  C   UNL     1      33.099  -9.807 -23.713  0.00  0.00    +0.159 C 
ATOM     10  C   UNL     1      34.022  -7.661 -22.500  0.00  0.00    +0.156 C 
ATOM     11  C   UNL     1      30.040  -4.479 -21.868  0.00  0.00    +0.000 C 
ATOM     12  C   UNL     1      29.936  -6.919 -21.997  0.00  0.00    +0.000 C 
ATOM     13  C   UNL     1      31.953  -8.341 -21.152  0.00  0.00    -0.023 C 
ATOM     14  C   UNL     1      35.102  -8.706 -24.410  0.00  0.00    +0.013 C 
ATOM     15  C   UNL     1      33.083 -10.327 -22.244  0.00  0.00    +0.159 C 
ATOM     16  C   UNL     1      33.963 -10.726 -24.639  0.00  0.00    +0.196 C 
ATOM     17  C   UNL     1      33.835  -6.243 -25.385  0.00  0.00    +0.001 C 
ATOM     18  C   UNL     1      32.010  -9.664 -21.393  0.00  0.00    +0.010 C 
ATOM     19  C   UNL     1      35.232  -9.974 -24.803  0.00  0.00    +0.043 C 
ATOM     20  C   UNL     1      36.444 -10.601 -25.393  0.00  0.00    +0.004 C 
ENDROOT
BRANCH   9  21
ATOM     21  O   UNL     1      31.757  -9.875 -24.204  0.00  0.00    -0.380 OA
ATOM     22  H   UNL     1      31.678  -9.334 -25.005  0.00  0.00    +0.211 HD
ENDBRANCH   9  21
BRANCH  15  23
ATOM     23  O   UNL     1      32.859 -11.744 -22.266  0.00  0.00    -0.378 OA
ATOM     24  H   UNL     1      32.456 -11.994 -23.113  0.00  0.00    +0.211 HD
ENDBRANCH  15  23
BRANCH  16  25
ATOM     25  O   UNL     1      33.392 -10.884 -25.934  0.00  0.00    -0.447 OA
BRANCH  25  27
ATOM     26  O   UNL     1      34.852 -12.038 -27.291  0.00  0.00    -0.245 OA
ATOM     27  C   UNL     1      33.812 -11.971 -26.651  0.00  0.00    +0.337 C 
BRANCH  27  28
ATOM     28  C   UNL     1      32.806 -13.070 -26.544  0.00  0.00    +0.049 C 
ATOM     29  C   UNL     1      31.687 -13.112 -27.542  0.00  0.00    +0.037 C 
ATOM     30  C   UNL     1      32.980 -13.928 -25.522  0.00  0.00    -0.024 C 
ATOM     31  C   UNL     1      34.063 -13.899 -24.490  0.00  0.00    +0.031 C 
ENDBRANCH  27  28
ENDBRANCH  25  27
ENDBRANCH  16  25
BRANCH  18  32
ATOM     32  C   UNL     1      30.941 -10.551 -20.799  0.00  0.00    +0.161 C 
BRANCH  32  33
ATOM     33  O   UNL     1      30.258 -11.226 -21.836  0.00  0.00    -0.377 OA
ATOM     34  H   UNL     1      29.505 -10.689 -22.131  0.00  0.00    +0.211 HD
ENDBRANCH  32  33
ENDBRANCH  18  32
TORSDOF 7
ENDMDL
MODEL 4
REMARK VINA RESULT:      -1.2     12.135     15.167
REMARK  Name = 46174141
REMARK  7 active torsions:
REMARK  status: ('A' for Active; 'I' for Inactive)
REMARK    1  A    between atoms: C_9  and  O_21
REMARK    2  A    between atoms: C_15  and  O_23
REMARK    3  A    between atoms: C_16  and  O_25
REMARK    4  A    between atoms: C_18  and  C_32
REMARK    5  A    between atoms: O_25  and  C_27
REMARK    6  A    between atoms: C_27  and  C_28
REMARK    7  A    between atoms: C_32  and  O_33
REMARK                            x       y       z     vdW  Elec       q    Type
REMARK                         _______ _______ _______ _____ _____    ______ ____
ROOT
ATOM      1  O   UNL     1      29.827 -11.541 -22.185  0.00  0.00    -0.296 OA
ATOM      2  C   UNL     1      31.352  -8.700 -21.864  0.00  0.00    +0.011 C 
ATOM      3  C   UNL     1      32.282  -8.706 -20.681  0.00  0.00    +0.001 C 
ATOM      4  C   UNL     1      32.474  -7.692 -21.774  0.00  0.00    +0.001 C 
ATOM      5  C   UNL     1      31.317  -9.830 -22.862  0.00  0.00    +0.079 C 
ATOM      6  C   UNL     1      33.291  -9.789 -20.476  0.00  0.00    +0.001 C 
ATOM      7  C   UNL     1      32.119 -11.935 -21.429  0.00  0.00    +0.080 C 
ATOM      8  C   UNL     1      32.674 -11.173 -20.175  0.00  0.00    +0.009 C 
ATOM      9  C   UNL     1      33.235 -12.526 -22.395  0.00  0.00    +0.159 C 
ATOM     10  C   UNL     1      31.002 -11.151 -22.169  0.00  0.00    +0.156 C 
ATOM     11  C   UNL     1      32.338  -6.236 -21.507  0.00  0.00    +0.000 C 
ATOM     12  C   UNL     1      33.627  -7.939 -22.700  0.00  0.00    +0.000 C 
ATOM     13  C   UNL     1      32.382  -9.883 -23.914  0.00  0.00    -0.023 C 
ATOM     14  C   UNL     1      31.439 -13.227 -20.984  0.00  0.00    +0.013 C 
ATOM     15  C   UNL     1      32.890 -12.363 -23.906  0.00  0.00    +0.159 C 
ATOM     16  C   UNL     1      33.376 -14.032 -21.996  0.00  0.00    +0.196 C 
ATOM     17  C   UNL     1      31.660 -11.057 -19.019  0.00  0.00    +0.001 C 
ATOM     18  C   UNL     1      33.063 -10.935 -24.403  0.00  0.00    +0.010 C 
ATOM     19  C   UNL     1      32.099 -14.340 -21.307  0.00  0.00    +0.043 C 
ATOM     20  C   UNL     1      31.693 -15.736 -20.994  0.00  0.00    +0.004 C 
ENDROOT
BRANCH   9  21
ATOM     21  O   UNL     1      34.514 -11.922 -22.183  0.00  0.00    -0.380 OA
ATOM     22  H   UNL     1      34.591 -11.125 -22.730  0.00  0.00    +0.211 HD
ENDBRANCH   9  21
BRANCH  15  23
ATOM     23  O   UNL     1      33.745 -13.232 -24.663  0.00  0.00    -0.378 OA
ATOM     24  H   UNL     1      34.391 -13.647 -24.069  0.00  0.00    +0.211 HD
ENDBRANCH  15  23
BRANCH  16  25
ATOM     25  O   UNL     1      34.428 -14.250 -21.061  0.00  0.00    -0.447 OA
BRANCH  25  27
ATOM     26  O   UNL     1      35.042 -16.063 -19.779  0.00  0.00    -0.245 OA
ATOM     27  C   UNL     1      34.800 -15.552 -20.863  0.00  0.00    +0.337 C 
BRANCH  27  28
ATOM     28  C   UNL     1      34.877 -16.264 -22.175  0.00  0.00    +0.049 C 
ATOM     29  C   UNL     1      35.209 -15.464 -23.401  0.00  0.00    +0.037 C 
ATOM     30  C   UNL     1      34.608 -17.582 -22.145  0.00  0.00    -0.024 C 
ATOM     31  C   UNL     1      34.242 -18.404 -20.950  0.00  0.00    +0.031 C 
ENDBRANCH  27  28
ENDBRANCH  25  27
ENDBRANCH  16  25
BRANCH  18  32
ATOM     32  C   UNL     1      34.072 -10.694 -25.501  0.00  0.00    +0.161 C 
BRANCH  32  33
ATOM     33  O   UNL     1      35.371 -10.650 -24.946  0.00  0.00    -0.377 OA
ATOM     34  H   UNL     1      35.311 -10.672 -23.978  0.00  0.00    +0.211 HD
ENDBRANCH  32  33
ENDBRANCH  18  32
TORSDOF 7
ENDMDL
MODEL 5
REMARK VINA RESULT:      -1.1      2.408      5.346
REMARK  Name = 46174141
REMARK  7 active torsions:
REMARK  status: ('A' for Active; 'I' for Inactive)
REMARK    1  A    between atoms: C_9  and  O_21
REMARK    2  A    between atoms: C_15  and  O_23
REMARK    3  A    between atoms: C_16  and  O_25
REMARK    4  A    between atoms: C_18  and  C_32
REMARK    5  A    between atoms: O_25  and  C_27
REMARK    6  A    between atoms: C_27  and  C_28
REMARK    7  A    between atoms: C_32  and  O_33
REMARK                            x       y       z     vdW  Elec       q    Type
REMARK                         _______ _______ _______ _____ _____    ______ ____
ROOT
ATOM      1  O   UNL     1      35.443 -26.295 -15.884  0.00  0.00    -0.296 OA
ATOM      2  C   UNL     1      36.113 -24.749 -13.117  0.00  0.00    +0.011 C 
ATOM      3  C   UNL     1      36.689 -23.382 -13.375  0.00  0.00    +0.001 C 
ATOM      4  C   UNL     1      36.083 -23.694 -12.035  0.00  0.00    +0.001 C 
ATOM      5  C   UNL     1      34.886 -25.250 -13.834  0.00  0.00    +0.079 C 
ATOM      6  C   UNL     1      36.024 -22.407 -14.292  0.00  0.00    +0.001 C 
ATOM      7  C   UNL     1      34.941 -23.916 -16.146  0.00  0.00    +0.080 C 
ATOM      8  C   UNL     1      36.021 -22.840 -15.775  0.00  0.00    +0.009 C 
ATOM      9  C   UNL     1      33.448 -23.370 -16.192  0.00  0.00    +0.159 C 
ATOM     10  C   UNL     1      35.100 -25.236 -15.343  0.00  0.00    +0.156 C 
ATOM     11  C   UNL     1      36.903 -23.672 -10.796  0.00  0.00    +0.000 C 
ATOM     12  C   UNL     1      34.736 -23.091 -11.771  0.00  0.00    +0.000 C 
ATOM     13  C   UNL     1      33.544 -24.781 -13.360  0.00  0.00    -0.023 C 
ATOM     14  C   UNL     1      35.118 -24.338 -17.601  0.00  0.00    +0.013 C 
ATOM     15  C   UNL     1      32.411 -24.363 -15.585  0.00  0.00    +0.159 C 
ATOM     16  C   UNL     1      33.156 -23.085 -17.703  0.00  0.00    +0.196 C 
ATOM     17  C   UNL     1      37.450 -23.215 -16.216  0.00  0.00    +0.001 C 
ATOM     18  C   UNL     1      32.459 -24.413 -14.065  0.00  0.00    +0.010 C 
ATOM     19  C   UNL     1      34.156 -23.914 -18.422  0.00  0.00    +0.043 C 
ATOM     20  C   UNL     1      34.067 -24.154 -19.887  0.00  0.00    +0.004 C 
ENDROOT
BRANCH   9  21
ATOM     21  O   UNL     1      33.301 -22.125 -15.503  0.00  0.00    -0.380 OA
ATOM     22  H   UNL     1      33.524 -21.396 -16.103  0.00  0.00    +0.211 HD
ENDBRANCH   9  21
BRANCH  15  23
ATOM     23  O   UNL     1      31.099 -23.958 -16.002  0.00  0.00    -0.378 OA
ATOM     24  H   UNL     1      30.480 -24.697 -15.888  0.00  0.00    +0.211 HD
ENDBRANCH  15  23
BRANCH  16  25
ATOM     25  O   UNL     1      33.397 -21.727 -18.056  0.00  0.00    -0.447 OA
BRANCH  25  27
ATOM     26  O   UNL     1      32.471 -21.701 -20.165  0.00  0.00    -0.245 OA
ATOM     27  C   UNL     1      33.383 -21.439 -19.394  0.00  0.00    +0.337 C 
BRANCH  27  28
ATOM     28  C   UNL     1      34.657 -20.760 -19.781  0.00  0.00    +0.049 C 
ATOM     29  C   UNL     1      35.941 -21.264 -19.191  0.00  0.00    +0.037 C 
ATOM     30  C   UNL     1      34.534 -19.715 -20.620  0.00  0.00    -0.024 C 
ATOM     31  C   UNL     1      33.270 -19.165 -21.201  0.00  0.00    +0.031 C 
ENDBRANCH  27  28
ENDBRANCH  25  27
ENDBRANCH  16  25
BRANCH  18  32
ATOM     32  C   UNL     1      31.213 -24.010 -13.312  0.00  0.00    +0.161 C 
BRANCH  32  33
ATOM     33  O   UNL     1      30.267 -25.058 -13.370  0.00  0.00    -0.377 OA
ATOM     34  H   UNL     1      30.073 -25.369 -12.471  0.00  0.00    +0.211 HD
ENDBRANCH  32  33
ENDBRANCH  18  32
TORSDOF 7
ENDMDL
MODEL 6
REMARK VINA RESULT:      -0.8      1.410      2.103
REMARK  Name = 46174141
REMARK  7 active torsions:
REMARK  status: ('A' for Active; 'I' for Inactive)
REMARK    1  A    between atoms: C_9  and  O_21
REMARK    2  A    between atoms: C_15  and  O_23
REMARK    3  A    between atoms: C_16  and  O_25
REMARK    4  A    between atoms: C_18  and  C_32
REMARK    5  A    between atoms: O_25  and  C_27
REMARK    6  A    between atoms: C_27  and  C_28
REMARK    7  A    between atoms: C_32  and  O_33
REMARK                            x       y       z     vdW  Elec       q    Type
REMARK                         _______ _______ _______ _____ _____    ______ ____
ROOT
ATOM      1  O   UNL     1      36.195 -24.140 -11.936  0.00  0.00    -0.296 OA
ATOM      2  C   UNL     1      38.809 -25.303 -13.457  0.00  0.00    +0.011 C 
ATOM      3  C   UNL     1      38.454 -26.457 -14.356  0.00  0.00    +0.001 C 
ATOM      4  C   UNL     1      39.738 -25.707 -14.578  0.00  0.00    +0.001 C 
ATOM      5  C   UNL     1      38.015 -24.022 -13.446  0.00  0.00    +0.079 C 
ATOM      6  C   UNL     1      37.349 -26.366 -15.358  0.00  0.00    +0.001 C 
ATOM      7  C   UNL     1      35.578 -24.807 -14.207  0.00  0.00    +0.080 C 
ATOM      8  C   UNL     1      35.942 -26.241 -14.730  0.00  0.00    +0.009 C 
ATOM      9  C   UNL     1      35.281 -23.739 -15.347  0.00  0.00    +0.159 C 
ATOM     10  C   UNL     1      36.553 -24.297 -13.110  0.00  0.00    +0.156 C 
ATOM     11  C   UNL     1      41.056 -26.379 -14.438  0.00  0.00    +0.000 C 
ATOM     12  C   UNL     1      39.758 -24.778 -15.755  0.00  0.00    +0.000 C 
ATOM     13  C   UNL     1      38.257 -23.025 -14.538  0.00  0.00    -0.023 C 
ATOM     14  C   UNL     1      34.220 -24.844 -13.513  0.00  0.00    +0.013 C 
ATOM     15  C   UNL     1      35.875 -22.331 -15.041  0.00  0.00    +0.159 C 
ATOM     16  C   UNL     1      33.722 -23.690 -15.475  0.00  0.00    +0.196 C 
ATOM     17  C   UNL     1      35.731 -27.356 -13.687  0.00  0.00    +0.001 C 
ATOM     18  C   UNL     1      37.384 -22.271 -15.230  0.00  0.00    +0.010 C 
ATOM     19  C   UNL     1      33.241 -24.231 -14.179  0.00  0.00    +0.043 C 
ATOM     20  C   UNL     1      31.818 -24.118 -13.763  0.00  0.00    +0.004 C 
ENDROOT
BRANCH   9  21
ATOM     21  O   UNL     1      35.786 -24.147 -16.621  0.00  0.00    -0.380 OA
ATOM     22  H   UNL     1      36.091 -25.067 -16.569  0.00  0.00    +0.211 HD
ENDBRANCH   9  21
BRANCH  15  23
ATOM     23  O   UNL     1      35.252 -21.377 -15.914  0.00  0.00    -0.378 OA
ATOM     24  H   UNL     1      34.736 -21.845 -16.589  0.00  0.00    +0.211 HD
ENDBRANCH  15  23
BRANCH  16  25
ATOM     25  O   UNL     1      33.234 -24.549 -16.502  0.00  0.00    -0.447 OA
BRANCH  25  27
ATOM     26  O   UNL     1      33.714 -24.529 -18.754  0.00  0.00    -0.245 OA
ATOM     27  C   UNL     1      33.204 -24.023 -17.764  0.00  0.00    +0.337 C 
BRANCH  27  28
ATOM     28  C   UNL     1      32.459 -22.728 -17.759  0.00  0.00    +0.049 C 
ATOM     29  C   UNL     1      31.195 -22.637 -16.956  0.00  0.00    +0.037 C 
ATOM     30  C   UNL     1      32.984 -21.746 -18.514  0.00  0.00    -0.024 C 
ATOM     31  C   UNL     1      34.222 -21.810 -19.351  0.00  0.00    +0.031 C 
ENDBRANCH  27  28
ENDBRANCH  25  27
ENDBRANCH  16  25
BRANCH  18  32
ATOM     32  C   UNL     1      37.922 -21.314 -16.267  0.00  0.00    +0.161 C 
BRANCH  32  33
ATOM     33  O   UNL     1      37.366 -21.625 -17.529  0.00  0.00    -0.377 OA
ATOM     34  H   UNL     1      36.738 -22.359 -17.434  0.00  0.00    +0.211 HD
ENDBRANCH  32  33
ENDBRANCH  18  32
TORSDOF 7
ENDMDL
MODEL 7
REMARK VINA RESULT:      -0.7     15.781     18.706
REMARK  Name = 46174141
REMARK  7 active torsions:
REMARK  status: ('A' for Active; 'I' for Inactive)
REMARK    1  A    between atoms: C_9  and  O_21
REMARK    2  A    between atoms: C_15  and  O_23
REMARK    3  A    between atoms: C_16  and  O_25
REMARK    4  A    between atoms: C_18  and  C_32
REMARK    5  A    between atoms: O_25  and  C_27
REMARK    6  A    between atoms: C_27  and  C_28
REMARK    7  A    between atoms: C_32  and  O_33
REMARK                            x       y       z     vdW  Elec       q    Type
REMARK                         _______ _______ _______ _____ _____    ______ ____
ROOT
ATOM      1  O   UNL     1      34.518  -6.753 -24.150  0.00  0.00    -0.296 OA
ATOM      2  C   UNL     1      32.030  -4.726 -23.700  0.00  0.00    +0.011 C 
ATOM      3  C   UNL     1      30.749  -5.297 -24.246  0.00  0.00    +0.001 C 
ATOM      4  C   UNL     1      30.697  -4.196 -23.224  0.00  0.00    +0.001 C 
ATOM      5  C   UNL     1      32.966  -5.536 -22.840  0.00  0.00    +0.079 C 
ATOM      6  C   UNL     1      30.285  -6.673 -23.891  0.00  0.00    +0.001 C 
ATOM      7  C   UNL     1      32.507  -8.044 -23.630  0.00  0.00    +0.080 C 
ATOM      8  C   UNL     1      31.186  -7.801 -24.441  0.00  0.00    +0.009 C 
ATOM      9  C   UNL     1      32.301  -8.751 -22.221  0.00  0.00    +0.159 C 
ATOM     10  C   UNL     1      33.423  -6.791 -23.574  0.00  0.00    +0.156 C 
ATOM     11  C   UNL     1      30.103  -2.873 -23.548  0.00  0.00    +0.000 C 
ATOM     12  C   UNL     1      30.306  -4.609 -21.837  0.00  0.00    +0.000 C 
ATOM     13  C   UNL     1      32.627  -5.714 -21.391  0.00  0.00    -0.023 C 
ATOM     14  C   UNL     1      33.356  -9.098 -24.337  0.00  0.00    +0.013 C 
ATOM     15  C   UNL     1      33.207  -8.161 -21.098  0.00  0.00    +0.159 C 
ATOM     16  C   UNL     1      32.604 -10.267 -22.467  0.00  0.00    +0.196 C 
ATOM     17  C   UNL     1      31.412  -7.604 -25.953  0.00  0.00    +0.001 C 
ATOM     18  C   UNL     1      32.730  -6.802 -20.606  0.00  0.00    +0.010 C 
ATOM     19  C   UNL     1      33.423 -10.270 -23.705  0.00  0.00    +0.043 C 
ATOM     20  C   UNL     1      34.156 -11.482 -24.157  0.00  0.00    +0.004 C 
ENDROOT
BRANCH   9  21
ATOM     21  O   UNL     1      30.948  -8.672 -21.764  0.00  0.00    -0.380 OA
ATOM     22  H   UNL     1      30.372  -8.416 -22.502  0.00  0.00    +0.211 HD
ENDBRANCH   9  21
BRANCH  15  23
ATOM     23  O   UNL     1      33.222  -9.082 -19.997  0.00  0.00    -0.378 OA
ATOM     24  H   UNL     1      33.907  -9.753 -20.146  0.00  0.00    +0.211 HD
ENDBRANCH  15  23
BRANCH  16  25
ATOM     25  O   UNL     1      31.426 -11.020 -22.735  0.00  0.00    -0.447 OA
BRANCH  25  27
ATOM     26  O   UNL     1      29.673 -11.397 -21.288  0.00  0.00    -0.245 OA
ATOM     27  C   UNL     1      30.822 -11.601 -21.653  0.00  0.00    +0.337 C 
BRANCH  27  28
ATOM     28  C   UNL     1      31.780 -12.524 -20.971  0.00  0.00    +0.049 C 
ATOM     29  C   UNL     1      32.362 -13.658 -21.762  0.00  0.00    +0.037 C 
ATOM     30  C   UNL     1      32.018 -12.268 -19.672  0.00  0.00    -0.024 C 
ATOM     31  C   UNL     1      31.433 -11.168 -18.844  0.00  0.00    +0.031 C 
ENDBRANCH  27  28
ENDBRANCH  25  27
ENDBRANCH  16  25
BRANCH  18  32
ATOM     32  C   UNL     1      32.339  -6.681 -19.152  0.00  0.00    +0.161 C 
BRANCH  32  33
ATOM     33  O   UNL     1      31.391  -7.680 -18.834  0.00  0.00    -0.377 OA
ATOM     34  H   UNL     1      31.242  -7.691 -17.875  0.00  0.00    +0.211 HD
ENDBRANCH  32  33
ENDBRANCH  18  32
TORSDOF 7
ENDMDL
