MODEL 1
REMARK VINA RESULT:      -7.5      0.000      0.000
REMARK  Name = 218
REMARK  2 active torsions:
REMARK  status: ('A' for Active; 'I' for Inactive)
REMARK    1  A    between atoms: CA_9  and  C_17
REMARK    2  A    between atoms: C_17  and  O_18
REMARK                            x       y       z     vdW  Elec       q    Type
REMARK                         _______ _______ _______ _____ _____    ______ ____
ROOT
ATOM      1  O   UNL     1      36.948 -26.206 -11.799  0.00  0.00    -0.207 OA
ATOM      2  N   UNL     1      36.353 -23.925 -15.871  0.00  0.00    -0.271 NA
ATOM      3  N   UNL     1      38.463 -24.914 -15.232  0.00  0.00    -0.279 N 
ATOM      4  N   UNL     1      35.281 -24.823 -13.466  0.00  0.00    -0.395 NA
ATOM      5  N   UNL     1      38.764 -26.057 -13.193  0.00  0.00    -0.301 NA
ATOM      6  N   UNL     1      40.520 -25.815 -14.739  0.00  0.00    -0.320 N 
ATOM      7  C   UNL     1      34.965 -23.621 -15.636  0.00  0.00    +0.128 C 
ATOM      8  C   UNL     1      37.140 -24.626 -14.987  0.00  0.00    +0.197 C 
ATOM      9  CA  UNL     1      34.522 -24.165 -14.291  0.00  0.00    +0.133 C 
ATOM     10  C   UNL     1      36.586 -25.047 -13.830  0.00  0.00    +0.235 C 
ATOM     11  C   UNL     1      37.442 -25.817 -12.855  0.00  0.00    +0.236 C 
ATOM     12  C   UNL     1      39.226 -25.616 -14.334  0.00  0.00    +0.245 C 
ATOM     13  H   UNL     1      36.761 -23.614 -16.711  0.00  0.00    +0.125 HD
ATOM     14  H   UNL     1      38.872 -24.609 -16.075  0.00  0.00    +0.152 HD
ATOM     15  H   UNL     1      40.823 -25.463 -15.607  0.00  0.00    +0.146 HD
ATOM     16  H   UNL     1      41.147 -26.308 -14.163  0.00  0.00    +0.146 HD
ENDROOT
BRANCH   9  17
ATOM     17  C   UNL     1      33.088 -23.916 -13.897  0.00  0.00    +0.193 C 
BRANCH  17  18
ATOM     18  O   UNL     1      32.661 -25.058 -13.194  0.00  0.00    -0.375 OA
ATOM     19  H   UNL     1      33.218 -25.815 -13.437  0.00  0.00    +0.211 HD
ENDBRANCH  17  18
ENDBRANCH   9  17
TORSDOF 2
ENDMDL
MODEL 2
REMARK VINA RESULT:      -7.2     11.109     12.768
REMARK  Name = 218
REMARK  2 active torsions:
REMARK  status: ('A' for Active; 'I' for Inactive)
REMARK    1  A    between atoms: CA_9  and  C_17
REMARK    2  A    between atoms: C_17  and  O_18
REMARK                            x       y       z     vdW  Elec       q    Type
REMARK                         _______ _______ _______ _____ _____    ______ ____
ROOT
ATOM      1  O   UNL     1      34.336 -15.093 -20.608  0.00  0.00    -0.207 OA
ATOM      2  N   UNL     1      34.781 -17.437 -24.663  0.00  0.00    -0.271 NA
ATOM      3  N   UNL     1      35.580 -18.317 -22.560  0.00  0.00    -0.279 N 
ATOM      4  N   UNL     1      33.907 -15.171 -23.306  0.00  0.00    -0.395 NA
ATOM      5  N   UNL     1      35.359 -17.145 -20.527  0.00  0.00    -0.301 NA
ATOM      6  N   UNL     1      36.381 -19.262 -20.622  0.00  0.00    -0.320 N 
ATOM      7  C   UNL     1      34.135 -16.425 -25.457  0.00  0.00    +0.128 C 
ATOM      8  C   UNL     1      34.968 -17.335 -23.303  0.00  0.00    +0.197 C 
ATOM      9  CA  UNL     1      33.718 -15.253 -24.590  0.00  0.00    +0.133 C 
ATOM     10  C   UNL     1      34.531 -16.222 -22.678  0.00  0.00    +0.235 C 
ATOM     11  C   UNL     1      34.731 -16.102 -21.188  0.00  0.00    +0.236 C 
ATOM     12  C   UNL     1      35.755 -18.191 -21.204  0.00  0.00    +0.245 C 
ATOM     13  H   UNL     1      35.106 -18.247 -25.118  0.00  0.00    +0.125 HD
ATOM     14  H   UNL     1      35.902 -19.131 -23.011  0.00  0.00    +0.152 HD
ATOM     15  H   UNL     1      36.661 -20.027 -21.174  0.00  0.00    +0.146 HD
ATOM     16  H   UNL     1      36.551 -19.265 -19.652  0.00  0.00    +0.146 HD
ENDROOT
BRANCH   9  17
ATOM     17  C   UNL     1      33.034 -14.103 -25.285  0.00  0.00    +0.193 C 
BRANCH  17  18
ATOM     18  O   UNL     1      32.304 -14.657 -26.353  0.00  0.00    -0.375 OA
ATOM     19  H   UNL     1      32.435 -15.619 -26.370  0.00  0.00    +0.211 HD
ENDBRANCH  17  18
ENDBRANCH   9  17
TORSDOF 2
ENDMDL
MODEL 3
REMARK VINA RESULT:      -7.1     12.554     14.289
REMARK  Name = 218
REMARK  2 active torsions:
REMARK  status: ('A' for Active; 'I' for Inactive)
REMARK    1  A    between atoms: CA_9  and  C_17
REMARK    2  A    between atoms: C_17  and  O_18
REMARK                            x       y       z     vdW  Elec       q    Type
REMARK                         _______ _______ _______ _____ _____    ______ ____
ROOT
ATOM      1  O   UNL     1      34.460 -18.154 -25.488  0.00  0.00    -0.207 OA
ATOM      2  N   UNL     1      33.886 -14.037 -23.286  0.00  0.00    -0.271 NA
ATOM      3  N   UNL     1      34.725 -16.004 -22.163  0.00  0.00    -0.279 N 
ATOM      4  N   UNL     1      33.693 -15.534 -25.622  0.00  0.00    -0.395 NA
ATOM      5  N   UNL     1      35.014 -18.068 -23.263  0.00  0.00    -0.301 NA
ATOM      6  N   UNL     1      35.535 -17.805 -20.985  0.00  0.00    -0.320 N 
ATOM      7  C   UNL     1      33.400 -13.345 -24.451  0.00  0.00    +0.128 C 
ATOM      8  C   UNL     1      34.255 -15.362 -23.285  0.00  0.00    +0.197 C 
ATOM      9  CA  UNL     1      33.344 -14.282 -25.641  0.00  0.00    +0.133 C 
ATOM     10  C   UNL     1      34.149 -16.057 -24.437  0.00  0.00    +0.235 C 
ATOM     11  C   UNL     1      34.552 -17.511 -24.445  0.00  0.00    +0.236 C 
ATOM     12  C   UNL     1      35.088 -17.328 -22.189  0.00  0.00    +0.245 C 
ATOM     13  H   UNL     1      33.958 -13.533 -22.443  0.00  0.00    +0.125 HD
ATOM     14  H   UNL     1      34.804 -15.501 -21.320  0.00  0.00    +0.152 HD
ATOM     15  H   UNL     1      35.572 -17.209 -20.202  0.00  0.00    +0.146 HD
ATOM     16  H   UNL     1      35.819 -18.744 -20.902  0.00  0.00    +0.146 HD
ENDROOT
BRANCH   9  17
ATOM     17  C   UNL     1      32.843 -13.702 -26.940  0.00  0.00    +0.193 C 
BRANCH  17  18
ATOM     18  O   UNL     1      33.961 -13.586 -27.786  0.00  0.00    -0.375 OA
ATOM     19  H   UNL     1      33.752 -13.970 -28.653  0.00  0.00    +0.211 HD
ENDBRANCH  17  18
ENDBRANCH   9  17
TORSDOF 2
ENDMDL
MODEL 4
REMARK VINA RESULT:      -7.1      2.162      2.239
REMARK  Name = 218
REMARK  2 active torsions:
REMARK  status: ('A' for Active; 'I' for Inactive)
REMARK    1  A    between atoms: CA_9  and  C_17
REMARK    2  A    between atoms: C_17  and  O_18
REMARK                            x       y       z     vdW  Elec       q    Type
REMARK                         _______ _______ _______ _____ _____    ______ ____
ROOT
ATOM      1  O   UNL     1      36.283 -27.430 -15.286  0.00  0.00    -0.207 OA
ATOM      2  N   UNL     1      37.524 -22.895 -15.110  0.00  0.00    -0.271 NA
ATOM      3  N   UNL     1      39.054 -24.683 -14.560  0.00  0.00    -0.279 N 
ATOM      4  N   UNL     1      35.573 -24.812 -15.619  0.00  0.00    -0.395 NA
ATOM      5  N   UNL     1      38.435 -26.955 -14.648  0.00  0.00    -0.301 NA
ATOM      6  N   UNL     1      40.602 -26.293 -14.015  0.00  0.00    -0.320 N 
ATOM      7  C   UNL     1      36.240 -22.403 -15.535  0.00  0.00    +0.128 C 
ATOM      8  C   UNL     1      37.818 -24.231 -14.960  0.00  0.00    +0.197 C 
ATOM      9  CA  UNL     1      35.281 -23.554 -15.770  0.00  0.00    +0.133 C 
ATOM     10  C   UNL     1      36.846 -25.133 -15.216  0.00  0.00    +0.235 C 
ATOM     11  C   UNL     1      37.159 -26.600 -15.055  0.00  0.00    +0.236 C 
ATOM     12  C   UNL     1      39.321 -26.021 -14.418  0.00  0.00    +0.245 C 
ATOM     13  H   UNL     1      38.232 -22.239 -14.916  0.00  0.00    +0.125 HD
ATOM     14  H   UNL     1      39.766 -24.029 -14.372  0.00  0.00    +0.152 HD
ATOM     15  H   UNL     1      41.233 -25.556 -13.854  0.00  0.00    +0.146 HD
ATOM     16  H   UNL     1      40.890 -27.225 -13.885  0.00  0.00    +0.146 HD
ENDROOT
BRANCH   9  17
ATOM     17  C   UNL     1      33.884 -23.195 -16.212  0.00  0.00    +0.193 C 
BRANCH  17  18
ATOM     18  O   UNL     1      33.785 -23.563 -17.567  0.00  0.00    -0.375 OA
ATOM     19  H   UNL     1      34.632 -23.393 -18.011  0.00  0.00    +0.211 HD
ENDBRANCH  17  18
ENDBRANCH   9  17
TORSDOF 2
ENDMDL
MODEL 5
REMARK VINA RESULT:      -7.1      4.281      6.097
REMARK  Name = 218
REMARK  2 active torsions:
REMARK  status: ('A' for Active; 'I' for Inactive)
REMARK    1  A    between atoms: CA_9  and  C_17
REMARK    2  A    between atoms: C_17  and  O_18
REMARK                            x       y       z     vdW  Elec       q    Type
REMARK                         _______ _______ _______ _____ _____    ______ ____
ROOT
ATOM      1  O   UNL     1      32.787 -22.427 -18.734  0.00  0.00    -0.207 OA
ATOM      2  N   UNL     1      31.123 -23.719 -14.527  0.00  0.00    -0.271 NA
ATOM      3  N   UNL     1      33.476 -23.792 -15.071  0.00  0.00    -0.279 N 
ATOM      4  N   UNL     1      30.627 -22.764 -17.093  0.00  0.00    -0.395 NA
ATOM      5  N   UNL     1      34.312 -23.146 -17.178  0.00  0.00    -0.301 NA
ATOM      6  N   UNL     1      35.738 -23.905 -15.468  0.00  0.00    -0.320 N 
ATOM      7  C   UNL     1      29.748 -23.441 -14.852  0.00  0.00    +0.128 C 
ATOM      8  C   UNL     1      32.167 -23.528 -15.403  0.00  0.00    +0.197 C 
ATOM      9  CA  UNL     1      29.630 -22.935 -16.276  0.00  0.00    +0.133 C 
ATOM     10  C   UNL     1      31.889 -23.064 -16.639  0.00  0.00    +0.235 C 
ATOM     11  C   UNL     1      33.028 -22.851 -17.606  0.00  0.00    +0.236 C 
ATOM     12  C   UNL     1      34.499 -23.593 -15.964  0.00  0.00    +0.245 C 
ATOM     13  H   UNL     1      31.327 -24.064 -13.628  0.00  0.00    +0.125 HD
ATOM     14  H   UNL     1      33.684 -24.132 -14.171  0.00  0.00    +0.152 HD
ATOM     15  H   UNL     1      35.829 -24.239 -14.547  0.00  0.00    +0.146 HD
ATOM     16  H   UNL     1      36.536 -23.795 -16.033  0.00  0.00    +0.146 HD
ENDROOT
BRANCH   9  17
ATOM     17  C   UNL     1      28.243 -22.608 -16.768  0.00  0.00    +0.193 C 
BRANCH  17  18
ATOM     18  O   UNL     1      27.847 -23.678 -17.593  0.00  0.00    -0.375 OA
ATOM     19  H   UNL     1      28.614 -24.242 -17.781  0.00  0.00    +0.211 HD
ENDBRANCH  17  18
ENDBRANCH   9  17
TORSDOF 2
ENDMDL
MODEL 6
REMARK VINA RESULT:      -7.1     10.143     12.171
REMARK  Name = 218
REMARK  2 active torsions:
REMARK  status: ('A' for Active; 'I' for Inactive)
REMARK    1  A    between atoms: CA_9  and  C_17
REMARK    2  A    between atoms: C_17  and  O_18
REMARK                            x       y       z     vdW  Elec       q    Type
REMARK                         _______ _______ _______ _____ _____    ______ ____
ROOT
ATOM      1  O   UNL     1      34.889 -15.313 -19.966  0.00  0.00    -0.207 OA
ATOM      2  N   UNL     1      34.690 -18.132 -23.728  0.00  0.00    -0.271 NA
ATOM      3  N   UNL     1      34.278 -15.755 -23.863  0.00  0.00    -0.279 N 
ATOM      4  N   UNL     1      35.118 -17.835 -20.995  0.00  0.00    -0.395 NA
ATOM      5  N   UNL     1      34.377 -14.340 -21.980  0.00  0.00    -0.301 NA
ATOM      6  N   UNL     1      33.867 -13.508 -24.120  0.00  0.00    -0.320 N 
ATOM      7  C   UNL     1      35.023 -19.328 -22.998  0.00  0.00    +0.128 C 
ATOM      8  C   UNL     1      34.589 -16.888 -23.148  0.00  0.00    +0.197 C 
ATOM      9  CA  UNL     1      35.222 -19.016 -21.528  0.00  0.00    +0.133 C 
ATOM     10  C   UNL     1      34.803 -16.782 -21.819  0.00  0.00    +0.235 C 
ATOM     11  C   UNL     1      34.695 -15.422 -21.175  0.00  0.00    +0.236 C 
ATOM     12  C   UNL     1      34.183 -14.526 -23.260  0.00  0.00    +0.245 C 
ATOM     13  H   UNL     1      34.527 -18.208 -24.695  0.00  0.00    +0.125 HD
ATOM     14  H   UNL     1      34.120 -15.827 -24.832  0.00  0.00    +0.152 HD
ATOM     15  H   UNL     1      33.730 -13.696 -25.076  0.00  0.00    +0.146 HD
ATOM     16  H   UNL     1      33.777 -12.587 -23.783  0.00  0.00    +0.146 HD
ENDROOT
BRANCH   9  17
ATOM     17  C   UNL     1      35.567 -20.176 -20.628  0.00  0.00    +0.193 C 
BRANCH  17  18
ATOM     18  O   UNL     1      36.682 -19.775 -19.867  0.00  0.00    -0.375 OA
ATOM     19  H   UNL     1      36.467 -18.961 -19.384  0.00  0.00    +0.211 HD
ENDBRANCH  17  18
ENDBRANCH   9  17
TORSDOF 2
ENDMDL
MODEL 7
REMARK VINA RESULT:      -7.0      3.509      6.200
REMARK  Name = 218
REMARK  2 active torsions:
REMARK  status: ('A' for Active; 'I' for Inactive)
REMARK    1  A    between atoms: CA_9  and  C_17
REMARK    2  A    between atoms: C_17  and  O_18
REMARK                            x       y       z     vdW  Elec       q    Type
REMARK                         _______ _______ _______ _____ _____    ______ ____
ROOT
ATOM      1  O   UNL     1      34.377 -23.120 -18.672  0.00  0.00    -0.207 OA
ATOM      2  N   UNL     1      33.948 -23.562 -14.008  0.00  0.00    -0.271 NA
ATOM      3  N   UNL     1      32.062 -23.108 -15.449  0.00  0.00    -0.279 N 
ATOM      4  N   UNL     1      35.581 -23.571 -16.260  0.00  0.00    -0.395 NA
ATOM      5  N   UNL     1      32.274 -22.886 -17.785  0.00  0.00    -0.301 NA
ATOM      6  N   UNL     1      30.191 -22.677 -16.713  0.00  0.00    -0.320 N 
ATOM      7  C   UNL     1      35.347 -23.816 -13.783  0.00  0.00    +0.128 C 
ATOM      8  C   UNL     1      33.403 -23.340 -15.252  0.00  0.00    +0.197 C 
ATOM      9  CA  UNL     1      36.110 -23.786 -15.093  0.00  0.00    +0.133 C 
ATOM     10  C   UNL     1      34.226 -23.352 -16.322  0.00  0.00    +0.235 C 
ATOM     11  C   UNL     1      33.638 -23.111 -17.691  0.00  0.00    +0.236 C 
ATOM     12  C   UNL     1      31.545 -22.890 -16.701  0.00  0.00    +0.245 C 
ATOM     13  H   UNL     1      33.347 -23.547 -13.228  0.00  0.00    +0.125 HD
ATOM     14  H   UNL     1      31.458 -23.097 -14.671  0.00  0.00    +0.152 HD
ATOM     15  H   UNL     1      29.684 -22.689 -15.870  0.00  0.00    +0.146 HD
ATOM     16  H   UNL     1      29.726 -22.511 -17.565  0.00  0.00    +0.146 HD
ENDROOT
BRANCH   9  17
ATOM     17  C   UNL     1      37.597 -24.026 -15.018  0.00  0.00    +0.193 C 
BRANCH  17  18
ATOM     18  O   UNL     1      38.191 -23.166 -15.960  0.00  0.00    -0.375 OA
ATOM     19  H   UNL     1      39.036 -23.542 -16.254  0.00  0.00    +0.211 HD
ENDBRANCH  17  18
ENDBRANCH   9  17
TORSDOF 2
ENDMDL
MODEL 8
REMARK VINA RESULT:      -7.0      2.405      5.212
REMARK  Name = 218
REMARK  2 active torsions:
REMARK  status: ('A' for Active; 'I' for Inactive)
REMARK    1  A    between atoms: CA_9  and  C_17
REMARK    2  A    between atoms: C_17  and  O_18
REMARK                            x       y       z     vdW  Elec       q    Type
REMARK                         _______ _______ _______ _____ _____    ______ ____
ROOT
ATOM      1  O   UNL     1      36.561 -22.858 -16.560  0.00  0.00    -0.207 OA
ATOM      2  N   UNL     1      36.606 -25.776 -12.871  0.00  0.00    -0.271 NA
ATOM      3  N   UNL     1      34.638 -24.537 -13.522  0.00  0.00    -0.279 N 
ATOM      4  N   UNL     1      37.966 -24.604 -14.996  0.00  0.00    -0.395 NA
ATOM      5  N   UNL     1      34.612 -23.074 -15.370  0.00  0.00    -0.301 NA
ATOM      6  N   UNL     1      32.700 -23.414 -14.042  0.00  0.00    -0.320 N 
ATOM      7  C   UNL     1      37.983 -26.163 -13.041  0.00  0.00    +0.128 C 
ATOM      8  C   UNL     1      35.956 -24.887 -13.696  0.00  0.00    +0.197 C 
ATOM      9  CA  UNL     1      38.594 -25.445 -14.229  0.00  0.00    +0.133 C 
ATOM     10  C   UNL     1      36.647 -24.338 -14.717  0.00  0.00    +0.235 C 
ATOM     11  C   UNL     1      35.942 -23.363 -15.627  0.00  0.00    +0.236 C 
ATOM     12  C   UNL     1      34.012 -23.647 -14.359  0.00  0.00    +0.245 C 
ATOM     13  H   UNL     1      36.102 -26.171 -12.123  0.00  0.00    +0.125 HD
ATOM     14  H   UNL     1      34.129 -24.934 -12.778  0.00  0.00    +0.152 HD
ATOM     15  H   UNL     1      32.292 -23.869 -13.271  0.00  0.00    +0.146 HD
ATOM     16  H   UNL     1      32.165 -22.790 -14.585  0.00  0.00    +0.146 HD
ENDROOT
BRANCH   9  17
ATOM     17  C   UNL     1      40.041 -25.740 -14.530  0.00  0.00    +0.193 C 
BRANCH  17  18
ATOM     18  O   UNL     1      40.156 -25.797 -15.932  0.00  0.00    -0.375 OA
ATOM     19  H   UNL     1      40.356 -26.707 -16.203  0.00  0.00    +0.211 HD
ENDBRANCH  17  18
ENDBRANCH   9  17
TORSDOF 2
ENDMDL
MODEL 9
REMARK VINA RESULT:      -7.0     12.546     14.613
REMARK  Name = 218
REMARK  2 active torsions:
REMARK  status: ('A' for Active; 'I' for Inactive)
REMARK    1  A    between atoms: CA_9  and  C_17
REMARK    2  A    between atoms: C_17  and  O_18
REMARK                            x       y       z     vdW  Elec       q    Type
REMARK                         _______ _______ _______ _____ _____    ______ ____
ROOT
ATOM      1  O   UNL     1      34.108 -17.423 -25.759  0.00  0.00    -0.207 OA
ATOM      2  N   UNL     1      33.906 -13.861 -22.692  0.00  0.00    -0.271 NA
ATOM      3  N   UNL     1      33.345 -13.598 -25.027  0.00  0.00    -0.279 N 
ATOM      4  N   UNL     1      34.446 -16.544 -23.193  0.00  0.00    -0.395 NA
ATOM      5  N   UNL     1      33.446 -15.380 -26.566  0.00  0.00    -0.301 NA
ATOM      6  N   UNL     1      32.784 -13.221 -27.225  0.00  0.00    -0.320 N 
ATOM      7  C   UNL     1      34.327 -14.651 -21.564  0.00  0.00    +0.128 C 
ATOM      8  C   UNL     1      33.756 -14.366 -23.963  0.00  0.00    +0.197 C 
ATOM      9  CA  UNL     1      34.589 -16.083 -21.986  0.00  0.00    +0.133 C 
ATOM     10  C   UNL     1      34.027 -15.672 -24.169  0.00  0.00    +0.235 C 
ATOM     11  C   UNL     1      33.865 -16.235 -25.560  0.00  0.00    +0.236 C 
ATOM     12  C   UNL     1      33.204 -14.126 -26.286  0.00  0.00    +0.245 C 
ATOM     13  H   UNL     1      33.714 -12.907 -22.545  0.00  0.00    +0.125 HD
ATOM     14  H   UNL     1      33.147 -12.644 -24.882  0.00  0.00    +0.152 HD
ATOM     15  H   UNL     1      32.615 -12.286 -26.966  0.00  0.00    +0.146 HD
ATOM     16  H   UNL     1      32.653 -13.504 -28.158  0.00  0.00    +0.146 HD
ENDROOT
BRANCH   9  17
ATOM     17  C   UNL     1      35.049 -17.035 -20.910  0.00  0.00    +0.193 C 
BRANCH  17  18
ATOM     18  O   UNL     1      35.824 -18.020 -21.551  0.00  0.00    -0.375 OA
ATOM     19  H   UNL     1      36.756 -17.751 -21.546  0.00  0.00    +0.211 HD
ENDBRANCH  17  18
ENDBRANCH   9  17
TORSDOF 2
ENDMDL
