MODEL 1
REMARK VINA RESULT:      -6.4      0.000      0.000
REMARK  Name = 980
REMARK  2 active torsions:
REMARK  status: ('A' for Active; 'I' for Inactive)
REMARK    1  A    between atoms: C_1  and  N_9
REMARK    2  A    between atoms: C_4  and  O_10
REMARK                            x       y       z     vdW  Elec       q    Type
REMARK                         _______ _______ _______ _____ _____    ______ ____
ROOT
ATOM      1  C   UNL     1      29.257 -23.606 -16.135  0.00  0.00    +0.143 C 
ATOM      2  C   UNL     1      30.532 -23.048 -16.058  0.00  0.00    +0.027 C 
ATOM      3  C   UNL     1      28.959 -24.771 -15.427  0.00  0.00    +0.027 C 
ATOM      4  C   UNL     1      31.215 -24.819 -14.564  0.00  0.00    +0.134 C 
ATOM      5  C   UNL     1      31.511 -23.654 -15.272  0.00  0.00    +0.038 C 
ATOM      6  C   UNL     1      29.939 -25.377 -14.642  0.00  0.00    +0.038 C 
ENDROOT
BRANCH   1   9
ATOM      7  O   UNL     1      28.051 -21.757 -16.805  0.00  0.00    -0.126 OA
ATOM      8  O   UNL     1      27.608 -23.689 -17.747  0.00  0.00    -0.126 OA
ATOM      9  N   UNL     1      28.258 -22.988 -16.934  0.00  0.00    +0.058 N 
ENDBRANCH   1   9
BRANCH   4  10
ATOM     10  O   UNL     1      32.172 -25.411 -13.798  0.00  0.00    -0.506 OA
ATOM     11  H   UNL     1      32.008 -26.246 -13.406  0.00  0.00    +0.292 HD
ENDBRANCH   4  10
TORSDOF 2
ENDMDL
MODEL 2
REMARK VINA RESULT:      -6.4      6.608      7.685
REMARK  Name = 980
REMARK  2 active torsions:
REMARK  status: ('A' for Active; 'I' for Inactive)
REMARK    1  A    between atoms: C_1  and  N_9
REMARK    2  A    between atoms: C_4  and  O_10
REMARK                            x       y       z     vdW  Elec       q    Type
REMARK                         _______ _______ _______ _____ _____    ______ ____
ROOT
ATOM      1  C   UNL     1      34.063 -21.565 -19.522  0.00  0.00    +0.143 C 
ATOM      2  C   UNL     1      33.347 -20.577 -20.197  0.00  0.00    +0.027 C 
ATOM      3  C   UNL     1      35.459 -21.544 -19.532  0.00  0.00    +0.027 C 
ATOM      4  C   UNL     1      35.419 -19.548 -20.891  0.00  0.00    +0.134 C 
ATOM      5  C   UNL     1      34.025 -19.568 -20.881  0.00  0.00    +0.038 C 
ATOM      6  C   UNL     1      36.136 -20.536 -20.217  0.00  0.00    +0.038 C 
ENDROOT
BRANCH   1   9
ATOM      7  O   UNL     1      33.844 -23.754 -18.833  0.00  0.00    -0.126 OA
ATOM      8  O   UNL     1      32.314 -22.307 -18.215  0.00  0.00    -0.126 OA
ATOM      9  N   UNL     1      33.375 -22.591 -18.824  0.00  0.00    +0.058 N 
ENDBRANCH   1   9
BRANCH   4  10
ATOM     10  O   UNL     1      36.080 -18.564 -21.560  0.00  0.00    -0.506 OA
ATOM     11  H   UNL     1      36.575 -18.770 -22.328  0.00  0.00    +0.292 HD
ENDBRANCH   4  10
TORSDOF 2
ENDMDL
MODEL 3
REMARK VINA RESULT:      -6.4      6.575      7.620
REMARK  Name = 980
REMARK  2 active torsions:
REMARK  status: ('A' for Active; 'I' for Inactive)
REMARK    1  A    between atoms: C_1  and  N_9
REMARK    2  A    between atoms: C_4  and  O_10
REMARK                            x       y       z     vdW  Elec       q    Type
REMARK                         _______ _______ _______ _____ _____    ______ ____
ROOT
ATOM      1  C   UNL     1      34.045 -21.598 -19.502  0.00  0.00    +0.143 C 
ATOM      2  C   UNL     1      35.439 -21.577 -19.519  0.00  0.00    +0.027 C 
ATOM      3  C   UNL     1      33.324 -20.614 -20.180  0.00  0.00    +0.027 C 
ATOM      4  C   UNL     1      35.393 -19.588 -20.888  0.00  0.00    +0.134 C 
ATOM      5  C   UNL     1      36.113 -20.572 -20.212  0.00  0.00    +0.038 C 
ATOM      6  C   UNL     1      33.998 -19.609 -20.872  0.00  0.00    +0.038 C 
ENDROOT
BRANCH   1   9
ATOM      7  O   UNL     1      33.825 -23.786 -18.807  0.00  0.00    -0.126 OA
ATOM      8  O   UNL     1      32.300 -22.335 -18.186  0.00  0.00    -0.126 OA
ATOM      9  N   UNL     1      33.357 -22.621 -18.798  0.00  0.00    +0.058 N 
ENDBRANCH   1   9
BRANCH   4  10
ATOM     10  O   UNL     1      36.051 -18.607 -21.564  0.00  0.00    -0.506 OA
ATOM     11  H   UNL     1      36.157 -18.667 -22.493  0.00  0.00    +0.292 HD
ENDBRANCH   4  10
TORSDOF 2
ENDMDL
MODEL 4
REMARK VINA RESULT:      -6.2      7.698      8.522
REMARK  Name = 980
REMARK  2 active torsions:
REMARK  status: ('A' for Active; 'I' for Inactive)
REMARK    1  A    between atoms: C_1  and  N_9
REMARK    2  A    between atoms: C_4  and  O_10
REMARK                            x       y       z     vdW  Elec       q    Type
REMARK                         _______ _______ _______ _____ _____    ______ ____
ROOT
ATOM      1  C   UNL     1      35.179 -19.543 -20.938  0.00  0.00    +0.143 C 
ATOM      2  C   UNL     1      33.793 -19.401 -20.986  0.00  0.00    +0.027 C 
ATOM      3  C   UNL     1      35.749 -20.597 -20.221  0.00  0.00    +0.027 C 
ATOM      4  C   UNL     1      33.544 -21.365 -19.602  0.00  0.00    +0.134 C 
ATOM      5  C   UNL     1      32.975 -20.312 -20.318  0.00  0.00    +0.038 C 
ATOM      6  C   UNL     1      34.931 -21.507 -19.553  0.00  0.00    +0.038 C 
ENDROOT
BRANCH   1   9
ATOM      7  O   UNL     1      35.485 -17.648 -22.216  0.00  0.00    -0.126 OA
ATOM      8  O   UNL     1      37.256 -18.793 -21.605  0.00  0.00    -0.126 OA
ATOM      9  N   UNL     1      36.013 -18.617 -21.619  0.00  0.00    +0.058 N 
ENDBRANCH   1   9
BRANCH   4  10
ATOM     10  O   UNL     1      32.745 -22.253 -18.949  0.00  0.00    -0.506 OA
ATOM     11  H   UNL     1      33.100 -23.063 -18.639  0.00  0.00    +0.292 HD
ENDBRANCH   4  10
TORSDOF 2
ENDMDL
MODEL 5
REMARK VINA RESULT:      -6.2      7.677      8.494
REMARK  Name = 980
REMARK  2 active torsions:
REMARK  status: ('A' for Active; 'I' for Inactive)
REMARK    1  A    between atoms: C_1  and  N_9
REMARK    2  A    between atoms: C_4  and  O_10
REMARK                            x       y       z     vdW  Elec       q    Type
REMARK                         _______ _______ _______ _____ _____    ______ ____
ROOT
ATOM      1  C   UNL     1      35.153 -19.569 -20.956  0.00  0.00    +0.143 C 
ATOM      2  C   UNL     1      35.729 -20.605 -20.222  0.00  0.00    +0.027 C 
ATOM      3  C   UNL     1      33.764 -19.433 -21.000  0.00  0.00    +0.027 C 
ATOM      4  C   UNL     1      33.531 -21.371 -19.576  0.00  0.00    +0.134 C 
ATOM      5  C   UNL     1      34.918 -21.506 -19.531  0.00  0.00    +0.038 C 
ATOM      6  C   UNL     1      32.954 -20.334 -20.311  0.00  0.00    +0.038 C 
ENDROOT
BRANCH   1   9
ATOM      7  O   UNL     1      37.223 -18.787 -21.603  0.00  0.00    -0.126 OA
ATOM      8  O   UNL     1      35.438 -17.727 -22.314  0.00  0.00    -0.126 OA
ATOM      9  N   UNL     1      35.977 -18.651 -21.658  0.00  0.00    +0.058 N 
ENDBRANCH   1   9
BRANCH   4  10
ATOM     10  O   UNL     1      32.740 -22.250 -18.903  0.00  0.00    -0.506 OA
ATOM     11  H   UNL     1      32.723 -23.153 -19.154  0.00  0.00    +0.292 HD
ENDBRANCH   4  10
TORSDOF 2
ENDMDL
MODEL 6
REMARK VINA RESULT:      -6.2      7.544      8.687
REMARK  Name = 980
REMARK  2 active torsions:
REMARK  status: ('A' for Active; 'I' for Inactive)
REMARK    1  A    between atoms: C_1  and  N_9
REMARK    2  A    between atoms: C_4  and  O_10
REMARK                            x       y       z     vdW  Elec       q    Type
REMARK                         _______ _______ _______ _____ _____    ______ ____
ROOT
ATOM      1  C   UNL     1      37.365 -24.735 -12.839  0.00  0.00    +0.143 C 
ATOM      2  C   UNL     1      38.279 -25.736 -13.167  0.00  0.00    +0.027 C 
ATOM      3  C   UNL     1      36.241 -24.527 -13.639  0.00  0.00    +0.027 C 
ATOM      4  C   UNL     1      36.946 -26.321 -15.094  0.00  0.00    +0.134 C 
ATOM      5  C   UNL     1      38.069 -26.530 -14.294  0.00  0.00    +0.038 C 
ATOM      6  C   UNL     1      36.032 -25.320 -14.766  0.00  0.00    +0.038 C 
ENDROOT
BRANCH   1   9
ATOM      7  O   UNL     1      36.824 -24.074 -10.697  0.00  0.00    -0.126 OA
ATOM      8  O   UNL     1      38.511 -23.090 -11.699  0.00  0.00    -0.126 OA
ATOM      9  N   UNL     1      37.577 -23.928 -11.690  0.00  0.00    +0.058 N 
ENDBRANCH   1   9
BRANCH   4  10
ATOM     10  O   UNL     1      36.742 -27.095 -16.195  0.00  0.00    -0.506 OA
ATOM     11  H   UNL     1      36.868 -28.022 -16.147  0.00  0.00    +0.292 HD
ENDBRANCH   4  10
TORSDOF 2
ENDMDL
MODEL 7
REMARK VINA RESULT:      -6.1     11.041     12.303
REMARK  Name = 980
REMARK  2 active torsions:
REMARK  status: ('A' for Active; 'I' for Inactive)
REMARK    1  A    between atoms: C_1  and  N_9
REMARK    2  A    between atoms: C_4  and  O_10
REMARK                            x       y       z     vdW  Elec       q    Type
REMARK                         _______ _______ _______ _____ _____    ______ ____
ROOT
ATOM      1  C   UNL     1      34.648 -16.311 -22.443  0.00  0.00    +0.143 C 
ATOM      2  C   UNL     1      33.906 -15.191 -22.814  0.00  0.00    +0.027 C 
ATOM      3  C   UNL     1      35.060 -17.228 -23.411  0.00  0.00    +0.027 C 
ATOM      4  C   UNL     1      33.986 -15.902 -25.122  0.00  0.00    +0.134 C 
ATOM      5  C   UNL     1      33.575 -14.986 -24.154  0.00  0.00    +0.038 C 
ATOM      6  C   UNL     1      34.728 -17.023 -24.750  0.00  0.00    +0.038 C 
ENDROOT
BRANCH   1   9
ATOM      7  O   UNL     1      34.888 -15.562 -20.275  0.00  0.00    -0.126 OA
ATOM      8  O   UNL     1      35.378 -17.655 -20.717  0.00  0.00    -0.126 OA
ATOM      9  N   UNL     1      34.988 -16.519 -21.080  0.00  0.00    +0.058 N 
ENDBRANCH   1   9
BRANCH   4  10
ATOM     10  O   UNL     1      33.662 -15.703 -26.428  0.00  0.00    -0.506 OA
ATOM     11  H   UNL     1      34.337 -15.632 -27.073  0.00  0.00    +0.292 HD
ENDBRANCH   4  10
TORSDOF 2
ENDMDL
MODEL 8
REMARK VINA RESULT:      -6.0     10.048     11.390
REMARK  Name = 980
REMARK  2 active torsions:
REMARK  status: ('A' for Active; 'I' for Inactive)
REMARK    1  A    between atoms: C_1  and  N_9
REMARK    2  A    between atoms: C_4  and  O_10
REMARK                            x       y       z     vdW  Elec       q    Type
REMARK                         _______ _______ _______ _____ _____    ______ ____
ROOT
ATOM      1  C   UNL     1      35.079 -18.510 -22.366  0.00  0.00    +0.143 C 
ATOM      2  C   UNL     1      34.753 -19.216 -23.522  0.00  0.00    +0.027 C 
ATOM      3  C   UNL     1      35.209 -17.121 -22.409  0.00  0.00    +0.027 C 
ATOM      4  C   UNL     1      34.690 -17.147 -24.768  0.00  0.00    +0.134 C 
ATOM      5  C   UNL     1      34.558 -18.535 -24.724  0.00  0.00    +0.038 C 
ATOM      6  C   UNL     1      35.015 -16.441 -23.610  0.00  0.00    +0.038 C 
ENDROOT
BRANCH   1   9
ATOM      7  O   UNL     1      34.400 -20.014 -20.754  0.00  0.00    -0.126 OA
ATOM      8  O   UNL     1      36.319 -18.984 -20.480  0.00  0.00    -0.126 OA
ATOM      9  N   UNL     1      35.275 -19.202 -21.142  0.00  0.00    +0.058 N 
ENDBRANCH   1   9
BRANCH   4  10
ATOM     10  O   UNL     1      34.500 -16.483 -25.940  0.00  0.00    -0.506 OA
ATOM     11  H   UNL     1      33.632 -16.303 -26.243  0.00  0.00    +0.292 HD
ENDBRANCH   4  10
TORSDOF 2
ENDMDL
MODEL 9
REMARK VINA RESULT:      -6.0      7.295      8.469
REMARK  Name = 980
REMARK  2 active torsions:
REMARK  status: ('A' for Active; 'I' for Inactive)
REMARK    1  A    between atoms: C_1  and  N_9
REMARK    2  A    between atoms: C_4  and  O_10
REMARK                            x       y       z     vdW  Elec       q    Type
REMARK                         _______ _______ _______ _____ _____    ______ ____
ROOT
ATOM      1  C   UNL     1      37.216 -25.436 -13.904  0.00  0.00    +0.143 C 
ATOM      2  C   UNL     1      36.157 -24.532 -13.840  0.00  0.00    +0.027 C 
ATOM      3  C   UNL     1      38.302 -25.302 -13.038  0.00  0.00    +0.027 C 
ATOM      4  C   UNL     1      37.268 -23.358 -12.044  0.00  0.00    +0.134 C 
ATOM      5  C   UNL     1      36.182 -23.493 -12.909  0.00  0.00    +0.038 C 
ATOM      6  C   UNL     1      38.327 -24.263 -12.108  0.00  0.00    +0.038 C 
ENDROOT
BRANCH   1   9
ATOM      7  O   UNL     1      36.211 -26.592 -15.628  0.00  0.00    -0.126 OA
ATOM      8  O   UNL     1      38.147 -27.306 -14.881  0.00  0.00    -0.126 OA
ATOM      9  N   UNL     1      37.190 -26.495 -14.849  0.00  0.00    +0.058 N 
ENDBRANCH   1   9
BRANCH   4  10
ATOM     10  O   UNL     1      37.293 -22.344 -11.137  0.00  0.00    -0.506 OA
ATOM     11  H   UNL     1      38.111 -22.028 -10.809  0.00  0.00    +0.292 HD
ENDBRANCH   4  10
TORSDOF 2
ENDMDL
