MODEL 1
REMARK VINA RESULT:      -5.5      0.000      0.000
REMARK  Name = 3072
REMARK  4 active torsions:
REMARK  status: ('A' for Active; 'I' for Inactive)
REMARK    1  A    between atoms: P_1  and  O_4
REMARK    2  A    between atoms: P_1  and  O_8
REMARK    3  A    between atoms: O_4  and  C_5
REMARK    4  A    between atoms: O_8  and  C_9
REMARK                            x       y       z     vdW  Elec       q    Type
REMARK                         _______ _______ _______ _____ _____    ______ ____
ROOT
ATOM      1  P   UNL     1      34.887 -17.420 -21.308  0.00  0.00    +0.322 P 
ATOM      2  O   UNL     1      35.057 -16.087 -20.626  0.00  0.00    -0.262 OA
ATOM      3  H   UNL     1      33.927 -18.305 -20.863  0.00  0.00    +0.160 HD
ENDROOT
BRANCH   1   4
ATOM      4  O   UNL     1      35.825 -18.566 -20.633  0.00  0.00    -0.299 OA
BRANCH   4   5
ATOM      5  C   UNL     1      35.449 -19.917 -20.832  0.00  0.00    +0.124 C 
ATOM      6  C   UNL     1      36.255 -20.805 -19.896  0.00  0.00    +0.033 C 
ATOM      7  C   UNL     1      33.953 -20.060 -20.601  0.00  0.00    +0.033 C 
ENDBRANCH   4   5
ENDBRANCH   1   4
BRANCH   1   8
ATOM      8  O   UNL     1      35.470 -17.385 -22.827  0.00  0.00    -0.299 OA
BRANCH   8   9
ATOM      9  C   UNL     1      34.599 -17.741 -23.887  0.00  0.00    +0.124 C 
ATOM     10  C   UNL     1      34.802 -16.778 -25.046  0.00  0.00    +0.033 C 
ATOM     11  C   UNL     1      34.870 -19.182 -24.293  0.00  0.00    +0.033 C 
ENDBRANCH   8   9
ENDBRANCH   1   8
TORSDOF 4
ENDMDL
MODEL 2
REMARK VINA RESULT:      -5.3      0.932      1.423
REMARK  Name = 3072
REMARK  4 active torsions:
REMARK  status: ('A' for Active; 'I' for Inactive)
REMARK    1  A    between atoms: P_1  and  O_4
REMARK    2  A    between atoms: P_1  and  O_8
REMARK    3  A    between atoms: O_4  and  C_5
REMARK    4  A    between atoms: O_8  and  C_9
REMARK                            x       y       z     vdW  Elec       q    Type
REMARK                         _______ _______ _______ _____ _____    ______ ____
ROOT
ATOM      1  P   UNL     1      34.778 -16.929 -21.331  0.00  0.00    +0.322 P 
ATOM      2  O   UNL     1      34.878 -15.734 -20.418  0.00  0.00    -0.262 OA
ATOM      3  H   UNL     1      33.692 -17.776 -21.243  0.00  0.00    +0.160 HD
ENDROOT
BRANCH   1   4
ATOM      4  O   UNL     1      35.476 -18.246 -20.679  0.00  0.00    -0.299 OA
BRANCH   4   5
ATOM      5  C   UNL     1      35.021 -19.512 -21.120  0.00  0.00    +0.124 C 
ATOM      6  C   UNL     1      35.733 -20.603 -20.335  0.00  0.00    +0.033 C 
ATOM      7  C   UNL     1      33.512 -19.588 -20.954  0.00  0.00    +0.033 C 
ENDBRANCH   4   5
ENDBRANCH   1   4
BRANCH   1   8
ATOM      8  O   UNL     1      35.673 -16.723 -22.674  0.00  0.00    -0.299 OA
BRANCH   8   9
ATOM      9  C   UNL     1      35.000 -16.518 -23.904  0.00  0.00    +0.124 C 
ATOM     10  C   UNL     1      34.573 -17.863 -24.471  0.00  0.00    +0.033 C 
ATOM     11  C   UNL     1      33.812 -15.596 -23.676  0.00  0.00    +0.033 C 
ENDBRANCH   8   9
ENDBRANCH   1   8
TORSDOF 4
ENDMDL
MODEL 3
REMARK VINA RESULT:      -5.3      0.990      4.076
REMARK  Name = 3072
REMARK  4 active torsions:
REMARK  status: ('A' for Active; 'I' for Inactive)
REMARK    1  A    between atoms: P_1  and  O_4
REMARK    2  A    between atoms: P_1  and  O_8
REMARK    3  A    between atoms: O_4  and  C_5
REMARK    4  A    between atoms: O_8  and  C_9
REMARK                            x       y       z     vdW  Elec       q    Type
REMARK                         _______ _______ _______ _____ _____    ______ ____
ROOT
ATOM      1  P   UNL     1      34.902 -17.599 -21.470  0.00  0.00    +0.322 P 
ATOM      2  O   UNL     1      35.209 -16.572 -20.411  0.00  0.00    -0.262 OA
ATOM      3  H   UNL     1      35.865 -17.943 -22.397  0.00  0.00    +0.160 HD
ENDROOT
BRANCH   1   4
ATOM      4  O   UNL     1      34.286 -16.915 -22.812  0.00  0.00    -0.299 OA
BRANCH   4   5
ATOM      5  C   UNL     1      34.903 -17.230 -24.047  0.00  0.00    +0.124 C 
ATOM      6  C   UNL     1      34.829 -18.732 -24.276  0.00  0.00    +0.033 C 
ATOM      7  C   UNL     1      34.219 -16.453 -25.161  0.00  0.00    +0.033 C 
ENDBRANCH   4   5
ENDBRANCH   1   4
BRANCH   1   8
ATOM      8  O   UNL     1      33.678 -18.570 -21.015  0.00  0.00    -0.299 OA
BRANCH   8   9
ATOM      9  C   UNL     1      33.918 -19.965 -20.949  0.00  0.00    +0.124 C 
ATOM     10  C   UNL     1      35.364 -20.205 -20.542  0.00  0.00    +0.033 C 
ATOM     11  C   UNL     1      32.941 -20.595 -19.968  0.00  0.00    +0.033 C 
ENDBRANCH   8   9
ENDBRANCH   1   8
TORSDOF 4
ENDMDL
MODEL 4
REMARK VINA RESULT:      -5.3      9.051     11.149
REMARK  Name = 3072
REMARK  4 active torsions:
REMARK  status: ('A' for Active; 'I' for Inactive)
REMARK    1  A    between atoms: P_1  and  O_4
REMARK    2  A    between atoms: P_1  and  O_8
REMARK    3  A    between atoms: O_4  and  C_5
REMARK    4  A    between atoms: O_8  and  C_9
REMARK                            x       y       z     vdW  Elec       q    Type
REMARK                         _______ _______ _______ _____ _____    ______ ____
ROOT
ATOM      1  P   UNL     1      36.781 -26.665 -15.171  0.00  0.00    +0.322 P 
ATOM      2  O   UNL     1      36.594 -27.469 -16.432  0.00  0.00    -0.262 OA
ATOM      3  H   UNL     1      35.690 -26.340 -14.392  0.00  0.00    +0.160 HD
ENDROOT
BRANCH   1   4
ATOM      4  O   UNL     1      36.675 -25.066 -15.455  0.00  0.00    -0.299 OA
BRANCH   4   5
ATOM      5  C   UNL     1      35.427 -24.442 -15.211  0.00  0.00    +0.124 C 
ATOM      6  C   UNL     1      35.164 -24.415 -13.713  0.00  0.00    +0.033 C 
ATOM      7  C   UNL     1      35.442 -23.043 -15.808  0.00  0.00    +0.033 C 
ENDBRANCH   4   5
ENDBRANCH   1   4
BRANCH   1   8
ATOM      8  O   UNL     1      38.304 -26.790 -14.611  0.00  0.00    -0.299 OA
BRANCH   8   9
ATOM      9  C   UNL     1      38.926 -25.625 -14.097  0.00  0.00    +0.124 C 
ATOM     10  C   UNL     1      38.554 -25.465 -12.631  0.00  0.00    +0.033 C 
ATOM     11  C   UNL     1      40.431 -25.735 -14.291  0.00  0.00    +0.033 C 
ENDBRANCH   8   9
ENDBRANCH   1   8
TORSDOF 4
ENDMDL
MODEL 5
REMARK VINA RESULT:      -5.2      2.308      4.373
REMARK  Name = 3072
REMARK  4 active torsions:
REMARK  status: ('A' for Active; 'I' for Inactive)
REMARK    1  A    between atoms: P_1  and  O_4
REMARK    2  A    between atoms: P_1  and  O_8
REMARK    3  A    between atoms: O_4  and  C_5
REMARK    4  A    between atoms: O_8  and  C_9
REMARK                            x       y       z     vdW  Elec       q    Type
REMARK                         _______ _______ _______ _____ _____    ______ ____
ROOT
ATOM      1  P   UNL     1      34.796 -17.448 -21.603  0.00  0.00    +0.322 P 
ATOM      2  O   UNL     1      35.729 -17.409 -22.786  0.00  0.00    -0.262 OA
ATOM      3  H   UNL     1      33.553 -16.853 -21.685  0.00  0.00    +0.160 HD
ENDROOT
BRANCH   1   4
ATOM      4  O   UNL     1      35.011 -16.165 -20.626  0.00  0.00    -0.299 OA
BRANCH   4   5
ATOM      5  C   UNL     1      34.122 -15.073 -20.777  0.00  0.00    +0.124 C 
ATOM      6  C   UNL     1      34.379 -14.398 -22.115  0.00  0.00    +0.033 C 
ATOM      7  C   UNL     1      32.690 -15.572 -20.659  0.00  0.00    +0.033 C 
ENDBRANCH   4   5
ENDBRANCH   1   4
BRANCH   1   8
ATOM      8  O   UNL     1      35.161 -18.677 -20.602  0.00  0.00    -0.299 OA
BRANCH   8   9
ATOM      9  C   UNL     1      34.581 -19.945 -20.859  0.00  0.00    +0.124 C 
ATOM     10  C   UNL     1      35.185 -20.971 -19.913  0.00  0.00    +0.033 C 
ATOM     11  C   UNL     1      33.072 -19.846 -20.698  0.00  0.00    +0.033 C 
ENDBRANCH   8   9
ENDBRANCH   1   8
TORSDOF 4
ENDMDL
MODEL 6
REMARK VINA RESULT:      -5.2     10.504     11.929
REMARK  Name = 3072
REMARK  4 active torsions:
REMARK  status: ('A' for Active; 'I' for Inactive)
REMARK    1  A    between atoms: P_1  and  O_4
REMARK    2  A    between atoms: P_1  and  O_8
REMARK    3  A    between atoms: O_4  and  C_5
REMARK    4  A    between atoms: O_8  and  C_9
REMARK                            x       y       z     vdW  Elec       q    Type
REMARK                         _______ _______ _______ _____ _____    ______ ____
ROOT
ATOM      1  P   UNL     1      36.122 -24.221 -11.393  0.00  0.00    +0.322 P 
ATOM      2  O   UNL     1      36.112 -24.074  -9.894  0.00  0.00    -0.262 OA
ATOM      3  H   UNL     1      36.340 -23.118 -12.193  0.00  0.00    +0.160 HD
ENDROOT
BRANCH   1   4
ATOM      4  O   UNL     1      34.639 -24.012 -12.029  0.00  0.00    -0.299 OA
BRANCH   4   5
ATOM      5  C   UNL     1      34.478 -24.275 -13.411  0.00  0.00    +0.124 C 
ATOM      6  C   UNL     1      33.011 -24.122 -13.784  0.00  0.00    +0.033 C 
ATOM      7  C   UNL     1      35.366 -23.332 -14.207  0.00  0.00    +0.033 C 
ENDBRANCH   4   5
ENDBRANCH   1   4
BRANCH   1   8
ATOM      8  O   UNL     1      36.447 -25.752 -11.835  0.00  0.00    -0.299 OA
BRANCH   8   9
ATOM      9  C   UNL     1      37.653 -26.007 -12.534  0.00  0.00    +0.124 C 
ATOM     10  C   UNL     1      37.326 -26.604 -13.895  0.00  0.00    +0.033 C 
ATOM     11  C   UNL     1      38.442 -24.713 -12.659  0.00  0.00    +0.033 C 
ENDBRANCH   8   9
ENDBRANCH   1   8
TORSDOF 4
ENDMDL
MODEL 7
REMARK VINA RESULT:      -5.1      1.875      4.524
REMARK  Name = 3072
REMARK  4 active torsions:
REMARK  status: ('A' for Active; 'I' for Inactive)
REMARK    1  A    between atoms: P_1  and  O_4
REMARK    2  A    between atoms: P_1  and  O_8
REMARK    3  A    between atoms: O_4  and  C_5
REMARK    4  A    between atoms: O_8  and  C_9
REMARK                            x       y       z     vdW  Elec       q    Type
REMARK                         _______ _______ _______ _____ _____    ______ ____
ROOT
ATOM      1  P   UNL     1      34.630 -16.502 -21.389  0.00  0.00    +0.322 P 
ATOM      2  O   UNL     1      34.902 -15.613 -20.203  0.00  0.00    -0.262 OA
ATOM      3  H   UNL     1      35.480 -16.480 -22.476  0.00  0.00    +0.160 HD
ENDROOT
BRANCH   1   4
ATOM      4  O   UNL     1      33.689 -15.762 -22.493  0.00  0.00    -0.299 OA
BRANCH   4   5
ATOM      5  C   UNL     1      34.333 -15.154 -23.597  0.00  0.00    +0.124 C 
ATOM      6  C   UNL     1      33.968 -15.905 -24.868  0.00  0.00    +0.033 C 
ATOM      7  C   UNL     1      33.929 -13.690 -23.668  0.00  0.00    +0.033 C 
ENDBRANCH   4   5
ENDBRANCH   1   4
BRANCH   1   8
ATOM      8  O   UNL     1      33.701 -17.772 -20.977  0.00  0.00    -0.299 OA
BRANCH   8   9
ATOM      9  C   UNL     1      34.241 -19.074 -21.125  0.00  0.00    +0.124 C 
ATOM     10  C   UNL     1      33.212 -20.097 -20.668  0.00  0.00    +0.033 C 
ATOM     11  C   UNL     1      34.644 -19.286 -22.576  0.00  0.00    +0.033 C 
ENDBRANCH   8   9
ENDBRANCH   1   8
TORSDOF 4
ENDMDL
MODEL 8
REMARK VINA RESULT:      -5.1      1.902      2.607
REMARK  Name = 3072
REMARK  4 active torsions:
REMARK  status: ('A' for Active; 'I' for Inactive)
REMARK    1  A    between atoms: P_1  and  O_4
REMARK    2  A    between atoms: P_1  and  O_8
REMARK    3  A    between atoms: O_4  and  C_5
REMARK    4  A    between atoms: O_8  and  C_9
REMARK                            x       y       z     vdW  Elec       q    Type
REMARK                         _______ _______ _______ _____ _____    ______ ____
ROOT
ATOM      1  P   UNL     1      34.484 -16.091 -21.391  0.00  0.00    +0.322 P 
ATOM      2  O   UNL     1      34.954 -15.339 -20.173  0.00  0.00    -0.262 OA
ATOM      3  H   UNL     1      33.468 -17.018 -21.281  0.00  0.00    +0.160 HD
ENDROOT
BRANCH   1   4
ATOM      4  O   UNL     1      35.315 -17.474 -21.602  0.00  0.00    -0.299 OA
BRANCH   4   5
ATOM      5  C   UNL     1      34.594 -18.607 -22.051  0.00  0.00    +0.124 C 
ATOM      6  C   UNL     1      35.038 -18.959 -23.462  0.00  0.00    +0.033 C 
ATOM      7  C   UNL     1      34.817 -19.758 -21.083  0.00  0.00    +0.033 C 
ENDBRANCH   4   5
ENDBRANCH   1   4
BRANCH   1   8
ATOM      8  O   UNL     1      34.848 -15.287 -22.759  0.00  0.00    -0.299 OA
BRANCH   8   9
ATOM      9  C   UNL     1      33.787 -14.924 -23.625  0.00  0.00    +0.124 C 
ATOM     10  C   UNL     1      33.841 -13.426 -23.882  0.00  0.00    +0.033 C 
ATOM     11  C   UNL     1      33.898 -15.724 -24.914  0.00  0.00    +0.033 C 
ENDBRANCH   8   9
ENDBRANCH   1   8
TORSDOF 4
ENDMDL
MODEL 9
REMARK VINA RESULT:      -5.1      2.199      2.749
REMARK  Name = 3072
REMARK  4 active torsions:
REMARK  status: ('A' for Active; 'I' for Inactive)
REMARK    1  A    between atoms: P_1  and  O_4
REMARK    2  A    between atoms: P_1  and  O_8
REMARK    3  A    between atoms: O_4  and  C_5
REMARK    4  A    between atoms: O_8  and  C_9
REMARK                            x       y       z     vdW  Elec       q    Type
REMARK                         _______ _______ _______ _____ _____    ______ ____
ROOT
ATOM      1  P   UNL     1      35.238 -18.004 -21.795  0.00  0.00    +0.322 P 
ATOM      2  O   UNL     1      34.761 -18.793 -22.986  0.00  0.00    -0.262 OA
ATOM      3  H   UNL     1      36.585 -17.755 -21.626  0.00  0.00    +0.160 HD
ENDROOT
BRANCH   1   4
ATOM      4  O   UNL     1      35.567 -18.969 -20.526  0.00  0.00    -0.299 OA
BRANCH   4   5
ATOM      5  C   UNL     1      35.209 -20.334 -20.634  0.00  0.00    +0.124 C 
ATOM      6  C   UNL     1      36.171 -21.172 -19.806  0.00  0.00    +0.033 C 
ATOM      7  C   UNL     1      33.768 -20.512 -20.180  0.00  0.00    +0.033 C 
ENDBRANCH   4   5
ENDBRANCH   1   4
BRANCH   1   8
ATOM      8  O   UNL     1      34.050 -17.072 -21.188  0.00  0.00    -0.299 OA
BRANCH   8   9
ATOM      9  C   UNL     1      34.254 -15.670 -21.145  0.00  0.00    +0.124 C 
ATOM     10  C   UNL     1      34.495 -15.156 -22.556  0.00  0.00    +0.033 C 
ATOM     11  C   UNL     1      33.046 -15.009 -20.500  0.00  0.00    +0.033 C 
ENDBRANCH   8   9
ENDBRANCH   1   8
TORSDOF 4
ENDMDL
