MODEL 1
REMARK VINA RESULT:     -10.2      0.000      0.000
REMARK  Name = 5494414
REMARK  8 active torsions:
REMARK  status: ('A' for Active; 'I' for Inactive)
REMARK    1  A    between atoms: N_1  and  C_12
REMARK    2  A    between atoms: N_2  and  CA_26
REMARK    3  A    between atoms: N_15  and  C_17
REMARK    4  A    between atoms: C_17  and  C_18
REMARK    5  A    between atoms: C_19  and  O_24
REMARK    6  A    between atoms: CA_26  and  C_27
REMARK    7  A    between atoms: CA_26  and  C_29
REMARK    8  A    between atoms: C_29  and  O_30
REMARK                            x       y       z     vdW  Elec       q    Type
REMARK                         _______ _______ _______ _____ _____    ______ ____
ROOT
ATOM      1  N   UNL     1      36.392 -23.653 -14.098  0.00  0.00    -0.262 N 
ATOM      2  N   UNL     1      31.887 -23.958 -15.574  0.00  0.00    -0.258 N 
ATOM      3  N   UNL     1      34.042 -23.888 -14.664  0.00  0.00    -0.311 NA
ATOM      4  N   UNL     1      37.159 -22.778 -16.000  0.00  0.00    -0.240 NA
ATOM      5  N   UNL     1      33.594 -23.108 -16.934  0.00  0.00    -0.311 NA
ATOM      6  C   UNL     1      35.312 -23.544 -14.927  0.00  0.00    +0.220 C 
ATOM      7  C   UNL     1      35.808 -23.001 -16.101  0.00  0.00    +0.167 C 
ATOM      8  C   UNL     1      34.896 -22.783 -17.128  0.00  0.00    +0.215 C 
ATOM      9  C   UNL     1      33.223 -23.640 -15.728  0.00  0.00    +0.202 C 
ATOM     10  C   UNL     1      37.477 -23.180 -14.787  0.00  0.00    +0.222 C 
ATOM     11  H   UNL     1      31.277 -23.786 -16.327  0.00  0.00    +0.160 HD
ATOM     12  N   UNL     1      35.312 -22.235 -18.354  0.00  0.00    -0.302 N 
ATOM     13  H   UNL     1      36.263 -22.009 -18.469  0.00  0.00    +0.150 HD
ENDROOT
BRANCH   1  14
ATOM     14  C   UNL     1      36.399 -24.166 -12.749  0.00  0.00    +0.077 C 
ATOM     15  C   UNL     1      37.089 -25.529 -12.658  0.00  0.00    +0.022 C 
ATOM     16  C   UNL     1      36.994 -23.165 -11.759  0.00  0.00    +0.022 C 
ENDBRANCH   1  14
BRANCH  12  17
ATOM     17  C   UNL     1      34.416 -21.992 -19.445  0.00  0.00    +0.119 C 
BRANCH  17  18
ATOM     18  C   UNL     1      34.779 -20.715 -20.151  0.00  0.00    +0.031 C 
ATOM     19  C   UNL     1      33.788 -19.911 -20.700  0.00  0.00    +0.131 C 
ATOM     20  C   UNL     1      36.118 -20.356 -20.244  0.00  0.00    +0.000 C 
ATOM     21  C   UNL     1      34.141 -18.729 -21.351  0.00  0.00    +0.036 C 
ATOM     22  C   UNL     1      36.471 -19.174 -20.895  0.00  0.00    -0.000 C 
ATOM     23  C   UNL     1      35.483 -18.360 -21.449  0.00  0.00    +0.003 C 
BRANCH  19  24
ATOM     24  O   UNL     1      32.472 -20.255 -20.614  0.00  0.00    -0.506 OA
ATOM     25  H   UNL     1      31.816 -19.688 -20.967  0.00  0.00    +0.292 HD
ENDBRANCH  19  24
ENDBRANCH  17  18
ENDBRANCH  12  17
BRANCH   2  26
ATOM     26  CA  UNL     1      31.336 -24.531 -14.360  0.00  0.00    +0.109 C 
BRANCH  26  27
ATOM     27  C   UNL     1      30.136 -25.423 -14.705  0.00  0.00    +0.023 C 
ATOM     28  C   UNL     1      28.964 -24.637 -15.279  0.00  0.00    +0.002 C 
ENDBRANCH  26  27
BRANCH  26  29
ATOM     29  C   UNL     1      30.919 -23.397 -13.425  0.00  0.00    +0.157 C 
BRANCH  29  30
ATOM     30  O   UNL     1      32.047 -22.966 -12.673  0.00  0.00    -0.380 OA
ATOM     31  H   UNL     1      32.374 -23.700 -12.130  0.00  0.00    +0.211 HD
ENDBRANCH  29  30
ENDBRANCH  26  29
ENDBRANCH   2  26
TORSDOF 8
ENDMDL
MODEL 2
REMARK VINA RESULT:     -10.0      1.556      4.414
REMARK  Name = 5494414
REMARK  8 active torsions:
REMARK  status: ('A' for Active; 'I' for Inactive)
REMARK    1  A    between atoms: N_1  and  C_12
REMARK    2  A    between atoms: N_2  and  CA_26
REMARK    3  A    between atoms: N_15  and  C_17
REMARK    4  A    between atoms: C_17  and  C_18
REMARK    5  A    between atoms: C_19  and  O_24
REMARK    6  A    between atoms: CA_26  and  C_27
REMARK    7  A    between atoms: CA_26  and  C_29
REMARK    8  A    between atoms: C_29  and  O_30
REMARK                            x       y       z     vdW  Elec       q    Type
REMARK                         _______ _______ _______ _____ _____    ______ ____
ROOT
ATOM      1  N   UNL     1      31.679 -23.885 -15.325  0.00  0.00    -0.262 N 
ATOM      2  N   UNL     1      36.418 -24.170 -15.176  0.00  0.00    -0.258 N 
ATOM      3  N   UNL     1      34.081 -24.128 -15.065  0.00  0.00    -0.311 NA
ATOM      4  N   UNL     1      31.611 -22.845 -17.296  0.00  0.00    -0.240 NA
ATOM      5  N   UNL     1      35.280 -23.178 -16.967  0.00  0.00    -0.311 NA
ATOM      6  C   UNL     1      32.978 -23.735 -15.719  0.00  0.00    +0.220 C 
ATOM      7  C   UNL     1      32.915 -23.087 -16.942  0.00  0.00    +0.167 C 
ATOM      8  C   UNL     1      34.124 -22.810 -17.570  0.00  0.00    +0.215 C 
ATOM      9  C   UNL     1      35.216 -23.814 -15.756  0.00  0.00    +0.202 C 
ATOM     10  C   UNL     1      30.896 -23.335 -16.305  0.00  0.00    +0.222 C 
ATOM     11  H   UNL     1      37.250 -23.954 -15.657  0.00  0.00    +0.160 HD
ATOM     12  N   UNL     1      34.154 -22.155 -18.814  0.00  0.00    -0.302 N 
ATOM     13  H   UNL     1      33.299 -21.898 -19.230  0.00  0.00    +0.150 HD
ENDROOT
BRANCH   1  14
ATOM     14  C   UNL     1      31.210 -24.506 -14.110  0.00  0.00    +0.077 C 
ATOM     15  C   UNL     1      30.955 -23.480 -13.004  0.00  0.00    +0.022 C 
ATOM     16  C   UNL     1      29.985 -25.389 -14.355  0.00  0.00    +0.022 C 
ENDBRANCH   1  14
BRANCH  12  17
ATOM     17  C   UNL     1      35.370 -21.843 -19.504  0.00  0.00    +0.119 C 
BRANCH  17  18
ATOM     18  C   UNL     1      35.231 -20.550 -20.259  0.00  0.00    +0.031 C 
ATOM     19  C   UNL     1      33.980 -20.110 -20.672  0.00  0.00    +0.131 C 
ATOM     20  C   UNL     1      36.372 -19.807 -20.535  0.00  0.00    +0.000 C 
ATOM     21  C   UNL     1      33.867 -18.909 -21.371  0.00  0.00    +0.036 C 
ATOM     22  C   UNL     1      36.260 -18.605 -21.234  0.00  0.00    -0.000 C 
ATOM     23  C   UNL     1      35.007 -18.156 -21.652  0.00  0.00    +0.003 C 
BRANCH  19  24
ATOM     24  O   UNL     1      32.855 -20.833 -20.407  0.00  0.00    -0.506 OA
ATOM     25  H   UNL     1      32.358 -21.201 -21.111  0.00  0.00    +0.292 HD
ENDBRANCH  19  24
ENDBRANCH  17  18
ENDBRANCH  12  17
BRANCH   2  26
ATOM     26  CA  UNL     1      36.520 -24.845 -13.896  0.00  0.00    +0.109 C 
BRANCH  26  27
ATOM     27  C   UNL     1      37.549 -24.130 -13.011  0.00  0.00    +0.023 C 
ATOM     28  C   UNL     1      36.905 -23.159 -12.027  0.00  0.00    +0.002 C 
ENDBRANCH  26  27
BRANCH  26  29
ATOM     29  C   UNL     1      36.928 -26.298 -14.137  0.00  0.00    +0.157 C 
BRANCH  29  30
ATOM     30  O   UNL     1      35.987 -26.914 -15.008  0.00  0.00    -0.380 OA
ATOM     31  H   UNL     1      36.175 -26.655 -15.924  0.00  0.00    +0.211 HD
ENDBRANCH  29  30
ENDBRANCH  26  29
ENDBRANCH   2  26
TORSDOF 8
ENDMDL
MODEL 3
REMARK VINA RESULT:      -8.7      9.268     13.273
REMARK  Name = 5494414
REMARK  8 active torsions:
REMARK  status: ('A' for Active; 'I' for Inactive)
REMARK    1  A    between atoms: N_1  and  C_12
REMARK    2  A    between atoms: N_2  and  CA_26
REMARK    3  A    between atoms: N_15  and  C_17
REMARK    4  A    between atoms: C_17  and  C_18
REMARK    5  A    between atoms: C_19  and  O_24
REMARK    6  A    between atoms: CA_26  and  C_27
REMARK    7  A    between atoms: CA_26  and  C_29
REMARK    8  A    between atoms: C_29  and  O_30
REMARK                            x       y       z     vdW  Elec       q    Type
REMARK                         _______ _______ _______ _____ _____    ______ ____
ROOT
ATOM      1  N   UNL     1      34.308 -15.692 -22.268  0.00  0.00    -0.262 N 
ATOM      2  N   UNL     1      33.461 -12.162 -25.331  0.00  0.00    -0.258 N 
ATOM      3  N   UNL     1      34.011 -13.979 -23.963  0.00  0.00    -0.311 NA
ATOM      4  N   UNL     1      32.897 -14.941 -20.713  0.00  0.00    -0.240 NA
ATOM      5  N   UNL     1      32.395 -12.294 -23.249  0.00  0.00    -0.311 NA
ATOM      6  C   UNL     1      33.761 -14.547 -22.774  0.00  0.00    +0.220 C 
ATOM      7  C   UNL     1      32.890 -14.096 -21.796  0.00  0.00    +0.167 C 
ATOM      8  C   UNL     1      32.192 -12.924 -22.067  0.00  0.00    +0.215 C 
ATOM      9  C   UNL     1      33.283 -12.837 -24.139  0.00  0.00    +0.202 C 
ATOM     10  C   UNL     1      33.757 -15.886 -21.028  0.00  0.00    +0.222 C 
ATOM     11  H   UNL     1      32.945 -11.336 -25.480  0.00  0.00    +0.160 HD
ATOM     12  N   UNL     1      31.288 -12.394 -21.130  0.00  0.00    -0.302 N 
ATOM     13  H   UNL     1      31.160 -12.871 -20.279  0.00  0.00    +0.150 HD
ENDROOT
BRANCH   1  14
ATOM     14  C   UNL     1      35.280 -16.544 -22.909  0.00  0.00    +0.077 C 
ATOM     15  C   UNL     1      35.717 -17.697 -22.003  0.00  0.00    +0.022 C 
ATOM     16  C   UNL     1      34.792 -17.046 -24.268  0.00  0.00    +0.022 C 
ENDBRANCH   1  14
BRANCH  12  17
ATOM     17  C   UNL     1      30.544 -11.190 -21.356  0.00  0.00    +0.119 C 
BRANCH  17  18
ATOM     18  C   UNL     1      31.373  -9.985 -21.007  0.00  0.00    +0.031 C 
ATOM     19  C   UNL     1      31.867  -9.159 -22.010  0.00  0.00    +0.131 C 
ATOM     20  C   UNL     1      31.635  -9.714 -19.670  0.00  0.00    +0.000 C 
ATOM     21  C   UNL     1      32.634  -8.045 -21.670  0.00  0.00    +0.036 C 
ATOM     22  C   UNL     1      32.401  -8.600 -19.330  0.00  0.00    -0.000 C 
ATOM     23  C   UNL     1      32.901  -7.765 -20.330  0.00  0.00    +0.003 C 
BRANCH  19  24
ATOM     24  O   UNL     1      31.615  -9.418 -23.324  0.00  0.00    -0.506 OA
ATOM     25  H   UNL     1      30.999  -8.893 -23.795  0.00  0.00    +0.292 HD
ENDBRANCH  19  24
ENDBRANCH  17  18
ENDBRANCH  12  17
BRANCH   2  26
ATOM     26  CA  UNL     1      34.366 -12.604 -26.374  0.00  0.00    +0.109 C 
BRANCH  26  27
ATOM     27  C   UNL     1      35.065 -11.393 -27.005  0.00  0.00    +0.023 C 
ATOM     28  C   UNL     1      35.506 -10.363 -25.972  0.00  0.00    +0.002 C 
ENDBRANCH  26  27
BRANCH  26  29
ATOM     29  C   UNL     1      33.568 -13.379 -27.423  0.00  0.00    +0.157 C 
BRANCH  29  30
ATOM     30  O   UNL     1      33.560 -14.760 -27.084  0.00  0.00    -0.380 OA
ATOM     31  H   UNL     1      32.992 -15.243 -27.706  0.00  0.00    +0.211 HD
ENDBRANCH  29  30
ENDBRANCH  26  29
ENDBRANCH   2  26
TORSDOF 8
ENDMDL
MODEL 4
REMARK VINA RESULT:      -8.6      9.104     13.245
REMARK  Name = 5494414
REMARK  8 active torsions:
REMARK  status: ('A' for Active; 'I' for Inactive)
REMARK    1  A    between atoms: N_1  and  C_12
REMARK    2  A    between atoms: N_2  and  CA_26
REMARK    3  A    between atoms: N_15  and  C_17
REMARK    4  A    between atoms: C_17  and  C_18
REMARK    5  A    between atoms: C_19  and  O_24
REMARK    6  A    between atoms: CA_26  and  C_27
REMARK    7  A    between atoms: CA_26  and  C_29
REMARK    8  A    between atoms: C_29  and  O_30
REMARK                            x       y       z     vdW  Elec       q    Type
REMARK                         _______ _______ _______ _____ _____    ______ ____
ROOT
ATOM      1  N   UNL     1      34.312 -15.697 -22.289  0.00  0.00    -0.262 N 
ATOM      2  N   UNL     1      33.461 -12.149 -25.331  0.00  0.00    -0.258 N 
ATOM      3  N   UNL     1      34.015 -13.973 -23.974  0.00  0.00    -0.311 NA
ATOM      4  N   UNL     1      32.890 -14.964 -20.736  0.00  0.00    -0.240 NA
ATOM      5  N   UNL     1      32.386 -12.303 -23.256  0.00  0.00    -0.311 NA
ATOM      6  C   UNL     1      33.762 -14.551 -22.790  0.00  0.00    +0.220 C 
ATOM      7  C   UNL     1      32.884 -14.112 -21.813  0.00  0.00    +0.167 C 
ATOM      8  C   UNL     1      32.181 -12.942 -22.079  0.00  0.00    +0.215 C 
ATOM      9  C   UNL     1      33.281 -12.835 -24.145  0.00  0.00    +0.202 C 
ATOM     10  C   UNL     1      33.757 -15.902 -21.054  0.00  0.00    +0.222 C 
ATOM     11  H   UNL     1      32.942 -11.326 -25.477  0.00  0.00    +0.160 HD
ATOM     12  N   UNL     1      31.269 -12.423 -21.143  0.00  0.00    -0.302 N 
ATOM     13  H   UNL     1      31.140 -12.907 -20.295  0.00  0.00    +0.150 HD
ENDROOT
BRANCH   1  14
ATOM     14  C   UNL     1      35.292 -16.539 -22.932  0.00  0.00    +0.077 C 
ATOM     15  C   UNL     1      35.725 -17.700 -22.035  0.00  0.00    +0.022 C 
ATOM     16  C   UNL     1      34.816 -17.028 -24.300  0.00  0.00    +0.022 C 
ENDBRANCH   1  14
BRANCH  12  17
ATOM     17  C   UNL     1      30.521 -11.221 -21.364  0.00  0.00    +0.119 C 
BRANCH  17  18
ATOM     18  C   UNL     1      31.363 -10.013 -21.065  0.00  0.00    +0.031 C 
ATOM     19  C   UNL     1      31.772  -9.748 -19.764  0.00  0.00    +0.131 C 
ATOM     20  C   UNL     1      31.723  -9.169 -22.108  0.00  0.00    +0.000 C 
ATOM     21  C   UNL     1      32.553  -8.623 -19.501  0.00  0.00    +0.036 C 
ATOM     22  C   UNL     1      32.504  -8.044 -21.846  0.00  0.00    -0.000 C 
ATOM     23  C   UNL     1      32.920  -7.770 -20.543  0.00  0.00    +0.003 C 
BRANCH  19  24
ATOM     24  O   UNL     1      31.423 -10.569 -18.733  0.00  0.00    -0.506 OA
ATOM     25  H   UNL     1      31.288 -11.483 -18.889  0.00  0.00    +0.292 HD
ENDBRANCH  19  24
ENDBRANCH  17  18
ENDBRANCH  12  17
BRANCH   2  26
ATOM     26  CA  UNL     1      34.374 -12.580 -26.374  0.00  0.00    +0.109 C 
BRANCH  26  27
ATOM     27  C   UNL     1      35.069 -11.361 -26.993  0.00  0.00    +0.023 C 
ATOM     28  C   UNL     1      35.518 -10.346 -25.948  0.00  0.00    +0.002 C 
ENDBRANCH  26  27
BRANCH  26  29
ATOM     29  C   UNL     1      33.585 -13.351 -27.432  0.00  0.00    +0.157 C 
BRANCH  29  30
ATOM     30  O   UNL     1      33.606 -14.739 -27.118  0.00  0.00    -0.380 OA
ATOM     31  H   UNL     1      34.137 -14.882 -26.318  0.00  0.00    +0.211 HD
ENDBRANCH  29  30
ENDBRANCH  26  29
ENDBRANCH   2  26
TORSDOF 8
ENDMDL
MODEL 5
REMARK VINA RESULT:      -8.0      5.880     11.394
REMARK  Name = 5494414
REMARK  8 active torsions:
REMARK  status: ('A' for Active; 'I' for Inactive)
REMARK    1  A    between atoms: N_1  and  C_12
REMARK    2  A    between atoms: N_2  and  CA_26
REMARK    3  A    between atoms: N_15  and  C_17
REMARK    4  A    between atoms: C_17  and  C_18
REMARK    5  A    between atoms: C_19  and  O_24
REMARK    6  A    between atoms: CA_26  and  C_27
REMARK    7  A    between atoms: CA_26  and  C_29
REMARK    8  A    between atoms: C_29  and  O_30
REMARK                            x       y       z     vdW  Elec       q    Type
REMARK                         _______ _______ _______ _____ _____    ______ ____
ROOT
ATOM      1  N   UNL     1      32.458 -13.530 -21.650  0.00  0.00    -0.262 N 
ATOM      2  N   UNL     1      34.125 -15.835 -25.454  0.00  0.00    -0.258 N 
ATOM      3  N   UNL     1      33.231 -14.554 -23.712  0.00  0.00    -0.311 NA
ATOM      4  N   UNL     1      33.211 -15.023 -20.175  0.00  0.00    -0.240 NA
ATOM      5  N   UNL     1      34.418 -16.642 -23.275  0.00  0.00    -0.311 NA
ATOM      6  C   UNL     1      33.087 -14.499 -22.380  0.00  0.00    +0.220 C 
ATOM      7  C   UNL     1      33.546 -15.415 -21.448  0.00  0.00    +0.167 C 
ATOM      8  C   UNL     1      34.235 -16.519 -21.937  0.00  0.00    +0.215 C 
ATOM      9  C   UNL     1      33.917 -15.670 -24.098  0.00  0.00    +0.202 C 
ATOM     10  C   UNL     1      32.559 -13.890 -20.332  0.00  0.00    +0.222 C 
ATOM     11  H   UNL     1      34.619 -16.632 -25.756  0.00  0.00    +0.160 HD
ATOM     12  N   UNL     1      34.735 -17.500 -21.063  0.00  0.00    -0.302 N 
ATOM     13  H   UNL     1      34.588 -17.387 -20.096  0.00  0.00    +0.150 HD
ENDROOT
BRANCH   1  14
ATOM     14  C   UNL     1      31.808 -12.347 -22.161  0.00  0.00    +0.077 C 
ATOM     15  C   UNL     1      31.086 -11.569 -21.060  0.00  0.00    +0.022 C 
ATOM     16  C   UNL     1      32.775 -11.456 -22.941  0.00  0.00    +0.022 C 
ENDBRANCH   1  14
BRANCH  12  17
ATOM     17  C   UNL     1      35.450 -18.657 -21.513  0.00  0.00    +0.119 C 
BRANCH  17  18
ATOM     18  C   UNL     1      35.140 -19.841 -20.640  0.00  0.00    +0.031 C 
ATOM     19  C   UNL     1      33.824 -20.231 -20.428  0.00  0.00    +0.131 C 
ATOM     20  C   UNL     1      36.190 -20.534 -20.051  0.00  0.00    +0.000 C 
ATOM     21  C   UNL     1      33.552 -21.332 -19.616  0.00  0.00    +0.036 C 
ATOM     22  C   UNL     1      35.919 -21.635 -19.238  0.00  0.00    -0.000 C 
ATOM     23  C   UNL     1      34.600 -22.034 -19.020  0.00  0.00    +0.003 C 
BRANCH  19  24
ATOM     24  O   UNL     1      32.787 -19.556 -21.002  0.00  0.00    -0.506 OA
ATOM     25  H   UNL     1      32.298 -19.952 -21.696  0.00  0.00    +0.292 HD
ENDBRANCH  19  24
ENDBRANCH  17  18
ENDBRANCH  12  17
BRANCH   2  26
ATOM     26  CA  UNL     1      33.655 -14.897 -26.456  0.00  0.00    +0.109 C 
BRANCH  26  27
ATOM     27  C   UNL     1      33.833 -13.461 -25.949  0.00  0.00    +0.023 C 
ATOM     28  C   UNL     1      33.490 -12.416 -27.005  0.00  0.00    +0.002 C 
ENDBRANCH  26  27
BRANCH  26  29
ATOM     29  C   UNL     1      32.185 -15.190 -26.754  0.00  0.00    +0.157 C 
BRANCH  29  30
ATOM     30  O   UNL     1      32.010 -16.590 -26.936  0.00  0.00    -0.380 OA
ATOM     31  H   UNL     1      31.578 -16.967 -26.153  0.00  0.00    +0.211 HD
ENDBRANCH  29  30
ENDBRANCH  26  29
ENDBRANCH   2  26
TORSDOF 8
ENDMDL
MODEL 6
REMARK VINA RESULT:      -8.0      6.914     12.130
REMARK  Name = 5494414
REMARK  8 active torsions:
REMARK  status: ('A' for Active; 'I' for Inactive)
REMARK    1  A    between atoms: N_1  and  C_12
REMARK    2  A    between atoms: N_2  and  CA_26
REMARK    3  A    between atoms: N_15  and  C_17
REMARK    4  A    between atoms: C_17  and  C_18
REMARK    5  A    between atoms: C_19  and  O_24
REMARK    6  A    between atoms: CA_26  and  C_27
REMARK    7  A    between atoms: CA_26  and  C_29
REMARK    8  A    between atoms: C_29  and  O_30
REMARK                            x       y       z     vdW  Elec       q    Type
REMARK                         _______ _______ _______ _____ _____    ______ ____
ROOT
ATOM      1  N   UNL     1      31.928 -12.438 -20.964  0.00  0.00    -0.262 N 
ATOM      2  N   UNL     1      33.873 -13.687 -25.113  0.00  0.00    -0.258 N 
ATOM      3  N   UNL     1      32.853 -12.895 -23.162  0.00  0.00    -0.311 NA
ATOM      4  N   UNL     1      32.567 -14.283 -19.888  0.00  0.00    -0.240 NA
ATOM      5  N   UNL     1      34.002 -15.048 -23.211  0.00  0.00    -0.311 NA
ATOM      6  C   UNL     1      32.609 -13.192 -21.877  0.00  0.00    +0.220 C 
ATOM      7  C   UNL     1      32.996 -14.331 -21.191  0.00  0.00    +0.167 C 
ATOM      8  C   UNL     1      33.719 -15.280 -21.906  0.00  0.00    +0.215 C 
ATOM      9  C   UNL     1      33.565 -13.882 -23.780  0.00  0.00    +0.202 C 
ATOM     10  C   UNL     1      31.931 -13.136 -19.785  0.00  0.00    +0.222 C 
ATOM     11  H   UNL     1      34.388 -14.385 -25.579  0.00  0.00    +0.160 HD
ATOM     12  N   UNL     1      34.152 -16.467 -21.290  0.00  0.00    -0.302 N 
ATOM     13  H   UNL     1      33.933 -16.611 -20.341  0.00  0.00    +0.150 HD
ENDROOT
BRANCH   1  14
ATOM     14  C   UNL     1      31.319 -11.149 -21.187  0.00  0.00    +0.077 C 
ATOM     15  C   UNL     1      31.062 -10.402 -19.877  0.00  0.00    +0.022 C 
ATOM     16  C   UNL     1      32.123 -10.300 -22.173  0.00  0.00    +0.022 C 
ENDBRANCH   1  14
BRANCH  12  17
ATOM     17  C   UNL     1      34.898 -17.479 -21.979  0.00  0.00    +0.119 C 
BRANCH  17  18
ATOM     18  C   UNL     1      34.810 -18.789 -21.247  0.00  0.00    +0.031 C 
ATOM     19  C   UNL     1      35.966 -19.479 -20.904  0.00  0.00    +0.131 C 
ATOM     20  C   UNL     1      33.558 -19.294 -20.921  0.00  0.00    +0.000 C 
ATOM     21  C   UNL     1      35.868 -20.693 -20.224  0.00  0.00    +0.036 C 
ATOM     22  C   UNL     1      33.460 -20.508 -20.242  0.00  0.00    -0.000 C 
ATOM     23  C   UNL     1      34.615 -21.208 -19.893  0.00  0.00    +0.003 C 
BRANCH  19  24
ATOM     24  O   UNL     1      37.199 -18.991 -21.220  0.00  0.00    -0.506 OA
ATOM     25  H   UNL     1      37.856 -18.915 -20.556  0.00  0.00    +0.292 HD
ENDBRANCH  19  24
ENDBRANCH  17  18
ENDBRANCH  12  17
BRANCH   2  26
ATOM     26  CA  UNL     1      33.481 -12.508 -25.861  0.00  0.00    +0.109 C 
BRANCH  26  27
ATOM     27  C   UNL     1      33.093 -12.904 -27.291  0.00  0.00    +0.023 C 
ATOM     28  C   UNL     1      32.723 -14.378 -27.415  0.00  0.00    +0.002 C 
ENDBRANCH  26  27
BRANCH  26  29
ATOM     29  C   UNL     1      34.646 -11.519 -25.868  0.00  0.00    +0.157 C 
BRANCH  29  30
ATOM     30  O   UNL     1      34.704 -10.850 -24.614  0.00  0.00    -0.380 OA
ATOM     31  H   UNL     1      33.898 -10.325 -24.488  0.00  0.00    +0.211 HD
ENDBRANCH  29  30
ENDBRANCH  26  29
ENDBRANCH   2  26
TORSDOF 8
ENDMDL
MODEL 7
REMARK VINA RESULT:      -7.9      6.703     11.801
REMARK  Name = 5494414
REMARK  8 active torsions:
REMARK  status: ('A' for Active; 'I' for Inactive)
REMARK    1  A    between atoms: N_1  and  C_12
REMARK    2  A    between atoms: N_2  and  CA_26
REMARK    3  A    between atoms: N_15  and  C_17
REMARK    4  A    between atoms: C_17  and  C_18
REMARK    5  A    between atoms: C_19  and  O_24
REMARK    6  A    between atoms: CA_26  and  C_27
REMARK    7  A    between atoms: CA_26  and  C_29
REMARK    8  A    between atoms: C_29  and  O_30
REMARK                            x       y       z     vdW  Elec       q    Type
REMARK                         _______ _______ _______ _____ _____    ______ ____
ROOT
ATOM      1  N   UNL     1      33.503 -13.763 -25.132  0.00  0.00    -0.262 N 
ATOM      2  N   UNL     1      32.197 -13.078 -20.617  0.00  0.00    -0.258 N 
ATOM      3  N   UNL     1      32.796 -13.214 -22.875  0.00  0.00    -0.311 NA
ATOM      4  N   UNL     1      33.990 -15.923 -24.866  0.00  0.00    -0.240 NA
ATOM      5  N   UNL     1      32.927 -15.159 -21.406  0.00  0.00    -0.311 NA
ATOM      6  C   UNL     1      33.248 -14.050 -23.821  0.00  0.00    +0.220 C 
ATOM      7  C   UNL     1      33.557 -15.393 -23.676  0.00  0.00    +0.167 C 
ATOM      8  C   UNL     1      33.381 -15.945 -22.412  0.00  0.00    +0.215 C 
ATOM      9  C   UNL     1      32.656 -13.844 -21.672  0.00  0.00    +0.202 C 
ATOM     10  C   UNL     1      33.946 -14.920 -25.717  0.00  0.00    +0.222 C 
ATOM     11  H   UNL     1      32.087 -13.511 -19.739  0.00  0.00    +0.160 HD
ATOM     12  N   UNL     1      33.670 -17.300 -22.174  0.00  0.00    -0.302 N 
ATOM     13  H   UNL     1      33.999 -17.849 -22.922  0.00  0.00    +0.150 HD
ENDROOT
BRANCH   1  14
ATOM     14  C   UNL     1      33.339 -12.488 -25.786  0.00  0.00    +0.077 C 
ATOM     15  C   UNL     1      34.342 -11.451 -25.280  0.00  0.00    +0.022 C 
ATOM     16  C   UNL     1      33.380 -12.617 -27.310  0.00  0.00    +0.022 C 
ENDBRANCH   1  14
BRANCH  12  17
ATOM     17  C   UNL     1      33.510 -17.920 -20.892  0.00  0.00    +0.119 C 
BRANCH  17  18
ATOM     18  C   UNL     1      34.536 -19.002 -20.697  0.00  0.00    +0.031 C 
ATOM     19  C   UNL     1      34.149 -20.269 -20.279  0.00  0.00    +0.131 C 
ATOM     20  C   UNL     1      35.872 -18.712 -20.942  0.00  0.00    +0.000 C 
ATOM     21  C   UNL     1      35.112 -21.262 -20.103  0.00  0.00    +0.036 C 
ATOM     22  C   UNL     1      36.836 -19.704 -20.766  0.00  0.00    -0.000 C 
ATOM     23  C   UNL     1      36.457 -20.980 -20.347  0.00  0.00    +0.003 C 
BRANCH  19  24
ATOM     24  O   UNL     1      32.840 -20.562 -20.035  0.00  0.00    -0.506 OA
ATOM     25  H   UNL     1      32.333 -20.008 -19.475  0.00  0.00    +0.292 HD
ENDBRANCH  19  24
ENDBRANCH  17  18
ENDBRANCH  12  17
BRANCH   2  26
ATOM     26  CA  UNL     1      31.868 -11.670 -20.734  0.00  0.00    +0.109 C 
BRANCH  26  27
ATOM     27  C   UNL     1      31.645 -11.070 -19.340  0.00  0.00    +0.023 C 
ATOM     28  C   UNL     1      31.868  -9.563 -19.305  0.00  0.00    +0.002 C 
ENDBRANCH  26  27
BRANCH  26  29
ATOM     29  C   UNL     1      30.613 -11.527 -21.594  0.00  0.00    +0.157 C 
BRANCH  29  30
ATOM     30  O   UNL     1      30.841 -10.552 -22.604  0.00  0.00    -0.380 OA
ATOM     31  H   UNL     1      31.258  -9.769 -22.211  0.00  0.00    +0.211 HD
ENDBRANCH  29  30
ENDBRANCH  26  29
ENDBRANCH   2  26
TORSDOF 8
ENDMDL
MODEL 8
REMARK VINA RESULT:      -7.7      2.379      6.480
REMARK  Name = 5494414
REMARK  8 active torsions:
REMARK  status: ('A' for Active; 'I' for Inactive)
REMARK    1  A    between atoms: N_1  and  C_12
REMARK    2  A    between atoms: N_2  and  CA_26
REMARK    3  A    between atoms: N_15  and  C_17
REMARK    4  A    between atoms: C_17  and  C_18
REMARK    5  A    between atoms: C_19  and  O_24
REMARK    6  A    between atoms: CA_26  and  C_27
REMARK    7  A    between atoms: CA_26  and  C_29
REMARK    8  A    between atoms: C_29  and  O_30
REMARK                            x       y       z     vdW  Elec       q    Type
REMARK                         _______ _______ _______ _____ _____    ______ ____
ROOT
ATOM      1  N   UNL     1      34.904 -22.131 -18.430  0.00  0.00    -0.262 N 
ATOM      2  N   UNL     1      34.483 -24.537 -14.356  0.00  0.00    -0.258 N 
ATOM      3  N   UNL     1      34.898 -23.359 -16.335  0.00  0.00    -0.311 NA
ATOM      4  N   UNL     1      32.709 -21.991 -18.798  0.00  0.00    -0.240 NA
ATOM      5  N   UNL     1      32.622 -23.864 -15.609  0.00  0.00    -0.311 NA
ATOM      6  C   UNL     1      34.303 -22.767 -17.381  0.00  0.00    +0.220 C 
ATOM      7  C   UNL     1      32.943 -22.670 -17.628  0.00  0.00    +0.167 C 
ATOM      8  C   UNL     1      32.091 -23.247 -16.693  0.00  0.00    +0.215 C 
ATOM      9  C   UNL     1      33.984 -23.896 -15.474  0.00  0.00    +0.202 C 
ATOM     10  C   UNL     1      33.906 -21.682 -19.253  0.00  0.00    +0.222 C 
ATOM     11  H   UNL     1      33.842 -24.931 -13.720  0.00  0.00    +0.160 HD
ATOM     12  N   UNL     1      30.697 -23.197 -16.864  0.00  0.00    -0.302 N 
ATOM     13  H   UNL     1      30.337 -22.743 -17.660  0.00  0.00    +0.150 HD
ENDROOT
BRANCH   1  14
ATOM     14  C   UNL     1      36.321 -21.958 -18.639  0.00  0.00    +0.077 C 
ATOM     15  C   UNL     1      36.618 -21.102 -19.872  0.00  0.00    +0.022 C 
ATOM     16  C   UNL     1      37.021 -21.415 -17.393  0.00  0.00    +0.022 C 
ENDBRANCH   1  14
BRANCH  12  17
ATOM     17  C   UNL     1      29.773 -23.776 -15.934  0.00  0.00    +0.119 C 
BRANCH  17  18
ATOM     18  C   UNL     1      28.454 -23.057 -15.983  0.00  0.00    +0.031 C 
ATOM     19  C   UNL     1      27.799 -22.875 -17.194  0.00  0.00    +0.131 C 
ATOM     20  C   UNL     1      27.904 -22.580 -14.800  0.00  0.00    +0.000 C 
ATOM     21  C   UNL     1      26.576 -22.206 -17.224  0.00  0.00    +0.036 C 
ATOM     22  C   UNL     1      26.681 -21.911 -14.828  0.00  0.00    -0.000 C 
ATOM     23  C   UNL     1      26.016 -21.724 -16.040  0.00  0.00    +0.003 C 
BRANCH  19  24
ATOM     24  O   UNL     1      28.331 -23.339 -18.361  0.00  0.00    -0.506 OA
ATOM     25  H   UNL     1      28.341 -24.259 -18.537  0.00  0.00    +0.292 HD
ENDBRANCH  19  24
ENDBRANCH  17  18
ENDBRANCH  12  17
BRANCH   2  26
ATOM     26  CA  UNL     1      35.900 -24.659 -14.069  0.00  0.00    +0.109 C 
BRANCH  26  27
ATOM     27  C   UNL     1      36.457 -25.926 -14.729  0.00  0.00    +0.023 C 
ATOM     28  C   UNL     1      37.965 -26.065 -14.558  0.00  0.00    +0.002 C 
ENDBRANCH  26  27
BRANCH  26  29
ATOM     29  C   UNL     1      36.093 -24.707 -12.553  0.00  0.00    +0.157 C 
BRANCH  29  30
ATOM     30  O   UNL     1      34.849 -25.000 -11.928  0.00  0.00    -0.380 OA
ATOM     31  H   UNL     1      35.009 -25.347 -11.036  0.00  0.00    +0.211 HD
ENDBRANCH  29  30
ENDBRANCH  26  29
ENDBRANCH   2  26
TORSDOF 8
ENDMDL
MODEL 9
REMARK VINA RESULT:      -7.5     11.759     15.064
REMARK  Name = 5494414
REMARK  8 active torsions:
REMARK  status: ('A' for Active; 'I' for Inactive)
REMARK    1  A    between atoms: N_1  and  C_12
REMARK    2  A    between atoms: N_2  and  CA_26
REMARK    3  A    between atoms: N_15  and  C_17
REMARK    4  A    between atoms: C_17  and  C_18
REMARK    5  A    between atoms: C_19  and  O_24
REMARK    6  A    between atoms: CA_26  and  C_27
REMARK    7  A    between atoms: CA_26  and  C_29
REMARK    8  A    between atoms: C_29  and  O_30
REMARK                            x       y       z     vdW  Elec       q    Type
REMARK                         _______ _______ _______ _____ _____    ______ ____
ROOT
ATOM      1  N   UNL     1      33.544 -12.924 -25.188  0.00  0.00    -0.262 N 
ATOM      2  N   UNL     1      31.998 -10.437 -21.448  0.00  0.00    -0.258 N 
ATOM      3  N   UNL     1      32.655 -11.826 -23.212  0.00  0.00    -0.311 NA
ATOM      4  N   UNL     1      34.696 -11.235 -26.079  0.00  0.00    -0.240 NA
ATOM      5  N   UNL     1      33.377  -9.497 -23.092  0.00  0.00    -0.311 NA
ATOM      6  C   UNL     1      33.370 -11.862 -24.347  0.00  0.00    +0.220 C 
ATOM      7  C   UNL     1      34.090 -10.825 -24.917  0.00  0.00    +0.167 C 
ATOM      8  C   UNL     1      34.078  -9.607 -24.246  0.00  0.00    +0.215 C 
ATOM      9  C   UNL     1      32.702 -10.594 -22.626  0.00  0.00    +0.202 C 
ATOM     10  C   UNL     1      34.348 -12.498 -26.212  0.00  0.00    +0.222 C 
ATOM     11  H   UNL     1      32.018  -9.557 -21.006  0.00  0.00    +0.160 HD
ATOM     12  N   UNL     1      34.782  -8.500 -24.753  0.00  0.00    -0.302 N 
ATOM     13  H   UNL     1      35.283  -8.607 -25.593  0.00  0.00    +0.150 HD
ENDROOT
BRANCH   1  14
ATOM     14  C   UNL     1      32.992 -14.248 -25.034  0.00  0.00    +0.077 C 
ATOM     15  C   UNL     1      32.842 -14.966 -26.377  0.00  0.00    +0.022 C 
ATOM     16  C   UNL     1      33.787 -15.086 -24.031  0.00  0.00    +0.022 C 
ENDBRANCH   1  14
BRANCH  12  17
ATOM     17  C   UNL     1      34.802  -7.223 -24.104  0.00  0.00    +0.119 C 
BRANCH  17  18
ATOM     18  C   UNL     1      33.855  -6.272 -24.781  0.00  0.00    +0.031 C 
ATOM     19  C   UNL     1      32.605  -6.016 -24.230  0.00  0.00    +0.131 C 
ATOM     20  C   UNL     1      34.249  -5.658 -25.962  0.00  0.00    +0.000 C 
ATOM     21  C   UNL     1      31.737  -5.131 -24.869  0.00  0.00    +0.036 C 
ATOM     22  C   UNL     1      33.382  -4.773 -26.603  0.00  0.00    -0.000 C 
ATOM     23  C   UNL     1      32.126  -4.509 -26.056  0.00  0.00    +0.003 C 
BRANCH  19  24
ATOM     24  O   UNL     1      32.209  -6.614 -23.071  0.00  0.00    -0.506 OA
ATOM     25  H   UNL     1      31.402  -6.365 -22.667  0.00  0.00    +0.292 HD
ENDBRANCH  19  24
ENDBRANCH  17  18
ENDBRANCH  12  17
BRANCH   2  26
ATOM     26  CA  UNL     1      31.231 -11.500 -20.826  0.00  0.00    +0.109 C 
BRANCH  26  27
ATOM     27  C   UNL     1      30.491 -10.957 -19.597  0.00  0.00    +0.023 C 
ATOM     28  C   UNL     1      31.437 -10.411 -18.534  0.00  0.00    +0.002 C 
ENDBRANCH  26  27
BRANCH  26  29
ATOM     29  C   UNL     1      32.183 -12.628 -20.432  0.00  0.00    +0.157 C 
BRANCH  29  30
ATOM     30  O   UNL     1      31.973 -13.745 -21.289  0.00  0.00    -0.380 OA
ATOM     31  H   UNL     1      31.113 -13.656 -21.730  0.00  0.00    +0.211 HD
ENDBRANCH  29  30
ENDBRANCH  26  29
ENDBRANCH   2  26
TORSDOF 8
ENDMDL
