MODEL 1
REMARK VINA RESULT:      -4.9      0.000      0.000
REMARK  Name = 8189
REMARK  9 active torsions:
REMARK  status: ('A' for Active; 'I' for Inactive)
REMARK    1  A    between atoms: C_1  and  O_2
REMARK    2  A    between atoms: C_1  and  C_7
REMARK    3  A    between atoms: O_2  and  C_3
REMARK    4  A    between atoms: C_3  and  C_4
REMARK    5  A    between atoms: C_4  and  O_5
REMARK    6  A    between atoms: C_7  and  O_8
REMARK    7  A    between atoms: O_8  and  C_9
REMARK    8  A    between atoms: C_9  and  C_10
REMARK    9  A    between atoms: C_10  and  O_11
REMARK                            x       y       z     vdW  Elec       q    Type
REMARK                         _______ _______ _______ _____ _____    ______ ____
ROOT
ATOM      1  C   UNL     1      35.156 -18.754 -23.629  0.00  0.00    +0.174 C 
ENDROOT
BRANCH   1   2
ATOM      2  O   UNL     1      34.487 -19.444 -22.582  0.00  0.00    -0.348 OA
BRANCH   2   3
ATOM      3  C   UNL     1      34.351 -18.628 -21.424  0.00  0.00    +0.174 C 
BRANCH   3   4
ATOM      4  C   UNL     1      35.375 -17.511 -21.484  0.00  0.00    +0.174 C 
BRANCH   4   5
ATOM      5  O   UNL     1      35.188 -16.652 -20.366  0.00  0.00    -0.348 OA
ATOM      6  C   UNL     1      34.505 -15.461 -20.733  0.00  0.00    +0.174 C 
ENDBRANCH   4   5
ENDBRANCH   3   4
ENDBRANCH   2   3
ENDBRANCH   1   2
BRANCH   1   7
ATOM      7  C   UNL     1      34.279 -18.764 -24.867  0.00  0.00    +0.174 C 
BRANCH   7   8
ATOM      8  O   UNL     1      34.655 -17.683 -25.711  0.00  0.00    -0.348 OA
BRANCH   8   9
ATOM      9  C   UNL     1      34.651 -16.449 -25.006  0.00  0.00    +0.174 C 
BRANCH   9  10
ATOM     10  C   UNL     1      33.436 -15.643 -25.426  0.00  0.00    +0.174 C 
BRANCH  10  11
ATOM     11  O   UNL     1      33.645 -15.139 -26.739  0.00  0.00    -0.348 OA
ATOM     12  C   UNL     1      33.204 -13.793 -26.857  0.00  0.00    +0.174 C 
ENDBRANCH  10  11
ENDBRANCH   9  10
ENDBRANCH   8   9
ENDBRANCH   7   8
ENDBRANCH   1   7
TORSDOF 9
ENDMDL
MODEL 2
REMARK VINA RESULT:      -4.8      2.065      3.158
REMARK  Name = 8189
REMARK  9 active torsions:
REMARK  status: ('A' for Active; 'I' for Inactive)
REMARK    1  A    between atoms: C_1  and  O_2
REMARK    2  A    between atoms: C_1  and  C_7
REMARK    3  A    between atoms: O_2  and  C_3
REMARK    4  A    between atoms: C_3  and  C_4
REMARK    5  A    between atoms: C_4  and  O_5
REMARK    6  A    between atoms: C_7  and  O_8
REMARK    7  A    between atoms: O_8  and  C_9
REMARK    8  A    between atoms: C_9  and  C_10
REMARK    9  A    between atoms: C_10  and  O_11
REMARK                            x       y       z     vdW  Elec       q    Type
REMARK                         _______ _______ _______ _____ _____    ______ ____
ROOT
ATOM      1  C   UNL     1      34.388 -17.686 -21.401  0.00  0.00    +0.174 C 
ENDROOT
BRANCH   1   2
ATOM      2  O   UNL     1      35.182 -18.657 -20.734  0.00  0.00    -0.348 OA
BRANCH   2   3
ATOM      3  C   UNL     1      34.618 -19.959 -20.850  0.00  0.00    +0.174 C 
BRANCH   3   4
ATOM      4  C   UNL     1      33.109 -19.855 -20.751  0.00  0.00    +0.174 C 
BRANCH   4   5
ATOM      5  O   UNL     1      32.665 -20.608 -19.629  0.00  0.00    -0.348 OA
ATOM      6  C   UNL     1      33.560 -21.670 -19.327  0.00  0.00    +0.174 C 
ENDBRANCH   4   5
ENDBRANCH   3   4
ENDBRANCH   2   3
ENDBRANCH   1   2
BRANCH   1   7
ATOM      7  C   UNL     1      35.192 -17.086 -22.539  0.00  0.00    +0.174 C 
BRANCH   7   8
ATOM      8  O   UNL     1      34.855 -15.711 -22.671  0.00  0.00    -0.348 OA
BRANCH   8   9
ATOM      9  C   UNL     1      34.200 -15.453 -23.905  0.00  0.00    +0.174 C 
BRANCH   9  10
ATOM     10  C   UNL     1      34.628 -16.496 -24.920  0.00  0.00    +0.174 C 
BRANCH  10  11
ATOM     11  O   UNL     1      33.862 -16.331 -26.107  0.00  0.00    -0.348 OA
ATOM     12  C   UNL     1      33.173 -15.088 -26.113  0.00  0.00    +0.174 C 
ENDBRANCH  10  11
ENDBRANCH   9  10
ENDBRANCH   8   9
ENDBRANCH   7   8
ENDBRANCH   1   7
TORSDOF 9
ENDMDL
MODEL 3
REMARK VINA RESULT:      -4.8      1.873      5.896
REMARK  Name = 8189
REMARK  9 active torsions:
REMARK  status: ('A' for Active; 'I' for Inactive)
REMARK    1  A    between atoms: C_1  and  O_2
REMARK    2  A    between atoms: C_1  and  C_7
REMARK    3  A    between atoms: O_2  and  C_3
REMARK    4  A    between atoms: C_3  and  C_4
REMARK    5  A    between atoms: C_4  and  O_5
REMARK    6  A    between atoms: C_7  and  O_8
REMARK    7  A    between atoms: O_8  and  C_9
REMARK    8  A    between atoms: C_9  and  C_10
REMARK    9  A    between atoms: C_10  and  O_11
REMARK                            x       y       z     vdW  Elec       q    Type
REMARK                         _______ _______ _______ _____ _____    ______ ____
ROOT
ATOM      1  C   UNL     1      35.520 -17.946 -22.976  0.00  0.00    +0.174 C 
ENDROOT
BRANCH   1   2
ATOM      2  O   UNL     1      34.522 -18.008 -23.986  0.00  0.00    -0.348 OA
BRANCH   2   3
ATOM      3  C   UNL     1      34.834 -17.152 -25.079  0.00  0.00    +0.174 C 
BRANCH   3   4
ATOM      4  C   UNL     1      33.857 -15.993 -25.093  0.00  0.00    +0.174 C 
BRANCH   4   5
ATOM      5  O   UNL     1      33.696 -15.538 -26.430  0.00  0.00    -0.348 OA
ATOM      6  C   UNL     1      33.020 -14.288 -26.478  0.00  0.00    +0.174 C 
ENDBRANCH   4   5
ENDBRANCH   3   4
ENDBRANCH   2   3
ENDBRANCH   1   2
BRANCH   1   7
ATOM      7  C   UNL     1      34.855 -17.664 -21.641  0.00  0.00    +0.174 C 
BRANCH   7   8
ATOM      8  O   UNL     1      35.196 -18.698 -20.726  0.00  0.00    -0.348 OA
BRANCH   8   9
ATOM      9  C   UNL     1      34.502 -19.903 -21.021  0.00  0.00    +0.174 C 
BRANCH   9  10
ATOM     10  C   UNL     1      33.031 -19.716 -20.704  0.00  0.00    +0.174 C 
BRANCH  10  11
ATOM     11  O   UNL     1      32.646 -20.660 -19.713  0.00  0.00    -0.348 OA
ATOM     12  C   UNL     1      33.680 -21.602 -19.461  0.00  0.00    +0.174 C 
ENDBRANCH  10  11
ENDBRANCH   9  10
ENDBRANCH   8   9
ENDBRANCH   7   8
ENDBRANCH   1   7
TORSDOF 9
ENDMDL
MODEL 4
REMARK VINA RESULT:      -4.8      8.238     11.651
REMARK  Name = 8189
REMARK  9 active torsions:
REMARK  status: ('A' for Active; 'I' for Inactive)
REMARK    1  A    between atoms: C_1  and  O_2
REMARK    2  A    between atoms: C_1  and  C_7
REMARK    3  A    between atoms: O_2  and  C_3
REMARK    4  A    between atoms: C_3  and  C_4
REMARK    5  A    between atoms: C_4  and  O_5
REMARK    6  A    between atoms: C_7  and  O_8
REMARK    7  A    between atoms: O_8  and  C_9
REMARK    8  A    between atoms: C_9  and  C_10
REMARK    9  A    between atoms: C_10  and  O_11
REMARK                            x       y       z     vdW  Elec       q    Type
REMARK                         _______ _______ _______ _____ _____    ______ ____
ROOT
ATOM      1  C   UNL     1      34.608 -23.189 -15.763  0.00  0.00    +0.174 C 
ENDROOT
BRANCH   1   2
ATOM      2  O   UNL     1      34.503 -23.534 -17.138  0.00  0.00    -0.348 OA
BRANCH   2   3
ATOM      3  C   UNL     1      33.322 -22.994 -17.721  0.00  0.00    +0.174 C 
BRANCH   3   4
ATOM      4  C   UNL     1      33.699 -22.202 -18.957  0.00  0.00    +0.174 C 
BRANCH   4   5
ATOM      5  O   UNL     1      32.678 -21.249 -19.226  0.00  0.00    -0.348 OA
ATOM      6  C   UNL     1      33.051 -20.368 -20.277  0.00  0.00    +0.174 C 
ENDBRANCH   4   5
ENDBRANCH   3   4
ENDBRANCH   2   3
ENDBRANCH   1   2
BRANCH   1   7
ATOM      7  C   UNL     1      34.798 -24.456 -14.950  0.00  0.00    +0.174 C 
BRANCH   7   8
ATOM      8  O   UNL     1      35.728 -25.300 -15.617  0.00  0.00    -0.348 OA
BRANCH   8   9
ATOM      9  C   UNL     1      36.983 -25.320 -14.951  0.00  0.00    +0.174 C 
BRANCH   9  10
ATOM     10  C   UNL     1      37.320 -26.750 -14.575  0.00  0.00    +0.174 C 
BRANCH  10  11
ATOM     11  O   UNL     1      38.727 -26.936 -14.672  0.00  0.00    -0.348 OA
ATOM     12  C   UNL     1      39.432 -25.732 -14.398  0.00  0.00    +0.174 C 
ENDBRANCH  10  11
ENDBRANCH   9  10
ENDBRANCH   8   9
ENDBRANCH   7   8
ENDBRANCH   1   7
TORSDOF 9
ENDMDL
MODEL 5
REMARK VINA RESULT:      -4.7      0.772      5.070
REMARK  Name = 8189
REMARK  9 active torsions:
REMARK  status: ('A' for Active; 'I' for Inactive)
REMARK    1  A    between atoms: C_1  and  O_2
REMARK    2  A    between atoms: C_1  and  C_7
REMARK    3  A    between atoms: O_2  and  C_3
REMARK    4  A    between atoms: C_3  and  C_4
REMARK    5  A    between atoms: C_4  and  O_5
REMARK    6  A    between atoms: C_7  and  O_8
REMARK    7  A    between atoms: O_8  and  C_9
REMARK    8  A    between atoms: C_9  and  C_10
REMARK    9  A    between atoms: C_10  and  O_11
REMARK                            x       y       z     vdW  Elec       q    Type
REMARK                         _______ _______ _______ _____ _____    ______ ____
ROOT
ATOM      1  C   UNL     1      34.585 -18.066 -25.146  0.00  0.00    +0.174 C 
ENDROOT
BRANCH   1   2
ATOM      2  O   UNL     1      34.463 -16.790 -25.759  0.00  0.00    -0.348 OA
BRANCH   2   3
ATOM      3  C   UNL     1      33.925 -15.828 -24.858  0.00  0.00    +0.174 C 
BRANCH   3   4
ATOM      4  C   UNL     1      33.065 -14.851 -25.634  0.00  0.00    +0.174 C 
BRANCH   4   5
ATOM      5  O   UNL     1      33.565 -14.746 -26.962  0.00  0.00    -0.348 OA
ATOM      6  C   UNL     1      33.541 -13.402 -27.423  0.00  0.00    +0.174 C 
ENDBRANCH   4   5
ENDBRANCH   3   4
ENDBRANCH   2   3
ENDBRANCH   1   2
BRANCH   1   7
ATOM      7  C   UNL     1      35.267 -17.904 -23.800  0.00  0.00    +0.174 C 
BRANCH   7   8
ATOM      8  O   UNL     1      35.056 -19.080 -23.029  0.00  0.00    -0.348 OA
BRANCH   8   9
ATOM      9  C   UNL     1      35.141 -18.810 -21.636  0.00  0.00    +0.174 C 
BRANCH   9  10
ATOM     10  C   UNL     1      34.346 -17.556 -21.326  0.00  0.00    +0.174 C 
BRANCH  10  11
ATOM     11  O   UNL     1      35.151 -16.677 -20.551  0.00  0.00    -0.348 OA
ATOM     12  C   UNL     1      34.562 -15.387 -20.446  0.00  0.00    +0.174 C 
ENDBRANCH  10  11
ENDBRANCH   9  10
ENDBRANCH   8   9
ENDBRANCH   7   8
ENDBRANCH   1   7
TORSDOF 9
ENDMDL
MODEL 6
REMARK VINA RESULT:      -4.7     12.037     13.744
REMARK  Name = 8189
REMARK  9 active torsions:
REMARK  status: ('A' for Active; 'I' for Inactive)
REMARK    1  A    between atoms: C_1  and  O_2
REMARK    2  A    between atoms: C_1  and  C_7
REMARK    3  A    between atoms: O_2  and  C_3
REMARK    4  A    between atoms: C_3  and  C_4
REMARK    5  A    between atoms: C_4  and  O_5
REMARK    6  A    between atoms: C_7  and  O_8
REMARK    7  A    between atoms: O_8  and  C_9
REMARK    8  A    between atoms: C_9  and  C_10
REMARK    9  A    between atoms: C_10  and  O_11
REMARK                            x       y       z     vdW  Elec       q    Type
REMARK                         _______ _______ _______ _____ _____    ______ ____
ROOT
ATOM      1  C   UNL     1      36.306 -24.544 -15.057  0.00  0.00    +0.174 C 
ENDROOT
BRANCH   1   2
ATOM      2  O   UNL     1      36.227 -25.822 -15.672  0.00  0.00    -0.348 OA
BRANCH   2   3
ATOM      3  C   UNL     1      36.937 -26.805 -14.927  0.00  0.00    +0.174 C 
BRANCH   3   4
ATOM      4  C   UNL     1      38.054 -26.128 -14.157  0.00  0.00    +0.174 C 
BRANCH   4   5
ATOM      5  O   UNL     1      39.304 -26.601 -14.642  0.00  0.00    -0.348 OA
ATOM      6  C   UNL     1      40.188 -25.529 -14.939  0.00  0.00    +0.174 C 
ENDBRANCH   4   5
ENDBRANCH   3   4
ENDBRANCH   2   3
ENDBRANCH   1   2
BRANCH   1   7
ATOM      7  C   UNL     1      34.908 -24.085 -14.689  0.00  0.00    +0.174 C 
BRANCH   7   8
ATOM      8  O   UNL     1      34.603 -24.535 -13.375  0.00  0.00    -0.348 OA
BRANCH   8   9
ATOM      9  C   UNL     1      35.241 -23.734 -12.390  0.00  0.00    +0.174 C 
BRANCH   9  10
ATOM     10  C   UNL     1      35.850 -24.639 -11.335  0.00  0.00    +0.174 C 
BRANCH  10  11
ATOM     11  O   UNL     1      37.181 -24.214 -11.072  0.00  0.00    -0.348 OA
ATOM     12  C   UNL     1      37.510 -23.043 -11.808  0.00  0.00    +0.174 C 
ENDBRANCH  10  11
ENDBRANCH   9  10
ENDBRANCH   8   9
ENDBRANCH   7   8
ENDBRANCH   1   7
TORSDOF 9
ENDMDL
MODEL 7
REMARK VINA RESULT:      -4.7     11.570     13.481
REMARK  Name = 8189
REMARK  9 active torsions:
REMARK  status: ('A' for Active; 'I' for Inactive)
REMARK    1  A    between atoms: C_1  and  O_2
REMARK    2  A    between atoms: C_1  and  C_7
REMARK    3  A    between atoms: O_2  and  C_3
REMARK    4  A    between atoms: C_3  and  C_4
REMARK    5  A    between atoms: C_4  and  O_5
REMARK    6  A    between atoms: C_7  and  O_8
REMARK    7  A    between atoms: O_8  and  C_9
REMARK    8  A    between atoms: C_9  and  C_10
REMARK    9  A    between atoms: C_10  and  O_11
REMARK                            x       y       z     vdW  Elec       q    Type
REMARK                         _______ _______ _______ _____ _____    ______ ____
ROOT
ATOM      1  C   UNL     1      36.842 -23.549 -15.255  0.00  0.00    +0.174 C 
ENDROOT
BRANCH   1   2
ATOM      2  O   UNL     1      37.522 -22.928 -14.172  0.00  0.00    -0.348 OA
BRANCH   2   3
ATOM      3  C   UNL     1      36.839 -23.136 -12.941  0.00  0.00    +0.174 C 
BRANCH   3   4
ATOM      4  C   UNL     1      37.852 -23.474 -11.865  0.00  0.00    +0.174 C 
BRANCH   4   5
ATOM      5  O   UNL     1      37.180 -24.083 -10.770  0.00  0.00    -0.348 OA
ATOM      6  C   UNL     1      35.803 -24.290 -11.054  0.00  0.00    +0.174 C 
ENDBRANCH   4   5
ENDBRANCH   3   4
ENDBRANCH   2   3
ENDBRANCH   1   2
BRANCH   1   7
ATOM      7  C   UNL     1      36.076 -24.750 -14.734  0.00  0.00    +0.174 C 
BRANCH   7   8
ATOM      8  O   UNL     1      36.001 -25.733 -15.760  0.00  0.00    -0.348 OA
BRANCH   8   9
ATOM      9  C   UNL     1      36.755 -26.890 -15.427  0.00  0.00    +0.174 C 
BRANCH   9  10
ATOM     10  C   UNL     1      37.577 -26.605 -14.185  0.00  0.00    +0.174 C 
BRANCH  10  11
ATOM     11  O   UNL     1      38.946 -26.874 -14.463  0.00  0.00    -0.348 OA
ATOM     12  C   UNL     1      39.748 -25.712 -14.299  0.00  0.00    +0.174 C 
ENDBRANCH  10  11
ENDBRANCH   9  10
ENDBRANCH   8   9
ENDBRANCH   7   8
ENDBRANCH   1   7
TORSDOF 9
ENDMDL
MODEL 8
REMARK VINA RESULT:      -4.7      7.964     10.104
REMARK  Name = 8189
REMARK  9 active torsions:
REMARK  status: ('A' for Active; 'I' for Inactive)
REMARK    1  A    between atoms: C_1  and  O_2
REMARK    2  A    between atoms: C_1  and  C_7
REMARK    3  A    between atoms: O_2  and  C_3
REMARK    4  A    between atoms: C_3  and  C_4
REMARK    5  A    between atoms: C_4  and  O_5
REMARK    6  A    between atoms: C_7  and  O_8
REMARK    7  A    between atoms: O_8  and  C_9
REMARK    8  A    between atoms: C_9  and  C_10
REMARK    9  A    between atoms: C_10  and  O_11
REMARK                            x       y       z     vdW  Elec       q    Type
REMARK                         _______ _______ _______ _____ _____    ______ ____
ROOT
ATOM      1  C   UNL     1      36.170 -23.298 -15.625  0.00  0.00    +0.174 C 
ENDROOT
BRANCH   1   2
ATOM      2  O   UNL     1      36.391 -24.698 -15.514  0.00  0.00    -0.348 OA
BRANCH   2   3
ATOM      3  C   UNL     1      37.597 -24.981 -14.814  0.00  0.00    +0.174 C 
BRANCH   3   4
ATOM      4  C   UNL     1      37.825 -26.480 -14.809  0.00  0.00    +0.174 C 
BRANCH   4   5
ATOM      5  O   UNL     1      39.218 -26.736 -14.677  0.00  0.00    -0.348 OA
ATOM      6  C   UNL     1      39.975 -25.534 -14.719  0.00  0.00    +0.174 C 
ENDBRANCH   4   5
ENDBRANCH   3   4
ENDBRANCH   2   3
ENDBRANCH   1   2
BRANCH   1   7
ATOM      7  C   UNL     1      34.799 -23.061 -16.229  0.00  0.00    +0.174 C 
BRANCH   7   8
ATOM      8  O   UNL     1      34.928 -22.943 -17.640  0.00  0.00    -0.348 OA
BRANCH   8   9
ATOM      9  C   UNL     1      33.661 -22.808 -18.268  0.00  0.00    +0.174 C 
BRANCH   9  10
ATOM     10  C   UNL     1      33.795 -21.875 -19.457  0.00  0.00    +0.174 C 
BRANCH  10  11
ATOM     11  O   UNL     1      32.749 -20.913 -19.412  0.00  0.00    -0.348 OA
ATOM     12  C   UNL     1      32.809 -20.026 -20.521  0.00  0.00    +0.174 C 
ENDBRANCH  10  11
ENDBRANCH   9  10
ENDBRANCH   8   9
ENDBRANCH   7   8
ENDBRANCH   1   7
TORSDOF 9
ENDMDL
MODEL 9
REMARK VINA RESULT:      -4.7      1.455      4.218
REMARK  Name = 8189
REMARK  9 active torsions:
REMARK  status: ('A' for Active; 'I' for Inactive)
REMARK    1  A    between atoms: C_1  and  O_2
REMARK    2  A    between atoms: C_1  and  C_7
REMARK    3  A    between atoms: O_2  and  C_3
REMARK    4  A    between atoms: C_3  and  C_4
REMARK    5  A    between atoms: C_4  and  O_5
REMARK    6  A    between atoms: C_7  and  O_8
REMARK    7  A    between atoms: O_8  and  C_9
REMARK    8  A    between atoms: C_9  and  C_10
REMARK    9  A    between atoms: C_10  and  O_11
REMARK                            x       y       z     vdW  Elec       q    Type
REMARK                         _______ _______ _______ _____ _____    ______ ____
ROOT
ATOM      1  C   UNL     1      34.959 -18.525 -21.246  0.00  0.00    +0.174 C 
ENDROOT
BRANCH   1   2
ATOM      2  O   UNL     1      34.836 -19.221 -22.479  0.00  0.00    -0.348 OA
BRANCH   2   3
ATOM      3  C   UNL     1      35.310 -18.437 -23.568  0.00  0.00    +0.174 C 
BRANCH   3   4
ATOM      4  C   UNL     1      34.468 -18.733 -24.793  0.00  0.00    +0.174 C 
BRANCH   4   5
ATOM      5  O   UNL     1      34.571 -17.644 -25.701  0.00  0.00    -0.348 OA
ATOM      6  C   UNL     1      34.249 -16.410 -25.073  0.00  0.00    +0.174 C 
ENDBRANCH   4   5
ENDBRANCH   3   4
ENDBRANCH   2   3
ENDBRANCH   1   2
BRANCH   1   7
ATOM      7  C   UNL     1      35.193 -17.053 -21.530  0.00  0.00    +0.174 C 
BRANCH   7   8
ATOM      8  O   UNL     1      34.987 -16.311 -20.334  0.00  0.00    -0.348 OA
BRANCH   8   9
ATOM      9  C   UNL     1      34.292 -15.099 -20.587  0.00  0.00    +0.174 C 
BRANCH   9  10
ATOM     10  C   UNL     1      32.799 -15.357 -20.500  0.00  0.00    +0.174 C 
BRANCH  10  11
ATOM     11  O   UNL     1      32.184 -14.934 -21.710  0.00  0.00    -0.348 OA
ATOM     12  C   UNL     1      33.024 -14.053 -22.442  0.00  0.00    +0.174 C 
ENDBRANCH  10  11
ENDBRANCH   9  10
ENDBRANCH   8   9
ENDBRANCH   7   8
ENDBRANCH   1   7
TORSDOF 9
ENDMDL
