MODEL 1
REMARK VINA RESULT:      -5.2      0.000      0.000
REMARK  Name = 170018
REMARK  9 active torsions:
REMARK  status: ('A' for Active; 'I' for Inactive)
REMARK    1  A    between atoms: C_1  and  N_2
REMARK    2  A    between atoms: C_1  and  C_7
REMARK    3  A    between atoms: C_1  and  C_10
REMARK    4  A    between atoms: C_7  and  O_8
REMARK    5  A    between atoms: C_10  and  S_11
REMARK    6  A    between atoms: S_11  and  S_12
REMARK    7  A    between atoms: S_12  and  C_13
REMARK    8  A    between atoms: C_13  and  C_14
REMARK    9  A    between atoms: C_14  and  O_15
REMARK                            x       y       z     vdW  Elec       q    Type
REMARK                         _______ _______ _______ _____ _____    ______ ____
ROOT
ATOM      1  C   UNK     1      38.728 -25.785 -14.481  0.00  0.00    +0.047 C 
ENDROOT
BRANCH   1   2
ATOM      2  N   UNK     1      38.736 -25.985 -13.030  0.00  0.00    +0.389 N 
ATOM      3  H   UNK     1      39.568 -25.552 -12.632  0.00  0.00    -0.088 HD
ATOM      4  H   UNK     1      38.740 -26.985 -12.825  0.00  0.00    -0.088 HD
ATOM      5  H   UNK     1      37.903 -25.560 -12.624  0.00  0.00    -0.088 HD
ENDBRANCH   1   2
BRANCH   1   7
ATOM      6  O   UNK     1      40.894 -24.737 -14.241  0.00  0.00    -0.253 OA
ATOM      7  C   UNK     1      40.145 -25.445 -14.903  0.00  0.00    +0.294 C 
BRANCH   7   8
ATOM      8  O   UNK     1      40.500 -25.969 -16.104  0.00  0.00    -0.482 OA
ATOM      9  H   UNK     1      41.242 -25.626 -16.564  0.00  0.00    +0.295 HD
ENDBRANCH   7   8
ENDBRANCH   1   7
BRANCH   1  10
ATOM     10  C   UNK     1      37.733 -24.685 -14.852  0.00  0.00    +0.058 C 
BRANCH  10  11
ATOM     11  S   UNK     1      36.029 -25.318 -14.969  0.00  0.00    -0.084 S 
BRANCH  11  12
ATOM     12  S   UNK     1      34.984 -23.857 -13.972  0.00  0.00    -0.080 S 
BRANCH  12  13
ATOM     13  C   UNK     1      36.077 -23.511 -12.572  0.00  0.00    +0.100 C 
BRANCH  13  14
ATOM     14  C   UNK     1      35.698 -24.339 -11.355  0.00  0.00    +0.150 C 
BRANCH  14  15
ATOM     15  O   UNK     1      36.332 -25.609 -11.409  0.00  0.00    -0.381 OA
ATOM     16  H   UNK     1      36.274 -25.962 -12.311  0.00  0.00    +0.210 HD
ENDBRANCH  14  15
ENDBRANCH  13  14
ENDBRANCH  12  13
ENDBRANCH  11  12
ENDBRANCH  10  11
ENDBRANCH   1  10
TORSDOF 9
ENDMDL
MODEL 2
REMARK VINA RESULT:      -5.2      1.694      1.771
REMARK  Name = 170018
REMARK  9 active torsions:
REMARK  status: ('A' for Active; 'I' for Inactive)
REMARK    1  A    between atoms: C_1  and  N_2
REMARK    2  A    between atoms: C_1  and  C_7
REMARK    3  A    between atoms: C_1  and  C_10
REMARK    4  A    between atoms: C_7  and  O_8
REMARK    5  A    between atoms: C_10  and  S_11
REMARK    6  A    between atoms: S_11  and  S_12
REMARK    7  A    between atoms: S_12  and  C_13
REMARK    8  A    between atoms: C_13  and  C_14
REMARK    9  A    between atoms: C_14  and  O_15
REMARK                            x       y       z     vdW  Elec       q    Type
REMARK                         _______ _______ _______ _____ _____    ______ ____
ROOT
ATOM      1  C   UNK     1      39.171 -25.077 -14.326  0.00  0.00    +0.047 C 
ENDROOT
BRANCH   1   2
ATOM      2  N   UNK     1      38.765 -24.299 -15.499  0.00  0.00    +0.389 N 
ATOM      3  H   UNK     1      37.925 -23.766 -15.278  0.00  0.00    -0.088 HD
ATOM      4  H   UNK     1      38.574 -24.932 -16.277  0.00  0.00    -0.088 HD
ATOM      5  H   UNK     1      39.516 -23.659 -15.759  0.00  0.00    -0.088 HD
ENDBRANCH   1   2
BRANCH   1   7
ATOM      6  O   UNK     1      41.032 -26.575 -13.950  0.00  0.00    -0.253 OA
ATOM      7  C   UNK     1      40.328 -25.965 -14.745  0.00  0.00    +0.294 C 
BRANCH   7   8
ATOM      8  O   UNK     1      40.538 -25.995 -16.086  0.00  0.00    -0.482 OA
ATOM      9  H   UNK     1      40.355 -26.776 -16.571  0.00  0.00    +0.295 HD
ENDBRANCH   7   8
ENDBRANCH   1   7
BRANCH   1  10
ATOM     10  C   UNK     1      37.985 -25.883 -13.797  0.00  0.00    +0.058 C 
BRANCH  10  11
ATOM     11  S   UNK     1      36.448 -25.507 -14.700  0.00  0.00    -0.084 S 
BRANCH  11  12
ATOM     12  S   UNK     1      35.419 -24.402 -13.306  0.00  0.00    -0.080 S 
BRANCH  12  13
ATOM     13  C   UNK     1      36.587 -24.368 -11.926  0.00  0.00    +0.100 C 
BRANCH  13  14
ATOM     14  C   UNK     1      37.098 -22.959 -11.666  0.00  0.00    +0.150 C 
BRANCH  14  15
ATOM     15  O   UNK     1      38.517 -22.958 -11.601  0.00  0.00    -0.381 OA
ATOM     16  H   UNK     1      38.859 -22.142 -12.000  0.00  0.00    +0.210 HD
ENDBRANCH  14  15
ENDBRANCH  13  14
ENDBRANCH  12  13
ENDBRANCH  11  12
ENDBRANCH  10  11
ENDBRANCH   1  10
TORSDOF 9
ENDMDL
MODEL 3
REMARK VINA RESULT:      -5.1      2.953      4.765
REMARK  Name = 170018
REMARK  9 active torsions:
REMARK  status: ('A' for Active; 'I' for Inactive)
REMARK    1  A    between atoms: C_1  and  N_2
REMARK    2  A    between atoms: C_1  and  C_7
REMARK    3  A    between atoms: C_1  and  C_10
REMARK    4  A    between atoms: C_7  and  O_8
REMARK    5  A    between atoms: C_10  and  S_11
REMARK    6  A    between atoms: S_11  and  S_12
REMARK    7  A    between atoms: S_12  and  C_13
REMARK    8  A    between atoms: C_13  and  C_14
REMARK    9  A    between atoms: C_14  and  O_15
REMARK                            x       y       z     vdW  Elec       q    Type
REMARK                         _______ _______ _______ _____ _____    ______ ____
ROOT
ATOM      1  C   UNK     1      36.790 -24.001 -11.982  0.00  0.00    +0.047 C 
ENDROOT
BRANCH   1   2
ATOM      2  N   UNK     1      37.294 -22.798 -11.315  0.00  0.00    +0.389 N 
ATOM      3  H   UNK     1      38.114 -23.036 -10.759  0.00  0.00    -0.088 HD
ATOM      4  H   UNK     1      36.568 -22.417 -10.708  0.00  0.00    -0.088 HD
ATOM      5  H   UNK     1      37.549 -22.102 -12.016  0.00  0.00    -0.088 HD
ENDBRANCH   1   2
BRANCH   1   7
ATOM      6  O   UNK     1      35.537 -24.497  -9.975  0.00  0.00    -0.253 OA
ATOM      7  C   UNK     1      35.585 -24.487 -11.199  0.00  0.00    +0.294 C 
BRANCH   7   8
ATOM      8  O   UNK     1      34.574 -24.946 -11.978  0.00  0.00    -0.482 OA
ATOM      9  H   UNK     1      34.352 -24.495 -12.770  0.00  0.00    +0.295 HD
ENDBRANCH   7   8
ENDBRANCH   1   7
BRANCH   1  10
ATOM     10  C   UNK     1      37.895 -25.056 -12.061  0.00  0.00    +0.058 C 
BRANCH  10  11
ATOM     11  S   UNK     1      38.674 -25.104 -13.707  0.00  0.00    -0.084 S 
BRANCH  11  12
ATOM     12  S   UNK     1      37.226 -24.220 -14.867  0.00  0.00    -0.080 S 
BRANCH  12  13
ATOM     13  C   UNK     1      36.080 -25.593 -15.137  0.00  0.00    +0.100 C 
BRANCH  13  14
ATOM     14  C   UNK     1      36.813 -26.924 -15.193  0.00  0.00    +0.150 C 
BRANCH  14  15
ATOM     15  O   UNK     1      36.828 -27.419 -16.525  0.00  0.00    -0.381 OA
ATOM     16  H   UNK     1      37.079 -26.706 -17.132  0.00  0.00    +0.210 HD
ENDBRANCH  14  15
ENDBRANCH  13  14
ENDBRANCH  12  13
ENDBRANCH  11  12
ENDBRANCH  10  11
ENDBRANCH   1  10
TORSDOF 9
ENDMDL
MODEL 4
REMARK VINA RESULT:      -5.1      2.014      4.828
REMARK  Name = 170018
REMARK  9 active torsions:
REMARK  status: ('A' for Active; 'I' for Inactive)
REMARK    1  A    between atoms: C_1  and  N_2
REMARK    2  A    between atoms: C_1  and  C_7
REMARK    3  A    between atoms: C_1  and  C_10
REMARK    4  A    between atoms: C_7  and  O_8
REMARK    5  A    between atoms: C_10  and  S_11
REMARK    6  A    between atoms: S_11  and  S_12
REMARK    7  A    between atoms: S_12  and  C_13
REMARK    8  A    between atoms: C_13  and  C_14
REMARK    9  A    between atoms: C_14  and  O_15
REMARK                            x       y       z     vdW  Elec       q    Type
REMARK                         _______ _______ _______ _____ _____    ______ ____
ROOT
ATOM      1  C   UNK     1      35.761 -24.630 -12.919  0.00  0.00    +0.047 C 
ENDROOT
BRANCH   1   2
ATOM      2  N   UNK     1      34.306 -24.704 -13.077  0.00  0.00    +0.389 N 
ATOM      3  H   UNK     1      33.921 -25.341 -12.380  0.00  0.00    -0.088 HD
ATOM      4  H   UNK     1      34.083 -25.045 -14.012  0.00  0.00    -0.088 HD
ATOM      5  H   UNK     1      33.903 -23.775 -12.949  0.00  0.00    -0.088 HD
ENDBRANCH   1   2
BRANCH   1   7
ATOM      6  O   UNK     1      35.249 -25.098 -10.602  0.00  0.00    -0.253 OA
ATOM      7  C   UNK     1      36.064 -24.720 -11.435  0.00  0.00    +0.294 C 
BRANCH   7   8
ATOM      8  O   UNK     1      37.315 -24.309 -11.106  0.00  0.00    -0.482 OA
ATOM      9  H   UNK     1      37.765 -23.695 -11.653  0.00  0.00    +0.295 HD
ENDBRANCH   7   8
ENDBRANCH   1   7
BRANCH   1  10
ATOM     10  C   UNK     1      36.290 -23.338 -13.541  0.00  0.00    +0.058 C 
BRANCH  10  11
ATOM     11  S   UNK     1      37.338 -23.662 -14.996  0.00  0.00    -0.084 S 
BRANCH  11  12
ATOM     12  S   UNK     1      37.729 -25.667 -14.775  0.00  0.00    -0.080 S 
BRANCH  12  13
ATOM     13  C   UNK     1      39.284 -25.639 -13.850  0.00  0.00    +0.100 C 
BRANCH  13  14
ATOM     14  C   UNK     1      40.464 -25.332 -14.759  0.00  0.00    +0.150 C 
BRANCH  14  15
ATOM     15  O   UNK     1      40.260 -25.914 -16.039  0.00  0.00    -0.381 OA
ATOM     16  H   UNK     1      39.590 -26.612 -15.975  0.00  0.00    +0.210 HD
ENDBRANCH  14  15
ENDBRANCH  13  14
ENDBRANCH  12  13
ENDBRANCH  11  12
ENDBRANCH  10  11
ENDBRANCH   1  10
TORSDOF 9
ENDMDL
MODEL 5
REMARK VINA RESULT:      -5.0      2.249      2.410
REMARK  Name = 170018
REMARK  9 active torsions:
REMARK  status: ('A' for Active; 'I' for Inactive)
REMARK    1  A    between atoms: C_1  and  N_2
REMARK    2  A    between atoms: C_1  and  C_7
REMARK    3  A    between atoms: C_1  and  C_10
REMARK    4  A    between atoms: C_7  and  O_8
REMARK    5  A    between atoms: C_10  and  S_11
REMARK    6  A    between atoms: S_11  and  S_12
REMARK    7  A    between atoms: S_12  and  C_13
REMARK    8  A    between atoms: C_13  and  C_14
REMARK    9  A    between atoms: C_14  and  O_15
REMARK                            x       y       z     vdW  Elec       q    Type
REMARK                         _______ _______ _______ _____ _____    ______ ____
ROOT
ATOM      1  C   UNK     1      38.716 -25.165 -14.525  0.00  0.00    +0.047 C 
ENDROOT
BRANCH   1   2
ATOM      2  N   UNK     1      37.924 -26.066 -15.367  0.00  0.00    +0.389 N 
ATOM      3  H   UNK     1      38.545 -26.580 -15.991  0.00  0.00    -0.088 HD
ATOM      4  H   UNK     1      37.260 -25.521 -15.917  0.00  0.00    -0.088 HD
ATOM      5  H   UNK     1      37.416 -26.724 -14.776  0.00  0.00    -0.088 HD
ENDBRANCH   1   2
BRANCH   1   7
ATOM      6  O   UNK     1      41.090 -24.721 -14.409  0.00  0.00    -0.253 OA
ATOM      7  C   UNK     1      40.152 -25.231 -15.010  0.00  0.00    +0.294 C 
BRANCH   7   8
ATOM      8  O   UNK     1      40.301 -25.876 -16.194  0.00  0.00    -0.482 OA
ATOM      9  H   UNK     1      39.554 -26.037 -16.737  0.00  0.00    +0.295 HD
ENDBRANCH   7   8
ENDBRANCH   1   7
BRANCH   1  10
ATOM     10  C   UNK     1      38.581 -25.568 -13.056  0.00  0.00    +0.058 C 
BRANCH  10  11
ATOM     11  S   UNK     1      37.850 -24.237 -12.049  0.00  0.00    -0.084 S 
BRANCH  11  12
ATOM     12  S   UNK     1      35.845 -24.648 -12.228  0.00  0.00    -0.080 S 
BRANCH  12  13
ATOM     13  C   UNK     1      35.391 -23.653 -13.668  0.00  0.00    +0.100 C 
BRANCH  13  14
ATOM     14  C   UNK     1      34.583 -24.463 -14.670  0.00  0.00    +0.150 C 
BRANCH  14  15
ATOM     15  O   UNK     1      35.369 -24.742 -15.820  0.00  0.00    -0.381 OA
ATOM     16  H   UNK     1      34.849 -25.266 -16.449  0.00  0.00    +0.210 HD
ENDBRANCH  14  15
ENDBRANCH  13  14
ENDBRANCH  12  13
ENDBRANCH  11  12
ENDBRANCH  10  11
ENDBRANCH   1  10
TORSDOF 9
ENDMDL
MODEL 6
REMARK VINA RESULT:      -4.9      2.880      4.781
REMARK  Name = 170018
REMARK  9 active torsions:
REMARK  status: ('A' for Active; 'I' for Inactive)
REMARK    1  A    between atoms: C_1  and  N_2
REMARK    2  A    between atoms: C_1  and  C_7
REMARK    3  A    between atoms: C_1  and  C_10
REMARK    4  A    between atoms: C_7  and  O_8
REMARK    5  A    between atoms: C_10  and  S_11
REMARK    6  A    between atoms: S_11  and  S_12
REMARK    7  A    between atoms: S_12  and  C_13
REMARK    8  A    between atoms: C_13  and  C_14
REMARK    9  A    between atoms: C_14  and  O_15
REMARK                            x       y       z     vdW  Elec       q    Type
REMARK                         _______ _______ _______ _____ _____    ______ ____
ROOT
ATOM      1  C   UNK     1      35.721 -24.578 -12.676  0.00  0.00    +0.047 C 
ENDROOT
BRANCH   1   2
ATOM      2  N   UNK     1      34.269 -24.722 -12.810  0.00  0.00    +0.389 N 
ATOM      3  H   UNK     1      33.988 -25.645 -12.481  0.00  0.00    -0.088 HD
ATOM      4  H   UNK     1      34.006 -24.613 -13.790  0.00  0.00    -0.088 HD
ATOM      5  H   UNK     1      33.804 -24.005 -12.252  0.00  0.00    -0.088 HD
ENDBRANCH   1   2
BRANCH   1   7
ATOM      6  O   UNK     1      36.983 -23.807 -10.762  0.00  0.00    -0.253 OA
ATOM      7  C   UNK     1      36.033 -24.447 -11.197  0.00  0.00    +0.294 C 
BRANCH   7   8
ATOM      8  O   UNK     1      35.181 -25.135 -10.395  0.00  0.00    -0.482 OA
ATOM      9  H   UNK     1      34.372 -25.459 -10.740  0.00  0.00    +0.295 HD
ENDBRANCH   7   8
ENDBRANCH   1   7
BRANCH   1  10
ATOM     10  C   UNK     1      36.203 -23.368 -13.479  0.00  0.00    +0.058 C 
BRANCH  10  11
ATOM     11  S   UNK     1      37.242 -23.859 -14.892  0.00  0.00    -0.084 S 
BRANCH  11  12
ATOM     12  S   UNK     1      38.585 -25.125 -13.987  0.00  0.00    -0.080 S 
BRANCH  12  13
ATOM     13  C   UNK     1      38.062 -26.735 -14.625  0.00  0.00    +0.100 C 
BRANCH  13  14
ATOM     14  C   UNK     1      36.727 -26.639 -15.345  0.00  0.00    +0.150 C 
BRANCH  14  15
ATOM     15  O   UNK     1      36.746 -27.437 -16.521  0.00  0.00    -0.381 OA
ATOM     16  H   UNK     1      36.064 -27.125 -17.135  0.00  0.00    +0.210 HD
ENDBRANCH  14  15
ENDBRANCH  13  14
ENDBRANCH  12  13
ENDBRANCH  11  12
ENDBRANCH  10  11
ENDBRANCH   1  10
TORSDOF 9
ENDMDL
MODEL 7
REMARK VINA RESULT:      -4.9      8.858     10.479
REMARK  Name = 170018
REMARK  9 active torsions:
REMARK  status: ('A' for Active; 'I' for Inactive)
REMARK    1  A    between atoms: C_1  and  N_2
REMARK    2  A    between atoms: C_1  and  C_7
REMARK    3  A    between atoms: C_1  and  C_10
REMARK    4  A    between atoms: C_7  and  O_8
REMARK    5  A    between atoms: C_10  and  S_11
REMARK    6  A    between atoms: S_11  and  S_12
REMARK    7  A    between atoms: S_12  and  C_13
REMARK    8  A    between atoms: C_13  and  C_14
REMARK    9  A    between atoms: C_14  and  O_15
REMARK                            x       y       z     vdW  Elec       q    Type
REMARK                         _______ _______ _______ _____ _____    ______ ____
ROOT
ATOM      1  C   UNK     1      27.708 -22.894 -16.250  0.00  0.00    +0.047 C 
ENDROOT
BRANCH   1   2
ATOM      2  N   UNK     1      28.155 -23.355 -17.568  0.00  0.00    +0.389 N 
ATOM      3  H   UNK     1      28.363 -24.352 -17.526  0.00  0.00    -0.088 HD
ATOM      4  H   UNK     1      28.994 -22.842 -17.840  0.00  0.00    -0.088 HD
ATOM      5  H   UNK     1      27.418 -23.189 -18.253  0.00  0.00    -0.088 HD
ENDBRANCH   1   2
BRANCH   1   7
ATOM      6  O   UNK     1      26.620 -21.038 -17.352  0.00  0.00    -0.253 OA
ATOM      7  C   UNK     1      26.594 -21.889 -16.472  0.00  0.00    +0.294 C 
BRANCH   7   8
ATOM      8  O   UNK     1      25.576 -21.995 -15.581  0.00  0.00    -0.482 OA
ATOM      9  H   UNK     1      25.072 -22.784 -15.537  0.00  0.00    +0.295 HD
ENDBRANCH   7   8
ENDBRANCH   1   7
BRANCH   1  10
ATOM     10  C   UNK     1      28.885 -22.295 -15.479  0.00  0.00    +0.058 C 
BRANCH  10  11
ATOM     11  S   UNK     1      30.481 -22.971 -16.038  0.00  0.00    -0.084 S 
BRANCH  11  12
ATOM     12  S   UNK     1      31.504 -23.117 -14.262  0.00  0.00    -0.080 S 
BRANCH  12  13
ATOM     13  C   UNK     1      30.991 -24.749 -13.674  0.00  0.00    +0.100 C 
BRANCH  13  14
ATOM     14  C   UNK     1      30.183 -25.489 -14.727  0.00  0.00    +0.150 C 
BRANCH  14  15
ATOM     15  O   UNK     1      28.834 -25.627 -14.301  0.00  0.00    -0.381 OA
ATOM     16  H   UNK     1      28.561 -24.827 -13.827  0.00  0.00    +0.210 HD
ENDBRANCH  14  15
ENDBRANCH  13  14
ENDBRANCH  12  13
ENDBRANCH  11  12
ENDBRANCH  10  11
ENDBRANCH   1  10
TORSDOF 9
ENDMDL
MODEL 8
REMARK VINA RESULT:      -4.7      2.636      3.034
REMARK  Name = 170018
REMARK  9 active torsions:
REMARK  status: ('A' for Active; 'I' for Inactive)
REMARK    1  A    between atoms: C_1  and  N_2
REMARK    2  A    between atoms: C_1  and  C_7
REMARK    3  A    between atoms: C_1  and  C_10
REMARK    4  A    between atoms: C_7  and  O_8
REMARK    5  A    between atoms: C_10  and  S_11
REMARK    6  A    between atoms: S_11  and  S_12
REMARK    7  A    between atoms: S_12  and  C_13
REMARK    8  A    between atoms: C_13  and  C_14
REMARK    9  A    between atoms: C_14  and  O_15
REMARK                            x       y       z     vdW  Elec       q    Type
REMARK                         _______ _______ _______ _____ _____    ______ ____
ROOT
ATOM      1  C   UNK     1      38.444 -25.029 -13.533  0.00  0.00    +0.047 C 
ENDROOT
BRANCH   1   2
ATOM      2  N   UNK     1      39.425 -26.100 -13.728  0.00  0.00    +0.389 N 
ATOM      3  H   UNK     1      39.123 -26.932 -13.221  0.00  0.00    -0.088 HD
ATOM      4  H   UNK     1      40.333 -25.796 -13.376  0.00  0.00    -0.088 HD
ATOM      5  H   UNK     1      39.500 -26.315 -14.722  0.00  0.00    -0.088 HD
ENDBRANCH   1   2
BRANCH   1   7
ATOM      6  O   UNK     1      36.967 -26.291 -12.094  0.00  0.00    -0.253 OA
ATOM      7  C   UNK     1      37.699 -25.320 -12.244  0.00  0.00    +0.294 C 
BRANCH   7   8
ATOM      8  O   UNK     1      37.888 -24.385 -11.279  0.00  0.00    -0.482 OA
ATOM      9  H   UNK     1      38.329 -24.616 -10.484  0.00  0.00    +0.295 HD
ENDBRANCH   7   8
ENDBRANCH   1   7
BRANCH   1  10
ATOM     10  C   UNK     1      37.508 -24.952 -14.740  0.00  0.00    +0.058 C 
BRANCH  10  11
ATOM     11  S   UNK     1      37.375 -23.256 -15.392  0.00  0.00    -0.084 S 
BRANCH  11  12
ATOM     12  S   UNK     1      35.336 -23.009 -15.467  0.00  0.00    -0.080 S 
BRANCH  12  13
ATOM     13  C   UNK     1      34.751 -24.534 -14.690  0.00  0.00    +0.100 C 
BRANCH  13  14
ATOM     14  C   UNK     1      33.807 -24.241 -13.535  0.00  0.00    +0.150 C 
BRANCH  14  15
ATOM     15  O   UNK     1      34.342 -24.758 -12.324  0.00  0.00    -0.381 OA
ATOM     16  H   UNK     1      35.282 -24.529 -12.261  0.00  0.00    +0.210 HD
ENDBRANCH  14  15
ENDBRANCH  13  14
ENDBRANCH  12  13
ENDBRANCH  11  12
ENDBRANCH  10  11
ENDBRANCH   1  10
TORSDOF 9
ENDMDL
MODEL 9
REMARK VINA RESULT:      -4.7      2.420      3.067
REMARK  Name = 170018
REMARK  9 active torsions:
REMARK  status: ('A' for Active; 'I' for Inactive)
REMARK    1  A    between atoms: C_1  and  N_2
REMARK    2  A    between atoms: C_1  and  C_7
REMARK    3  A    between atoms: C_1  and  C_10
REMARK    4  A    between atoms: C_7  and  O_8
REMARK    5  A    between atoms: C_10  and  S_11
REMARK    6  A    between atoms: S_11  and  S_12
REMARK    7  A    between atoms: S_12  and  C_13
REMARK    8  A    between atoms: C_13  and  C_14
REMARK    9  A    between atoms: C_14  and  O_15
REMARK                            x       y       z     vdW  Elec       q    Type
REMARK                         _______ _______ _______ _____ _____    ______ ____
ROOT
ATOM      1  C   UNK     1      38.810 -25.993 -14.263  0.00  0.00    +0.047 C 
ENDROOT
BRANCH   1   2
ATOM      2  N   UNK     1      38.710 -25.494 -12.890  0.00  0.00    +0.389 N 
ATOM      3  H   UNK     1      37.951 -24.815 -12.830  0.00  0.00    -0.088 HD
ATOM      4  H   UNK     1      39.589 -25.048 -12.626  0.00  0.00    -0.088 HD
ATOM      5  H   UNK     1      38.521 -26.272 -12.258  0.00  0.00    -0.088 HD
ENDBRANCH   1   2
BRANCH   1   7
ATOM      6  O   UNK     1      40.855 -24.704 -14.250  0.00  0.00    -0.253 OA
ATOM      7  C   UNK     1      40.114 -25.478 -14.843  0.00  0.00    +0.294 C 
BRANCH   7   8
ATOM      8  O   UNK     1      40.371 -25.926 -16.098  0.00  0.00    -0.482 OA
ATOM      9  H   UNK     1      41.223 -26.250 -16.314  0.00  0.00    +0.295 HD
ENDBRANCH   7   8
ENDBRANCH   1   7
BRANCH   1  10
ATOM     10  C   UNK     1      37.596 -25.539 -15.075  0.00  0.00    +0.058 C 
BRANCH  10  11
ATOM     11  S   UNK     1      36.223 -25.003 -14.004  0.00  0.00    -0.084 S 
BRANCH  11  12
ATOM     12  S   UNK     1      35.841 -23.125 -14.745  0.00  0.00    -0.080 S 
BRANCH  12  13
ATOM     13  C   UNK     1      37.313 -22.818 -15.749  0.00  0.00    +0.100 C 
BRANCH  13  14
ATOM     14  C   UNK     1      36.984 -21.974 -16.971  0.00  0.00    +0.150 C 
BRANCH  14  15
ATOM     15  O   UNK     1      35.800 -22.454 -17.592  0.00  0.00    -0.381 OA
ATOM     16  H   UNK     1      35.048 -22.338 -16.991  0.00  0.00    +0.210 HD
ENDBRANCH  14  15
ENDBRANCH  13  14
ENDBRANCH  12  13
ENDBRANCH  11  12
ENDBRANCH  10  11
ENDBRANCH   1  10
TORSDOF 9
ENDMDL
