MODEL 1
REMARK VINA RESULT:     -10.0      0.000      0.000
REMARK  Name = 39941
REMARK  4 active torsions:
REMARK  status: ('A' for Active; 'I' for Inactive)
REMARK    1  A    between atoms: C_3  and  C_17
REMARK    2  A    between atoms: C_9  and  C_11
REMARK    3  A    between atoms: C_17  and  C_20
REMARK    4  A    between atoms: C_20  and  O_21
REMARK                            x       y       z     vdW  Elec       q    Type
REMARK                         _______ _______ _______ _____ _____    ______ ____
ROOT
ATOM      1  O   UNL     1      34.757 -22.830 -17.145  0.00  0.00    -0.425 OA
ATOM      2  N   UNL     1      36.958 -22.289 -17.135  0.00  0.00    -0.368 NA
ATOM      3  C   UNL     1      36.911 -24.414 -14.061  0.00  0.00    -0.027 C 
ATOM      4  C   UNL     1      36.680 -23.097 -16.060  0.00  0.00    +0.151 C 
ATOM      5  C   UNL     1      37.499 -23.596 -15.037  0.00  0.00    +0.085 C 
ATOM      6  C   UNL     1      35.333 -23.431 -16.063  0.00  0.00    +0.174 C 
ATOM      7  C   UNL     1      35.546 -24.726 -14.101  0.00  0.00    -0.004 C 
ATOM      8  C   UNL     1      34.714 -24.236 -15.115  0.00  0.00    +0.039 C 
ATOM      9  C   UNL     1      35.793 -22.168 -17.733  0.00  0.00    +0.282 C 
ENDROOT
BRANCH   9  11
ATOM     10 CL   UNL     1      34.389 -19.123 -22.653  0.00  0.00    -0.082 Cl
ATOM     11  C   UNL     1      35.454 -21.434 -18.920  0.00  0.00    +0.066 C 
ATOM     12  C   UNL     1      36.451 -20.785 -19.655  0.00  0.00    +0.007 C 
ATOM     13  C   UNL     1      34.125 -21.363 -19.348  0.00  0.00    +0.007 C 
ATOM     14  C   UNL     1      36.122 -20.071 -20.807  0.00  0.00    +0.012 C 
ATOM     15  C   UNL     1      33.797 -20.649 -20.500  0.00  0.00    +0.012 C 
ATOM     16  C   UNL     1      34.794 -20.003 -21.230  0.00  0.00    +0.058 C 
ENDBRANCH   9  11
BRANCH   3  17
ATOM     17  C   UNL     1      37.757 -24.961 -12.959  0.00  0.00    +0.118 C 
ATOM     18  C   UNL     1      39.177 -25.362 -13.403  0.00  0.00    +0.016 C 
BRANCH  17  20
ATOM     19  O   UNL     1      38.705 -23.101 -11.692  0.00  0.00    -0.250 OA
ATOM     20  C   UNL     1      37.877 -23.999 -11.772  0.00  0.00    +0.317 C 
BRANCH  20  21
ATOM     21  O   UNL     1      36.968 -24.247 -10.792  0.00  0.00    -0.480 OA
ATOM     22  H   UNL     1      36.385 -24.976 -10.868  0.00  0.00    +0.295 HD
ENDBRANCH  20  21
ENDBRANCH  17  20
ENDBRANCH   3  17
TORSDOF 4
ENDMDL
MODEL 2
REMARK VINA RESULT:      -9.8      7.469     12.346
REMARK  Name = 39941
REMARK  4 active torsions:
REMARK  status: ('A' for Active; 'I' for Inactive)
REMARK    1  A    between atoms: C_3  and  C_17
REMARK    2  A    between atoms: C_9  and  C_11
REMARK    3  A    between atoms: C_17  and  C_20
REMARK    4  A    between atoms: C_20  and  O_21
REMARK                            x       y       z     vdW  Elec       q    Type
REMARK                         _______ _______ _______ _____ _____    ______ ____
ROOT
ATOM      1  O   UNL     1      34.151 -16.944 -23.635  0.00  0.00    -0.425 OA
ATOM      2  N   UNL     1      34.571 -15.570 -21.882  0.00  0.00    -0.368 NA
ATOM      3  C   UNL     1      33.637 -12.967 -24.395  0.00  0.00    -0.027 C 
ATOM      4  C   UNL     1      34.194 -14.822 -22.970  0.00  0.00    +0.151 C 
ATOM      5  C   UNL     1      34.043 -13.438 -23.139  0.00  0.00    +0.085 C 
ATOM      6  C   UNL     1      33.937 -15.660 -24.046  0.00  0.00    +0.174 C 
ATOM      7  C   UNL     1      33.387 -13.848 -25.455  0.00  0.00    -0.004 C 
ATOM      8  C   UNL     1      33.533 -15.232 -25.305  0.00  0.00    +0.039 C 
ATOM      9  C   UNL     1      34.527 -16.805 -22.333  0.00  0.00    +0.282 C 
ENDROOT
BRANCH   9  11
ATOM     10 CL   UNL     1      35.745 -21.893 -19.492  0.00  0.00    -0.082 Cl
ATOM     11  C   UNL     1      34.822 -18.033 -21.648  0.00  0.00    +0.066 C 
ATOM     12  C   UNL     1      33.784 -18.868 -21.225  0.00  0.00    +0.007 C 
ATOM     13  C   UNL     1      36.147 -18.399 -21.399  0.00  0.00    +0.007 C 
ATOM     14  C   UNL     1      34.068 -20.060 -20.559  0.00  0.00    +0.012 C 
ATOM     15  C   UNL     1      36.432 -19.591 -20.733  0.00  0.00    +0.012 C 
ATOM     16  C   UNL     1      35.393 -20.422 -20.313  0.00  0.00    +0.058 C 
ENDBRANCH   9  11
BRANCH   3  17
ATOM     17  C   UNL     1      33.467 -11.498 -24.606  0.00  0.00    +0.118 C 
ATOM     18  C   UNL     1      32.960 -10.745 -23.361  0.00  0.00    +0.016 C 
BRANCH  17  20
ATOM     19  O   UNL     1      35.179 -10.881 -26.235  0.00  0.00    -0.250 OA
ATOM     20  C   UNL     1      34.752 -10.818 -25.090  0.00  0.00    +0.317 C 
BRANCH  20  21
ATOM     21  O   UNL     1      35.393 -10.130 -24.107  0.00  0.00    -0.480 OA
ATOM     22  H   UNL     1      35.063 -10.151 -23.230  0.00  0.00    +0.295 HD
ENDBRANCH  20  21
ENDBRANCH  17  20
ENDBRANCH   3  17
TORSDOF 4
ENDMDL
MODEL 3
REMARK VINA RESULT:      -9.7      3.920      8.601
REMARK  Name = 39941
REMARK  4 active torsions:
REMARK  status: ('A' for Active; 'I' for Inactive)
REMARK    1  A    between atoms: C_3  and  C_17
REMARK    2  A    between atoms: C_9  and  C_11
REMARK    3  A    between atoms: C_17  and  C_20
REMARK    4  A    between atoms: C_20  and  O_21
REMARK                            x       y       z     vdW  Elec       q    Type
REMARK                         _______ _______ _______ _____ _____    ______ ____
ROOT
ATOM      1  O   UNL     1      34.487 -21.678 -18.648  0.00  0.00    -0.425 OA
ATOM      2  N   UNL     1      36.633 -20.989 -18.885  0.00  0.00    -0.368 NA
ATOM      3  C   UNL     1      35.171 -19.229 -21.841  0.00  0.00    -0.027 C 
ATOM      4  C   UNL     1      35.866 -20.455 -19.892  0.00  0.00    +0.151 C 
ATOM      5  C   UNL     1      36.195 -19.610 -20.962  0.00  0.00    +0.085 C 
ATOM      6  C   UNL     1      34.552 -20.875 -19.750  0.00  0.00    +0.174 C 
ATOM      7  C   UNL     1      33.857 -19.677 -21.661  0.00  0.00    -0.004 C 
ATOM      8  C   UNL     1      33.511 -20.521 -20.600  0.00  0.00    +0.039 C 
ATOM      9  C   UNL     1      35.770 -21.696 -18.189  0.00  0.00    +0.282 C 
ENDROOT
BRANCH   9  11
ATOM     10 CL   UNL     1      36.663 -24.980 -13.305  0.00  0.00    -0.082 Cl
ATOM     11  C   UNL     1      35.986 -22.489 -17.011  0.00  0.00    +0.066 C 
ATOM     12  C   UNL     1      34.924 -23.189 -16.430  0.00  0.00    +0.007 C 
ATOM     13  C   UNL     1      37.258 -22.564 -16.437  0.00  0.00    +0.007 C 
ATOM     14  C   UNL     1      35.133 -23.958 -15.285  0.00  0.00    +0.012 C 
ATOM     15  C   UNL     1      37.467 -23.333 -15.292  0.00  0.00    +0.012 C 
ATOM     16  C   UNL     1      36.405 -24.030 -14.717  0.00  0.00    +0.058 C 
ENDBRANCH   9  11
BRANCH   3  17
ATOM     17  C   UNL     1      35.490 -18.330 -22.990  0.00  0.00    +0.118 C 
ATOM     18  C   UNL     1      34.689 -18.644 -24.268  0.00  0.00    +0.016 C 
BRANCH  17  20
ATOM     19  O   UNL     1      34.878 -16.432 -21.581  0.00  0.00    -0.250 OA
ATOM     20  C   UNL     1      35.297 -16.848 -22.653  0.00  0.00    +0.317 C 
BRANCH  20  21
ATOM     21  O   UNL     1      35.632 -16.021 -23.680  0.00  0.00    -0.480 OA
ATOM     22  H   UNL     1      36.500 -16.043 -24.034  0.00  0.00    +0.295 HD
ENDBRANCH  20  21
ENDBRANCH  17  20
ENDBRANCH   3  17
TORSDOF 4
ENDMDL
MODEL 4
REMARK VINA RESULT:      -9.5      7.579     12.277
REMARK  Name = 39941
REMARK  4 active torsions:
REMARK  status: ('A' for Active; 'I' for Inactive)
REMARK    1  A    between atoms: C_3  and  C_17
REMARK    2  A    between atoms: C_9  and  C_11
REMARK    3  A    between atoms: C_17  and  C_20
REMARK    4  A    between atoms: C_20  and  O_21
REMARK                            x       y       z     vdW  Elec       q    Type
REMARK                         _______ _______ _______ _____ _____    ______ ____
ROOT
ATOM      1  O   UNL     1      33.277 -15.784 -21.128  0.00  0.00    -0.425 OA
ATOM      2  N   UNL     1      34.662 -15.752 -22.921  0.00  0.00    -0.368 NA
ATOM      3  C   UNL     1      33.139 -12.366 -23.355  0.00  0.00    -0.027 C 
ATOM      4  C   UNL     1      33.964 -14.570 -22.860  0.00  0.00    +0.151 C 
ATOM      5  C   UNL     1      33.984 -13.436 -23.684  0.00  0.00    +0.085 C 
ATOM      6  C   UNL     1      33.115 -14.586 -21.763  0.00  0.00    +0.174 C 
ATOM      7  C   UNL     1      32.297 -12.424 -22.237  0.00  0.00    -0.004 C 
ATOM      8  C   UNL     1      32.264 -13.549 -21.405  0.00  0.00    +0.039 C 
ATOM      9  C   UNL     1      34.216 -16.422 -21.881  0.00  0.00    +0.282 C 
ENDROOT
BRANCH   9  11
ATOM     10 CL   UNL     1      35.713 -21.862 -19.983  0.00  0.00    -0.082 Cl
ATOM     11  C   UNL     1      34.578 -17.734 -21.424  0.00  0.00    +0.066 C 
ATOM     12  C   UNL     1      33.586 -18.672 -21.121  0.00  0.00    +0.007 C 
ATOM     13  C   UNL     1      35.923 -18.083 -21.277  0.00  0.00    +0.007 C 
ATOM     14  C   UNL     1      33.936 -19.946 -20.676  0.00  0.00    +0.012 C 
ATOM     15  C   UNL     1      36.274 -19.357 -20.832  0.00  0.00    +0.012 C 
ATOM     16  C   UNL     1      35.280 -20.289 -20.531  0.00  0.00    +0.058 C 
ENDBRANCH   9  11
BRANCH   3  17
ATOM     17  C   UNL     1      33.138 -11.144 -24.213  0.00  0.00    +0.118 C 
ATOM     18  C   UNL     1      32.720  -9.861 -23.469  0.00  0.00    +0.016 C 
BRANCH  17  20
ATOM     19  O   UNL     1      34.773 -11.237 -26.025  0.00  0.00    -0.250 OA
ATOM     20  C   UNL     1      34.492 -10.891 -24.885  0.00  0.00    +0.317 C 
BRANCH  20  21
ATOM     21  O   UNL     1      35.373 -10.243 -24.077  0.00  0.00    -0.480 OA
ATOM     22  H   UNL     1      35.351 -10.384 -23.151  0.00  0.00    +0.295 HD
ENDBRANCH  20  21
ENDBRANCH  17  20
ENDBRANCH   3  17
TORSDOF 4
ENDMDL
MODEL 5
REMARK VINA RESULT:      -9.4      1.432      1.887
REMARK  Name = 39941
REMARK  4 active torsions:
REMARK  status: ('A' for Active; 'I' for Inactive)
REMARK    1  A    between atoms: C_3  and  C_17
REMARK    2  A    between atoms: C_9  and  C_11
REMARK    3  A    between atoms: C_17  and  C_20
REMARK    4  A    between atoms: C_20  and  O_21
REMARK                            x       y       z     vdW  Elec       q    Type
REMARK                         _______ _______ _______ _____ _____    ______ ____
ROOT
ATOM      1  O   UNL     1      36.584 -21.724 -17.501  0.00  0.00    -0.425 OA
ATOM      2  N   UNL     1      34.627 -22.867 -17.486  0.00  0.00    -0.368 NA
ATOM      3  C   UNL     1      36.131 -24.331 -14.393  0.00  0.00    -0.027 C 
ATOM      4  C   UNL     1      35.386 -23.243 -16.405  0.00  0.00    +0.151 C 
ATOM      5  C   UNL     1      35.142 -24.162 -15.374  0.00  0.00    +0.085 C 
ATOM      6  C   UNL     1      36.585 -22.546 -16.411  0.00  0.00    +0.174 C 
ATOM      7  C   UNL     1      37.328 -23.605 -14.438  0.00  0.00    -0.004 C 
ATOM      8  C   UNL     1      37.588 -22.685 -15.459  0.00  0.00    +0.039 C 
ATOM      9  C   UNL     1      35.381 -21.975 -18.090  0.00  0.00    +0.282 C 
ENDROOT
BRANCH   9  11
ATOM     10 CL   UNL     1      34.297 -18.868 -23.051  0.00  0.00    -0.082 Cl
ATOM     11  C   UNL     1      35.119 -21.226 -19.287  0.00  0.00    +0.066 C 
ATOM     12  C   UNL     1      36.177 -20.691 -20.028  0.00  0.00    +0.007 C 
ATOM     13  C   UNL     1      33.804 -21.025 -19.718  0.00  0.00    +0.007 C 
ATOM     14  C   UNL     1      35.923 -19.963 -21.190  0.00  0.00    +0.012 C 
ATOM     15  C   UNL     1      33.551 -20.296 -20.880  0.00  0.00    +0.012 C 
ATOM     16  C   UNL     1      34.610 -19.765 -21.616  0.00  0.00    +0.058 C 
ENDBRANCH   9  11
BRANCH   3  17
ATOM     17  C   UNL     1      35.901 -25.302 -13.282  0.00  0.00    +0.118 C 
ATOM     18  C   UNL     1      37.123 -26.186 -12.965  0.00  0.00    +0.016 C 
BRANCH  17  20
ATOM     19  O   UNL     1      35.805 -24.964 -10.866  0.00  0.00    -0.250 OA
ATOM     20  C   UNL     1      35.450 -24.622 -11.985  0.00  0.00    +0.317 C 
BRANCH  20  21
ATOM     21  O   UNL     1      34.594 -23.587 -12.198  0.00  0.00    -0.480 OA
ATOM     22  H   UNL     1      34.120 -23.529 -13.004  0.00  0.00    +0.295 HD
ENDBRANCH  20  21
ENDBRANCH  17  20
ENDBRANCH   3  17
TORSDOF 4
ENDMDL
MODEL 6
REMARK VINA RESULT:      -9.4      7.056     12.135
REMARK  Name = 39941
REMARK  4 active torsions:
REMARK  status: ('A' for Active; 'I' for Inactive)
REMARK    1  A    between atoms: C_3  and  C_17
REMARK    2  A    between atoms: C_9  and  C_11
REMARK    3  A    between atoms: C_17  and  C_20
REMARK    4  A    between atoms: C_20  and  O_21
REMARK                            x       y       z     vdW  Elec       q    Type
REMARK                         _______ _______ _______ _____ _____    ______ ____
ROOT
ATOM      1  O   UNL     1      33.650 -16.296 -21.404  0.00  0.00    -0.425 OA
ATOM      2  N   UNL     1      34.575 -16.938 -23.371  0.00  0.00    -0.368 NA
ATOM      3  C   UNL     1      33.308 -13.588 -24.439  0.00  0.00    -0.027 C 
ATOM      4  C   UNL     1      34.021 -15.689 -23.511  0.00  0.00    +0.151 C 
ATOM      5  C   UNL     1      33.952 -14.822 -24.611  0.00  0.00    +0.085 C 
ATOM      6  C   UNL     1      33.454 -15.292 -22.309  0.00  0.00    +0.174 C 
ATOM      7  C   UNL     1      32.748 -13.227 -23.207  0.00  0.00    -0.004 C 
ATOM      8  C   UNL     1      32.808 -14.080 -22.099  0.00  0.00    +0.039 C 
ATOM      9  C   UNL     1      34.325 -17.241 -22.116  0.00  0.00    +0.282 C 
ENDROOT
BRANCH   9  11
ATOM     10 CL   UNL     1      35.725 -22.172 -19.088  0.00  0.00    -0.082 Cl
ATOM     11  C   UNL     1      34.662 -18.431 -21.385  0.00  0.00    +0.066 C 
ATOM     12  C   UNL     1      36.000 -18.733 -21.111  0.00  0.00    +0.007 C 
ATOM     13  C   UNL     1      33.656 -19.294 -20.943  0.00  0.00    +0.007 C 
ATOM     14  C   UNL     1      36.328 -19.888 -20.402  0.00  0.00    +0.012 C 
ATOM     15  C   UNL     1      33.984 -20.450 -20.234  0.00  0.00    +0.012 C 
ATOM     16  C   UNL     1      35.320 -20.747 -19.964  0.00  0.00    +0.058 C 
ENDBRANCH   9  11
BRANCH   3  17
ATOM     17  C   UNL     1      33.218 -12.643 -25.592  0.00  0.00    +0.118 C 
ATOM     18  C   UNL     1      34.369 -11.620 -25.650  0.00  0.00    +0.016 C 
BRANCH  17  20
ATOM     19  O   UNL     1      34.031 -13.340 -27.787  0.00  0.00    -0.250 OA
ATOM     20  C   UNL     1      33.145 -13.362 -26.943  0.00  0.00    +0.317 C 
BRANCH  20  21
ATOM     21  O   UNL     1      31.977 -14.034 -27.125  0.00  0.00    -0.480 OA
ATOM     22  H   UNL     1      31.560 -14.029 -27.964  0.00  0.00    +0.295 HD
ENDBRANCH  20  21
ENDBRANCH  17  20
ENDBRANCH   3  17
TORSDOF 4
ENDMDL
MODEL 7
REMARK VINA RESULT:      -9.3     10.816     14.060
REMARK  Name = 39941
REMARK  4 active torsions:
REMARK  status: ('A' for Active; 'I' for Inactive)
REMARK    1  A    between atoms: C_3  and  C_17
REMARK    2  A    between atoms: C_9  and  C_11
REMARK    3  A    between atoms: C_17  and  C_20
REMARK    4  A    between atoms: C_20  and  O_21
REMARK                            x       y       z     vdW  Elec       q    Type
REMARK                         _______ _______ _______ _____ _____    ______ ____
ROOT
ATOM      1  O   UNL     1      31.897 -11.447 -22.063  0.00  0.00    -0.425 OA
ATOM      2  N   UNL     1      33.344 -11.010 -23.751  0.00  0.00    -0.368 NA
ATOM      3  C   UNL     1      33.877 -14.703 -23.526  0.00  0.00    -0.027 C 
ATOM      4  C   UNL     1      33.359 -12.355 -23.472  0.00  0.00    +0.151 C 
ATOM      5  C   UNL     1      34.084 -13.414 -24.038  0.00  0.00    +0.085 C 
ATOM      6  C   UNL     1      32.474 -12.627 -22.438  0.00  0.00    +0.174 C 
ATOM      7  C   UNL     1      32.974 -14.933 -22.481  0.00  0.00    -0.004 C 
ATOM      8  C   UNL     1      32.242 -13.888 -21.905  0.00  0.00    +0.039 C 
ATOM      9  C   UNL     1      32.470 -10.532 -22.894  0.00  0.00    +0.282 C 
ENDROOT
BRANCH   9  11
ATOM     10 CL   UNL     1      30.650  -4.917 -22.116  0.00  0.00    -0.082 Cl
ATOM     11  C   UNL     1      32.030  -9.177 -22.705  0.00  0.00    +0.066 C 
ATOM     12  C   UNL     1      31.314  -8.524 -23.713  0.00  0.00    +0.007 C 
ATOM     13  C   UNL     1      32.318  -8.503 -21.515  0.00  0.00    +0.007 C 
ATOM     14  C   UNL     1      30.887  -7.208 -23.531  0.00  0.00    +0.012 C 
ATOM     15  C   UNL     1      31.892  -7.188 -21.334  0.00  0.00    +0.012 C 
ATOM     16  C   UNL     1      31.177  -6.540 -22.341  0.00  0.00    +0.058 C 
ENDBRANCH   9  11
BRANCH   3  17
ATOM     17  C   UNL     1      34.635 -15.851 -24.108  0.00  0.00    +0.118 C 
ATOM     18  C   UNL     1      34.778 -17.051 -23.152  0.00  0.00    +0.016 C 
BRANCH  17  20
ATOM     19  O   UNL     1      33.609 -15.626 -26.313  0.00  0.00    -0.250 OA
ATOM     20  C   UNL     1      34.031 -16.353 -25.423  0.00  0.00    +0.317 C 
BRANCH  20  21
ATOM     21  O   UNL     1      33.997 -17.710 -25.509  0.00  0.00    -0.480 OA
ATOM     22  H   UNL     1      33.311 -18.132 -25.988  0.00  0.00    +0.295 HD
ENDBRANCH  20  21
ENDBRANCH  17  20
ENDBRANCH   3  17
TORSDOF 4
ENDMDL
MODEL 8
REMARK VINA RESULT:      -9.3     11.792     15.592
REMARK  Name = 39941
REMARK  4 active torsions:
REMARK  status: ('A' for Active; 'I' for Inactive)
REMARK    1  A    between atoms: C_3  and  C_17
REMARK    2  A    between atoms: C_9  and  C_11
REMARK    3  A    between atoms: C_17  and  C_20
REMARK    4  A    between atoms: C_20  and  O_21
REMARK                            x       y       z     vdW  Elec       q    Type
REMARK                         _______ _______ _______ _____ _____    ______ ____
ROOT
ATOM      1  O   UNL     1      34.582 -11.113 -24.331  0.00  0.00    -0.425 OA
ATOM      2  N   UNL     1      32.525 -11.253 -23.389  0.00  0.00    -0.368 NA
ATOM      3  C   UNL     1      32.986  -7.553 -23.129  0.00  0.00    -0.027 C 
ATOM      4  C   UNL     1      32.931  -9.941 -23.410  0.00  0.00    +0.151 C 
ATOM      5  C   UNL     1      32.304  -8.767 -22.967  0.00  0.00    +0.085 C 
ATOM      6  C   UNL     1      34.190  -9.851 -23.986  0.00  0.00    +0.174 C 
ATOM      7  C   UNL     1      34.258  -7.507 -23.716  0.00  0.00    -0.004 C 
ATOM      8  C   UNL     1      34.898  -8.669 -24.163  0.00  0.00    +0.039 C 
ATOM      9  C   UNL     1      33.533 -11.891 -23.942  0.00  0.00    +0.282 C 
ENDROOT
BRANCH   9  11
ATOM     10 CL   UNL     1      34.185 -17.717 -24.982  0.00  0.00    -0.082 Cl
ATOM     11  C   UNL     1      33.690 -13.297 -24.193  0.00  0.00    +0.066 C 
ATOM     12  C   UNL     1      34.291 -14.120 -23.236  0.00  0.00    +0.007 C 
ATOM     13  C   UNL     1      33.244 -13.850 -25.396  0.00  0.00    +0.007 C 
ATOM     14  C   UNL     1      34.444 -15.485 -23.479  0.00  0.00    +0.012 C 
ATOM     15  C   UNL     1      33.397 -15.215 -25.640  0.00  0.00    +0.012 C 
ATOM     16  C   UNL     1      33.997 -16.032 -24.682  0.00  0.00    +0.058 C 
ENDBRANCH   9  11
BRANCH   3  17
ATOM     17  C   UNL     1      32.345  -6.286 -22.668  0.00  0.00    +0.118 C 
ATOM     18  C   UNL     1      31.083  -5.900 -23.464  0.00  0.00    +0.016 C 
BRANCH  17  20
ATOM     19  O   UNL     1      32.566  -6.988 -20.339  0.00  0.00    -0.250 OA
ATOM     20  C   UNL     1      31.985  -6.314 -21.178  0.00  0.00    +0.317 C 
BRANCH  20  21
ATOM     21  O   UNL     1      30.931  -5.511 -20.871  0.00  0.00    -0.480 OA
ATOM     22  H   UNL     1      30.088  -5.682 -21.243  0.00  0.00    +0.295 HD
ENDBRANCH  20  21
ENDBRANCH  17  20
ENDBRANCH   3  17
TORSDOF 4
ENDMDL
MODEL 9
REMARK VINA RESULT:      -9.2      3.974      5.085
REMARK  Name = 39941
REMARK  4 active torsions:
REMARK  status: ('A' for Active; 'I' for Inactive)
REMARK    1  A    between atoms: C_3  and  C_17
REMARK    2  A    between atoms: C_9  and  C_11
REMARK    3  A    between atoms: C_17  and  C_20
REMARK    4  A    between atoms: C_20  and  O_21
REMARK                            x       y       z     vdW  Elec       q    Type
REMARK                         _______ _______ _______ _____ _____    ______ ____
ROOT
ATOM      1  O   UNL     1      34.150 -22.938 -15.904  0.00  0.00    -0.425 OA
ATOM      2  N   UNL     1      33.850 -24.177 -14.030  0.00  0.00    -0.368 NA
ATOM      3  C   UNL     1      37.583 -24.290 -14.160  0.00  0.00    -0.027 C 
ATOM      4  C   UNL     1      35.193 -24.069 -14.298  0.00  0.00    +0.151 C 
ATOM      5  C   UNL     1      36.317 -24.577 -13.631  0.00  0.00    +0.085 C 
ATOM      6  C   UNL     1      35.380 -23.311 -15.445  0.00  0.00    +0.174 C 
ATOM      7  C   UNL     1      37.728 -23.520 -15.321  0.00  0.00    -0.004 C 
ATOM      8  C   UNL     1      36.617 -23.007 -16.000  0.00  0.00    +0.039 C 
ATOM      9  C   UNL     1      33.290 -23.494 -15.005  0.00  0.00    +0.282 C 
ENDROOT
BRANCH   9  11
ATOM     10 CL   UNL     1      27.518 -22.489 -16.060  0.00  0.00    -0.082 Cl
ATOM     11  C   UNL     1      31.898 -23.251 -15.260  0.00  0.00    +0.066 C 
ATOM     12  C   UNL     1      30.975 -23.275 -14.209  0.00  0.00    +0.007 C 
ATOM     13  C   UNL     1      31.455 -22.991 -16.560  0.00  0.00    +0.007 C 
ATOM     14  C   UNL     1      29.623 -23.040 -14.456  0.00  0.00    +0.012 C 
ATOM     15  C   UNL     1      30.103 -22.756 -16.807  0.00  0.00    +0.012 C 
ATOM     16  C   UNL     1      29.187 -22.780 -15.755  0.00  0.00    +0.058 C 
ENDBRANCH   9  11
BRANCH   3  17
ATOM     17  C   UNL     1      38.800 -24.816 -13.472  0.00  0.00    +0.118 C 
ATOM     18  C   UNL     1      38.490 -25.728 -12.269  0.00  0.00    +0.016 C 
BRANCH  17  20
ATOM     19  O   UNL     1      39.480 -26.660 -14.923  0.00  0.00    -0.250 OA
ATOM     20  C   UNL     1      39.735 -25.573 -14.421  0.00  0.00    +0.317 C 
BRANCH  20  21
ATOM     21  O   UNL     1      40.904 -24.917 -14.650  0.00  0.00    -0.480 OA
ATOM     22  H   UNL     1      41.707 -25.258 -14.310  0.00  0.00    +0.295 HD
ENDBRANCH  20  21
ENDBRANCH  17  20
ENDBRANCH   3  17
TORSDOF 4
ENDMDL
