MODEL 1
REMARK VINA RESULT:      -9.2      0.000      0.000
REMARK  Name = 46937045
REMARK  3 active torsions:
REMARK  status: ('A' for Active; 'I' for Inactive)
REMARK    1  A    between atoms: C_3  and  C_13
REMARK    2  A    between atoms: C_9  and  O_11
REMARK    3  A    between atoms: C_13  and  C_16
REMARK                            x       y       z     vdW  Elec       q    Type
REMARK                         _______ _______ _______ _____ _____    ______ ____
ROOT
ATOM      1  O   UNL     1      35.148 -16.595 -20.052  0.00  0.00    -0.210 OA
ATOM      2  N   UNL     1      34.273 -14.933 -21.431  0.00  0.00    -0.333 NA
ATOM      3  C   UNL     1      34.805 -16.989 -22.393  0.00  0.00    +0.080 C 
ATOM      4  C   UNL     1      34.327 -16.211 -23.366  0.00  0.00    +0.042 C 
ATOM      5  C   UNL     1      34.015 -14.944 -22.696  0.00  0.00    +0.145 C 
ATOM      6  C   UNL     1      34.778 -16.185 -21.142  0.00  0.00    +0.201 C 
ATOM      7  C   UNL     1      34.099 -16.386 -24.767  0.00  0.00    +0.040 C 
ATOM      8  C   UNL     1      33.455 -13.858 -23.527  0.00  0.00    +0.036 C 
ATOM      9  C   UNL     1      33.588 -15.361 -25.469  0.00  0.00    +0.134 C 
ATOM     10  C   UNL     1      33.266 -14.088 -24.837  0.00  0.00    +0.039 C 
ENDROOT
BRANCH   9  11
ATOM     11  O   UNL     1      33.330 -15.420 -26.819  0.00  0.00    -0.506 OA
ATOM     12  H   UNL     1      32.495 -15.153 -27.148  0.00  0.00    +0.292 HD
ENDBRANCH   9  11
BRANCH   3  13
ATOM     13  C   UNL     1      35.286 -18.389 -22.464  0.00  0.00    +0.070 C 
ATOM     14  C   UNL     1      36.811 -18.479 -22.288  0.00  0.00    +0.012 C 
BRANCH  13  16
ATOM     15  N   UNL     1      35.255 -20.157 -20.663  0.00  0.00    -0.315 N 
ATOM     16  C   UNL     1      34.564 -19.301 -21.479  0.00  0.00    +0.030 C 
ATOM     17  C   UNL     1      33.221 -19.456 -21.215  0.00  0.00    +0.012 C 
ATOM     18  C   UNL     1      34.373 -20.857 -19.880  0.00  0.00    +0.062 C 
ATOM     19  C   UNL     1      33.101 -20.440 -20.204  0.00  0.00    +0.017 C 
ATOM     20  H   UNL     1      36.234 -20.256 -20.642  0.00  0.00    +0.152 HD
ENDBRANCH  13  16
ENDBRANCH   3  13
TORSDOF 3
ENDMDL
MODEL 2
REMARK VINA RESULT:      -9.0      2.028      2.571
REMARK  Name = 46937045
REMARK  3 active torsions:
REMARK  status: ('A' for Active; 'I' for Inactive)
REMARK    1  A    between atoms: C_3  and  C_13
REMARK    2  A    between atoms: C_9  and  O_11
REMARK    3  A    between atoms: C_13  and  C_16
REMARK                            x       y       z     vdW  Elec       q    Type
REMARK                         _______ _______ _______ _____ _____    ______ ____
ROOT
ATOM      1  O   UNL     1      35.278 -19.164 -23.981  0.00  0.00    -0.210 OA
ATOM      2  N   UNL     1      34.360 -17.515 -25.346  0.00  0.00    -0.333 NA
ATOM      3  C   UNL     1      34.752 -16.993 -23.109  0.00  0.00    +0.080 C 
ATOM      4  C   UNL     1      34.232 -15.905 -23.681  0.00  0.00    +0.042 C 
ATOM      5  C   UNL     1      34.012 -16.301 -25.076  0.00  0.00    +0.145 C 
ATOM      6  C   UNL     1      34.842 -18.037 -24.164  0.00  0.00    +0.201 C 
ATOM      7  C   UNL     1      33.899 -14.593 -23.220  0.00  0.00    +0.040 C 
ATOM      8  C   UNL     1      33.433 -15.290 -25.985  0.00  0.00    +0.036 C 
ATOM      9  C   UNL     1      33.376 -13.717 -24.094  0.00  0.00    +0.134 C 
ATOM     10  C   UNL     1      33.143 -14.075 -25.488  0.00  0.00    +0.039 C 
ENDROOT
BRANCH   9  11
ATOM     11  O   UNL     1      33.020 -12.432 -23.759  0.00  0.00    -0.506 OA
ATOM     12  H   UNL     1      33.679 -11.774 -23.658  0.00  0.00    +0.292 HD
ENDBRANCH   9  11
BRANCH   3  13
ATOM     13  C   UNL     1      35.183 -17.197 -21.706  0.00  0.00    +0.070 C 
ATOM     14  C   UNL     1      34.743 -16.037 -20.797  0.00  0.00    +0.012 C 
BRANCH  13  16
ATOM     15  N   UNL     1      35.623 -19.483 -20.728  0.00  0.00    -0.315 N 
ATOM     16  C   UNL     1      34.723 -18.539 -21.147  0.00  0.00    +0.030 C 
ATOM     17  C   UNL     1      33.458 -19.048 -20.958  0.00  0.00    +0.012 C 
ATOM     18  C   UNL     1      34.951 -20.588 -20.273  0.00  0.00    +0.062 C 
ATOM     19  C   UNL     1      33.602 -20.344 -20.405  0.00  0.00    +0.017 C 
ATOM     20  H   UNL     1      36.603 -19.383 -20.751  0.00  0.00    +0.152 HD
ENDBRANCH  13  16
ENDBRANCH   3  13
TORSDOF 3
ENDMDL
MODEL 3
REMARK VINA RESULT:      -8.9      2.515      6.651
REMARK  Name = 46937045
REMARK  3 active torsions:
REMARK  status: ('A' for Active; 'I' for Inactive)
REMARK    1  A    between atoms: C_3  and  C_13
REMARK    2  A    between atoms: C_9  and  O_11
REMARK    3  A    between atoms: C_13  and  C_16
REMARK                            x       y       z     vdW  Elec       q    Type
REMARK                         _______ _______ _______ _____ _____    ______ ____
ROOT
ATOM      1  O   UNL     1      33.210 -15.040 -26.924  0.00  0.00    -0.210 OA
ATOM      2  N   UNL     1      34.341 -16.670 -25.704  0.00  0.00    -0.333 NA
ATOM      3  C   UNL     1      33.503 -14.823 -24.554  0.00  0.00    +0.080 C 
ATOM      4  C   UNL     1      34.100 -15.607 -23.655  0.00  0.00    +0.042 C 
ATOM      5  C   UNL     1      34.601 -16.741 -24.440  0.00  0.00    +0.145 C 
ATOM      6  C   UNL     1      33.647 -15.490 -25.876  0.00  0.00    +0.201 C 
ATOM      7  C   UNL     1      34.305 -15.535 -22.242  0.00  0.00    +0.040 C 
ATOM      8  C   UNL     1      35.324 -17.804 -23.712  0.00  0.00    +0.036 C 
ATOM      9  C   UNL     1      34.971 -16.532 -21.636  0.00  0.00    +0.134 C 
ATOM     10  C   UNL     1      35.483 -17.674 -22.384  0.00  0.00    +0.039 C 
ENDROOT
BRANCH   9  11
ATOM     11  O   UNL     1      35.224 -16.565 -20.284  0.00  0.00    -0.506 OA
ATOM     12  H   UNL     1      34.677 -17.069 -19.717  0.00  0.00    +0.292 HD
ENDBRANCH   9  11
BRANCH   3  13
ATOM     13  C   UNL     1      32.808 -13.530 -24.353  0.00  0.00    +0.070 C 
ATOM     14  C   UNL     1      32.279 -13.381 -22.917  0.00  0.00    +0.012 C 
BRANCH  13  16
ATOM     15  N   UNL     1      34.155 -11.466 -23.806  0.00  0.00    -0.315 N 
ATOM     16  C   UNL     1      33.674 -12.339 -24.746  0.00  0.00    +0.030 C 
ATOM     17  C   UNL     1      34.118 -11.917 -25.980  0.00  0.00    +0.012 C 
ATOM     18  C   UNL     1      34.901 -10.494 -24.420  0.00  0.00    +0.062 C 
ATOM     19  C   UNL     1      34.894 -10.750 -25.773  0.00  0.00    +0.017 C 
ATOM     20  H   UNL     1      33.990 -11.528 -22.837  0.00  0.00    +0.152 HD
ENDBRANCH  13  16
ENDBRANCH   3  13
TORSDOF 3
ENDMDL
MODEL 4
REMARK VINA RESULT:      -8.4      2.513      6.241
REMARK  Name = 46937045
REMARK  3 active torsions:
REMARK  status: ('A' for Active; 'I' for Inactive)
REMARK    1  A    between atoms: C_3  and  C_13
REMARK    2  A    between atoms: C_9  and  O_11
REMARK    3  A    between atoms: C_13  and  C_16
REMARK                            x       y       z     vdW  Elec       q    Type
REMARK                         _______ _______ _______ _____ _____    ______ ____
ROOT
ATOM      1  O   UNL     1      37.073 -18.191 -21.904  0.00  0.00    -0.210 OA
ATOM      2  N   UNL     1      36.980 -20.078 -20.542  0.00  0.00    -0.333 NA
ATOM      3  C   UNL     1      34.973 -19.040 -21.115  0.00  0.00    +0.080 C 
ATOM      4  C   UNL     1      34.669 -20.084 -20.342  0.00  0.00    +0.042 C 
ATOM      5  C   UNL     1      35.967 -20.687 -20.021  0.00  0.00    +0.145 C 
ATOM      6  C   UNL     1      36.454 -19.021 -21.255  0.00  0.00    +0.201 C 
ATOM      7  C   UNL     1      33.449 -20.637 -19.842  0.00  0.00    +0.040 C 
ATOM      8  C   UNL     1      35.962 -21.889 -19.161  0.00  0.00    +0.036 C 
ATOM      9  C   UNL     1      33.509 -21.731 -19.065  0.00  0.00    +0.134 C 
ATOM     10  C   UNL     1      34.781 -22.358 -18.725  0.00  0.00    +0.039 C 
ENDROOT
BRANCH   9  11
ATOM     11  O   UNL     1      32.400 -22.346 -18.531  0.00  0.00    -0.506 OA
ATOM     12  H   UNL     1      31.914 -21.926 -17.850  0.00  0.00    +0.292 HD
ENDBRANCH   9  11
BRANCH   3  13
ATOM     13  C   UNL     1      34.071 -18.050 -21.750  0.00  0.00    +0.070 C 
ATOM     14  C   UNL     1      34.119 -16.690 -21.033  0.00  0.00    +0.012 C 
BRANCH  13  16
ATOM     15  N   UNL     1      34.608 -16.670 -23.794  0.00  0.00    -0.315 N 
ATOM     16  C   UNL     1      34.339 -17.894 -23.242  0.00  0.00    +0.030 C 
ATOM     17  C   UNL     1      34.368 -18.829 -24.254  0.00  0.00    +0.012 C 
ATOM     18  C   UNL     1      34.811 -16.808 -25.143  0.00  0.00    +0.062 C 
ATOM     19  C   UNL     1      34.667 -18.142 -25.456  0.00  0.00    +0.017 C 
ATOM     20  H   UNL     1      34.650 -15.820 -23.298  0.00  0.00    +0.152 HD
ENDBRANCH  13  16
ENDBRANCH   3  13
TORSDOF 3
ENDMDL
MODEL 5
REMARK VINA RESULT:      -8.3      7.090     10.408
REMARK  Name = 46937045
REMARK  3 active torsions:
REMARK  status: ('A' for Active; 'I' for Inactive)
REMARK    1  A    between atoms: C_3  and  C_13
REMARK    2  A    between atoms: C_9  and  O_11
REMARK    3  A    between atoms: C_13  and  C_16
REMARK                            x       y       z     vdW  Elec       q    Type
REMARK                         _______ _______ _______ _____ _____    ______ ____
ROOT
ATOM      1  O   UNL     1      32.855  -6.507 -19.529  0.00  0.00    -0.210 OA
ATOM      2  N   UNL     1      31.957  -8.631 -19.199  0.00  0.00    -0.333 NA
ATOM      3  C   UNL     1      32.770  -8.101 -21.319  0.00  0.00    +0.080 C 
ATOM      4  C   UNL     1      32.314  -9.353 -21.375  0.00  0.00    +0.042 C 
ATOM      5  C   UNL     1      31.821  -9.620 -20.019  0.00  0.00    +0.145 C 
ATOM      6  C   UNL     1      32.549  -7.620 -19.928  0.00  0.00    +0.201 C 
ATOM      7  C   UNL     1      32.237 -10.346 -22.401  0.00  0.00    +0.040 C 
ATOM      8  C   UNL     1      31.243 -10.955 -19.757  0.00  0.00    +0.036 C 
ATOM      9  C   UNL     1      31.701 -11.541 -22.102  0.00  0.00    +0.134 C 
ATOM     10  C   UNL     1      31.201 -11.841 -20.766  0.00  0.00    +0.039 C 
ENDROOT
BRANCH   9  11
ATOM     11  O   UNL     1      31.577 -12.566 -23.010  0.00  0.00    -0.506 OA
ATOM     12  H   UNL     1      31.480 -13.448 -22.711  0.00  0.00    +0.292 HD
ENDBRANCH   9  11
BRANCH   3  13
ATOM     13  C   UNL     1      33.390  -7.281 -22.386  0.00  0.00    +0.070 C 
ATOM     14  C   UNL     1      34.098  -8.152 -23.437  0.00  0.00    +0.012 C 
BRANCH  13  16
ATOM     15  N   UNL     1      31.889  -5.251 -22.364  0.00  0.00    -0.315 N 
ATOM     16  C   UNL     1      32.394  -6.331 -23.040  0.00  0.00    +0.030 C 
ATOM     17  C   UNL     1      31.840  -6.336 -24.301  0.00  0.00    +0.012 C 
ATOM     18  C   UNL     1      31.023  -4.565 -23.175  0.00  0.00    +0.062 C 
ATOM     19  C   UNL     1      30.973  -5.219 -24.386  0.00  0.00    +0.017 C 
ATOM     20  H   UNL     1      32.115  -5.005 -21.438  0.00  0.00    +0.152 HD
ENDBRANCH  13  16
ENDBRANCH   3  13
TORSDOF 3
ENDMDL
MODEL 6
REMARK VINA RESULT:      -7.9      9.529     10.898
REMARK  Name = 46937045
REMARK  3 active torsions:
REMARK  status: ('A' for Active; 'I' for Inactive)
REMARK    1  A    between atoms: C_3  and  C_13
REMARK    2  A    between atoms: C_9  and  O_11
REMARK    3  A    between atoms: C_13  and  C_16
REMARK                            x       y       z     vdW  Elec       q    Type
REMARK                         _______ _______ _______ _____ _____    ______ ____
ROOT
ATOM      1  O   UNL     1      35.206 -24.537 -12.689  0.00  0.00    -0.210 OA
ATOM      2  N   UNL     1      32.923 -24.078 -12.757  0.00  0.00    -0.333 NA
ATOM      3  C   UNL     1      34.145 -23.860 -14.730  0.00  0.00    +0.080 C 
ATOM      4  C   UNL     1      32.879 -23.549 -15.015  0.00  0.00    +0.042 C 
ATOM      5  C   UNL     1      32.171 -23.707 -13.740  0.00  0.00    +0.145 C 
ATOM      6  C   UNL     1      34.192 -24.203 -13.284  0.00  0.00    +0.201 C 
ATOM      7  C   UNL     1      32.190 -23.143 -16.201  0.00  0.00    +0.040 C 
ATOM      8  C   UNL     1      30.720 -23.429 -13.730  0.00  0.00    +0.036 C 
ATOM      9  C   UNL     1      30.870 -22.906 -16.128  0.00  0.00    +0.134 C 
ATOM     10  C   UNL     1      30.134 -23.051 -14.878  0.00  0.00    +0.039 C 
ENDROOT
BRANCH   9  11
ATOM     11  O   UNL     1      30.109 -22.511 -17.205  0.00  0.00    -0.506 OA
ATOM     12  H   UNL     1      29.411 -21.899 -17.086  0.00  0.00    +0.292 HD
ENDBRANCH   9  11
BRANCH   3  13
ATOM     13  C   UNL     1      35.327 -23.885 -15.624  0.00  0.00    +0.070 C 
ATOM     14  C   UNL     1      36.004 -22.507 -15.716  0.00  0.00    +0.012 C 
BRANCH  13  16
ATOM     15  N   UNL     1      35.969 -26.286 -15.181  0.00  0.00    -0.315 N 
ATOM     16  C   UNL     1      36.328 -24.965 -15.231  0.00  0.00    +0.030 C 
ATOM     17  C   UNL     1      37.657 -24.874 -14.879  0.00  0.00    +0.012 C 
ATOM     18  C   UNL     1      37.049 -27.042 -14.804  0.00  0.00    +0.062 C 
ATOM     19  C   UNL     1      38.112 -26.188 -14.609  0.00  0.00    +0.017 C 
ATOM     20  H   UNL     1      35.072 -26.639 -15.384  0.00  0.00    +0.152 HD
ENDBRANCH  13  16
ENDBRANCH   3  13
TORSDOF 3
ENDMDL
MODEL 7
REMARK VINA RESULT:      -7.9      6.381      9.186
REMARK  Name = 46937045
REMARK  3 active torsions:
REMARK  status: ('A' for Active; 'I' for Inactive)
REMARK    1  A    between atoms: C_3  and  C_13
REMARK    2  A    between atoms: C_9  and  O_11
REMARK    3  A    between atoms: C_13  and  C_16
REMARK                            x       y       z     vdW  Elec       q    Type
REMARK                         _______ _______ _______ _____ _____    ______ ____
ROOT
ATOM      1  O   UNL     1      37.898 -22.661 -14.811  0.00  0.00    -0.210 OA
ATOM      2  N   UNL     1      37.499 -21.782 -16.931  0.00  0.00    -0.333 NA
ATOM      3  C   UNL     1      35.787 -22.983 -15.902  0.00  0.00    +0.080 C 
ATOM      4  C   UNL     1      35.329 -22.585 -17.090  0.00  0.00    +0.042 C 
ATOM      5  C   UNL     1      36.448 -21.840 -17.678  0.00  0.00    +0.145 C 
ATOM      6  C   UNL     1      37.180 -22.476 -15.782  0.00  0.00    +0.201 C 
ATOM      7  C   UNL     1      34.092 -22.742 -17.790  0.00  0.00    +0.040 C 
ATOM      8  C   UNL     1      36.244 -21.260 -19.022  0.00  0.00    +0.036 C 
ATOM      9  C   UNL     1      33.968 -22.191 -19.009  0.00  0.00    +0.134 C 
ATOM     10  C   UNL     1      35.058 -21.445 -19.625  0.00  0.00    +0.039 C 
ENDROOT
BRANCH   9  11
ATOM     11  O   UNL     1      32.825 -22.280 -19.770  0.00  0.00    -0.506 OA
ATOM     12  H   UNL     1      32.852 -22.693 -20.610  0.00  0.00    +0.292 HD
ENDBRANCH   9  11
BRANCH   3  13
ATOM     13  C   UNL     1      35.104 -23.775 -14.853  0.00  0.00    +0.070 C 
ATOM     14  C   UNL     1      33.698 -24.217 -15.293  0.00  0.00    +0.012 C 
BRANCH  13  16
ATOM     15  N   UNL     1      36.434 -25.037 -13.117  0.00  0.00    -0.315 N 
ATOM     16  C   UNL     1      35.935 -24.967 -14.391  0.00  0.00    +0.030 C 
ATOM     17  C   UNL     1      36.329 -26.103 -15.062  0.00  0.00    +0.012 C 
ATOM     18  C   UNL     1      37.139 -26.203 -12.963  0.00  0.00    +0.062 C 
ATOM     19  C   UNL     1      37.090 -26.885 -14.159  0.00  0.00    +0.017 C 
ATOM     20  H   UNL     1      36.305 -24.355 -12.418  0.00  0.00    +0.152 HD
ENDBRANCH  13  16
ENDBRANCH   3  13
TORSDOF 3
ENDMDL
MODEL 8
REMARK VINA RESULT:      -7.9      8.996     11.211
REMARK  Name = 46937045
REMARK  3 active torsions:
REMARK  status: ('A' for Active; 'I' for Inactive)
REMARK    1  A    between atoms: C_3  and  C_13
REMARK    2  A    between atoms: C_9  and  O_11
REMARK    3  A    between atoms: C_13  and  C_16
REMARK                            x       y       z     vdW  Elec       q    Type
REMARK                         _______ _______ _______ _____ _____    ______ ____
ROOT
ATOM      1  O   UNL     1      35.784 -22.744 -16.892  0.00  0.00    -0.210 OA
ATOM      2  N   UNL     1      33.478 -23.065 -16.941  0.00  0.00    -0.333 NA
ATOM      3  C   UNL     1      34.606 -23.515 -14.951  0.00  0.00    +0.080 C 
ATOM      4  C   UNL     1      33.314 -23.769 -14.737  0.00  0.00    +0.042 C 
ATOM      5  C   UNL     1      32.667 -23.466 -16.019  0.00  0.00    +0.145 C 
ATOM      6  C   UNL     1      34.730 -23.062 -16.362  0.00  0.00    +0.201 C 
ATOM      7  C   UNL     1      32.556 -24.225 -13.613  0.00  0.00    +0.040 C 
ATOM      8  C   UNL     1      31.204 -23.652 -16.101  0.00  0.00    +0.036 C 
ATOM      9  C   UNL     1      31.228 -24.374 -13.750  0.00  0.00    +0.134 C 
ATOM     10  C   UNL     1      30.552 -24.084 -15.009  0.00  0.00    +0.039 C 
ENDROOT
BRANCH   9  11
ATOM     11  O   UNL     1      30.404 -24.806 -12.737  0.00  0.00    -0.506 OA
ATOM     12  H   UNL     1      30.713 -24.815 -11.853  0.00  0.00    +0.292 HD
ENDBRANCH   9  11
BRANCH   3  13
ATOM     13  C   UNL     1      35.751 -23.635 -14.019  0.00  0.00    +0.070 C 
ATOM     14  C   UNL     1      35.292 -23.673 -12.551  0.00  0.00    +0.012 C 
BRANCH  13  16
ATOM     15  N   UNL     1      36.114 -26.036 -14.709  0.00  0.00    -0.315 N 
ATOM     16  C   UNL     1      36.644 -24.826 -14.346  0.00  0.00    +0.030 C 
ATOM     17  C   UNL     1      38.016 -24.947 -14.353  0.00  0.00    +0.012 C 
ATOM     18  C   UNL     1      37.127 -26.929 -14.949  0.00  0.00    +0.062 C 
ATOM     19  C   UNL     1      38.321 -26.277 -14.734  0.00  0.00    +0.017 C 
ATOM     20  H   UNL     1      35.152 -26.235 -14.785  0.00  0.00    +0.152 HD
ENDBRANCH  13  16
ENDBRANCH   3  13
TORSDOF 3
ENDMDL
MODEL 9
REMARK VINA RESULT:      -7.8      2.516      6.640
REMARK  Name = 46937045
REMARK  3 active torsions:
REMARK  status: ('A' for Active; 'I' for Inactive)
REMARK    1  A    between atoms: C_3  and  C_13
REMARK    2  A    between atoms: C_9  and  O_11
REMARK    3  A    between atoms: C_13  and  C_16
REMARK                            x       y       z     vdW  Elec       q    Type
REMARK                         _______ _______ _______ _____ _____    ______ ____
ROOT
ATOM      1  O   UNL     1      32.348 -19.362 -21.791  0.00  0.00    -0.210 OA
ATOM      2  N   UNL     1      32.590 -20.918 -20.074  0.00  0.00    -0.333 NA
ATOM      3  C   UNL     1      34.509 -19.870 -20.883  0.00  0.00    +0.080 C 
ATOM      4  C   UNL     1      34.895 -20.705 -19.917  0.00  0.00    +0.042 C 
ATOM      5  C   UNL     1      33.648 -21.326 -19.455  0.00  0.00    +0.145 C 
ATOM      6  C   UNL     1      33.031 -19.993 -20.998  0.00  0.00    +0.201 C 
ATOM      7  C   UNL     1      36.155 -21.048 -19.335  0.00  0.00    +0.040 C 
ATOM      8  C   UNL     1      33.748 -22.319 -18.366  0.00  0.00    +0.036 C 
ATOM      9  C   UNL     1      36.181 -21.958 -18.347  0.00  0.00    +0.134 C 
ATOM     10  C   UNL     1      34.963 -22.596 -17.863  0.00  0.00    +0.039 C 
ENDROOT
BRANCH   9  11
ATOM     11  O   UNL     1      37.335 -22.363 -17.717  0.00  0.00    -0.506 OA
ATOM     12  H   UNL     1      37.574 -21.990 -16.892  0.00  0.00    +0.292 HD
ENDBRANCH   9  11
BRANCH   3  13
ATOM     13  C   UNL     1      35.329 -18.964 -21.721  0.00  0.00    +0.070 C 
ATOM     14  C   UNL     1      35.374 -19.424 -23.187  0.00  0.00    +0.012 C 
BRANCH  13  16
ATOM     15  N   UNL     1      34.267 -16.875 -22.659  0.00  0.00    -0.315 N 
ATOM     16  C   UNL     1      34.882 -17.511 -21.613  0.00  0.00    +0.030 C 
ATOM     17  C   UNL     1      34.979 -16.614 -20.572  0.00  0.00    +0.012 C 
ATOM     18  C   UNL     1      33.969 -15.585 -22.302  0.00  0.00    +0.062 C 
ATOM     19  C   UNL     1      34.401 -15.396 -21.008  0.00  0.00    +0.017 C 
ATOM     20  H   UNL     1      34.070 -17.282 -23.534  0.00  0.00    +0.152 HD
ENDBRANCH  13  16
ENDBRANCH   3  13
TORSDOF 3
ENDMDL
