MODEL 1
REMARK VINA RESULT:      -9.5      0.000      0.000
REMARK  Name = 5753
REMARK  4 active torsions:
REMARK  status: ('A' for Active; 'I' for Inactive)
REMARK    1  A    between atoms: C_8  and  C_24
REMARK    2  A    between atoms: C_9  and  O_21
REMARK    3  A    between atoms: C_24  and  C_25
REMARK    4  A    between atoms: C_25  and  O_26
REMARK                            x       y       z     vdW  Elec       q    Type
REMARK                         _______ _______ _______ _____ _____    ______ ____
ROOT
ATOM      1  O   UNL     1      33.999 -18.624 -21.800  0.00  0.00    -0.291 OA
ATOM      2  C   UNL     1      36.072 -22.571 -15.649  0.00  0.00    +0.001 C 
ATOM      3  C   UNL     1      35.046 -23.528 -15.009  0.00  0.00    +0.009 C 
ATOM      4  C   UNL     1      35.993 -22.530 -17.181  0.00  0.00    +0.003 C 
ATOM      5  C   UNL     1      34.564 -22.050 -17.596  0.00  0.00    +0.030 C 
ATOM      6  C   UNL     1      34.407 -21.866 -19.160  0.00  0.00    +0.018 C 
ATOM      7  C   UNL     1      33.640 -23.021 -15.372  0.00  0.00    +0.030 C 
ATOM      8  C   UNL     1      35.428 -23.338 -13.521  0.00  0.00    +0.060 C 
ATOM      9  C   UNL     1      33.432 -22.867 -16.896  0.00  0.00    +0.111 C 
ATOM     10  C   UNL     1      37.384 -22.961 -14.976  0.00  0.00    +0.000 C 
ATOM     11  C   UNL     1      37.061 -21.581 -17.745  0.00  0.00    +0.004 C 
ATOM     12  C   UNL     1      36.970 -23.277 -13.528  0.00  0.00    +0.007 C 
ATOM     13  C   UNL     1      35.574 -21.022 -19.689  0.00  0.00    -0.042 C 
ATOM     14  C   UNL     1      35.229 -25.010 -15.428  0.00  0.00    +0.001 C 
ATOM     15  C   UNL     1      36.956 -21.446 -19.257  0.00  0.00    +0.022 C 
ATOM     16  C   UNL     1      33.057 -21.135 -19.426  0.00  0.00    +0.012 C 
ATOM     17  C   UNL     1      34.418 -23.198 -19.943  0.00  0.00    +0.004 C 
ATOM     18  C   UNL     1      32.953 -20.544 -20.823  0.00  0.00    +0.069 C 
ATOM     19  C   UNL     1      35.432 -19.977 -20.521  0.00  0.00    +0.029 C 
ATOM     20  C   UNL     1      34.110 -19.616 -21.083  0.00  0.00    +0.173 C 
ENDROOT
BRANCH   9  21
ATOM     21  O   UNL     1      33.289 -24.154 -17.480  0.00  0.00    -0.384 OA
ATOM     22  H   UNL     1      33.944 -24.262 -18.187  0.00  0.00    +0.210 HD
ENDBRANCH   9  21
BRANCH   8  24
ATOM     23  O   UNL     1      33.704 -24.697 -12.599  0.00  0.00    -0.293 OA
ATOM     24  C   UNL     1      34.898 -24.400 -12.608  0.00  0.00    +0.180 C 
BRANCH  24  25
ATOM     25  C   UNL     1      35.909 -25.076 -11.707  0.00  0.00    +0.202 C 
BRANCH  25  26
ATOM     26  O   UNL     1      35.438 -25.124 -10.376  0.00  0.00    -0.375 OA
ATOM     27  H   UNL     1      36.192 -25.138  -9.767  0.00  0.00    +0.211 HD
ENDBRANCH  25  26
ENDBRANCH  24  25
ENDBRANCH   8  24
TORSDOF 4
ENDMDL
MODEL 2
REMARK VINA RESULT:      -8.3      3.196      4.915
REMARK  Name = 5753
REMARK  4 active torsions:
REMARK  status: ('A' for Active; 'I' for Inactive)
REMARK    1  A    between atoms: C_8  and  C_24
REMARK    2  A    between atoms: C_9  and  O_21
REMARK    3  A    between atoms: C_24  and  C_25
REMARK    4  A    between atoms: C_25  and  O_26
REMARK                            x       y       z     vdW  Elec       q    Type
REMARK                         _______ _______ _______ _____ _____    ______ ____
ROOT
ATOM      1  O   UNL     1      27.380 -21.831 -15.803  0.00  0.00    -0.291 OA
ATOM      2  C   UNL     1      34.886 -22.947 -15.443  0.00  0.00    +0.001 C 
ATOM      3  C   UNL     1      35.449 -23.800 -14.288  0.00  0.00    +0.009 C 
ATOM      4  C   UNL     1      33.538 -23.453 -15.973  0.00  0.00    +0.003 C 
ATOM      5  C   UNL     1      32.499 -23.425 -14.805  0.00  0.00    +0.030 C 
ATOM      6  C   UNL     1      31.039 -23.825 -15.270  0.00  0.00    +0.018 C 
ATOM      7  C   UNL     1      34.451 -23.725 -13.120  0.00  0.00    +0.030 C 
ATOM      8  C   UNL     1      36.774 -23.040 -14.044  0.00  0.00    +0.060 C 
ATOM      9  C   UNL     1      33.020 -24.148 -13.523  0.00  0.00    +0.111 C 
ATOM     10  C   UNL     1      36.069 -22.825 -16.398  0.00  0.00    +0.000 C 
ATOM     11  C   UNL     1      33.058 -22.573 -17.137  0.00  0.00    +0.004 C 
ATOM     12  C   UNL     1      37.282 -22.695 -15.460  0.00  0.00    +0.007 C 
ATOM     13  C   UNL     1      30.665 -23.010 -16.516  0.00  0.00    -0.042 C 
ATOM     14  C   UNL     1      35.735 -25.272 -14.682  0.00  0.00    +0.001 C 
ATOM     15  C   UNL     1      31.681 -22.990 -17.631  0.00  0.00    +0.022 C 
ATOM     16  C   UNL     1      30.057 -23.500 -14.106  0.00  0.00    +0.012 C 
ATOM     17  C   UNL     1      30.897 -25.318 -15.643  0.00  0.00    +0.004 C 
ATOM     18  C   UNL     1      28.599 -23.457 -14.536  0.00  0.00    +0.069 C 
ATOM     19  C   UNL     1      29.498 -22.363 -16.671  0.00  0.00    +0.029 C 
ATOM     20  C   UNL     1      28.418 -22.476 -15.663  0.00  0.00    +0.173 C 
ENDROOT
BRANCH   9  21
ATOM     21  O   UNL     1      32.976 -25.560 -13.674  0.00  0.00    -0.384 OA
ATOM     22  H   UNL     1      33.277 -25.983 -12.855  0.00  0.00    +0.210 HD
ENDBRANCH   9  21
BRANCH   8  24
ATOM     23  O   UNL     1      38.689 -24.432 -13.785  0.00  0.00    -0.293 OA
ATOM     24  C   UNL     1      37.783 -23.801 -13.241  0.00  0.00    +0.180 C 
BRANCH  24  25
ATOM     25  C   UNL     1      37.622 -23.749 -11.736  0.00  0.00    +0.202 C 
BRANCH  25  26
ATOM     26  O   UNL     1      37.510 -22.413 -11.293  0.00  0.00    -0.375 OA
ATOM     27  H   UNL     1      37.513 -21.817 -12.059  0.00  0.00    +0.211 HD
ENDBRANCH  25  26
ENDBRANCH  24  25
ENDBRANCH   8  24
TORSDOF 4
ENDMDL
MODEL 3
REMARK VINA RESULT:      -8.1     10.009     14.384
REMARK  Name = 5753
REMARK  4 active torsions:
REMARK  status: ('A' for Active; 'I' for Inactive)
REMARK    1  A    between atoms: C_8  and  C_24
REMARK    2  A    between atoms: C_9  and  O_21
REMARK    3  A    between atoms: C_24  and  C_25
REMARK    4  A    between atoms: C_25  and  O_26
REMARK                            x       y       z     vdW  Elec       q    Type
REMARK                         _______ _______ _______ _____ _____    ______ ____
ROOT
ATOM      1  O   UNL     1      30.527  -4.631 -23.124  0.00  0.00    -0.291 OA
ATOM      2  C   UNL     1      32.286 -11.985 -22.391  0.00  0.00    +0.001 C 
ATOM      3  C   UNL     1      33.251 -12.616 -23.415  0.00  0.00    +0.009 C 
ATOM      4  C   UNL     1      32.645 -10.537 -22.029  0.00  0.00    +0.003 C 
ATOM      5  C   UNL     1      32.600  -9.670 -23.329  0.00  0.00    +0.030 C 
ATOM      6  C   UNL     1      32.848  -8.131 -23.052  0.00  0.00    +0.018 C 
ATOM      7  C   UNL     1      33.163 -11.794 -24.712  0.00  0.00    +0.030 C 
ATOM      8  C   UNL     1      32.620 -14.026 -23.510  0.00  0.00    +0.060 C 
ATOM      9  C   UNL     1      33.440 -10.290 -24.491  0.00  0.00    +0.111 C 
ATOM     10  C   UNL     1      32.207 -13.035 -21.288  0.00  0.00    +0.000 C 
ATOM     11  C   UNL     1      31.659  -9.989 -20.985  0.00  0.00    +0.004 C 
ATOM     12  C   UNL     1      32.235 -14.370 -22.056  0.00  0.00    +0.007 C 
ATOM     13  C   UNL     1      31.932  -7.671 -21.910  0.00  0.00    -0.042 C 
ATOM     14  C   UNL     1      34.716 -12.712 -22.916  0.00  0.00    +0.001 C 
ATOM     15  C   UNL     1      31.930  -8.526 -20.667  0.00  0.00    +0.022 C 
ATOM     16  C   UNL     1      32.512  -7.347 -24.354  0.00  0.00    +0.012 C 
ATOM     17  C   UNL     1      34.299  -7.806 -22.630  0.00  0.00    +0.004 C 
ATOM     18  C   UNL     1      32.322  -5.855 -24.132  0.00  0.00    +0.069 C 
ATOM     19  C   UNL     1      31.181  -6.557 -21.949  0.00  0.00    +0.029 C 
ATOM     20  C   UNL     1      31.263  -5.615 -23.089  0.00  0.00    +0.173 C 
ENDROOT
BRANCH   9  21
ATOM     21  O   UNL     1      34.832 -10.097 -24.279  0.00  0.00    -0.384 OA
ATOM     22  H   UNL     1      35.075 -10.436 -23.403  0.00  0.00    +0.210 HD
ENDBRANCH   9  21
BRANCH   8  24
ATOM     23  O   UNL     1      33.630 -15.151 -25.350  0.00  0.00    -0.293 OA
ATOM     24  C   UNL     1      33.511 -15.060 -24.129  0.00  0.00    +0.180 C 
BRANCH  24  25
ATOM     25  C   UNL     1      34.244 -15.975 -23.171  0.00  0.00    +0.202 C 
BRANCH  25  26
ATOM     26  O   UNL     1      35.604 -16.086 -23.532  0.00  0.00    -0.375 OA
ATOM     27  H   UNL     1      35.806 -17.010 -23.750  0.00  0.00    +0.211 HD
ENDBRANCH  25  26
ENDBRANCH  24  25
ENDBRANCH   8  24
TORSDOF 4
ENDMDL
MODEL 4
REMARK VINA RESULT:      -7.9      5.515      9.611
REMARK  Name = 5753
REMARK  4 active torsions:
REMARK  status: ('A' for Active; 'I' for Inactive)
REMARK    1  A    between atoms: C_8  and  C_24
REMARK    2  A    between atoms: C_9  and  O_21
REMARK    3  A    between atoms: C_24  and  C_25
REMARK    4  A    between atoms: C_25  and  O_26
REMARK                            x       y       z     vdW  Elec       q    Type
REMARK                         _______ _______ _______ _____ _____    ______ ____
ROOT
ATOM      1  O   UNL     1      34.331 -10.191 -25.874  0.00  0.00    -0.291 OA
ATOM      2  C   UNL     1      34.751 -17.392 -23.490  0.00  0.00    +0.001 C 
ATOM      3  C   UNL     1      34.726 -17.667 -21.974  0.00  0.00    +0.009 C 
ATOM      4  C   UNL     1      33.840 -16.231 -23.914  0.00  0.00    +0.003 C 
ATOM      5  C   UNL     1      34.313 -14.933 -23.182  0.00  0.00    +0.030 C 
ATOM      6  C   UNL     1      33.507 -13.646 -23.631  0.00  0.00    +0.018 C 
ATOM      7  C   UNL     1      35.244 -16.408 -21.259  0.00  0.00    +0.030 C 
ATOM      8  C   UNL     1      35.697 -18.871 -21.927  0.00  0.00    +0.060 C 
ATOM      9  C   UNL     1      34.457 -15.134 -21.640  0.00  0.00    +0.111 C 
ATOM     10  C   UNL     1      34.538 -18.773 -24.102  0.00  0.00    +0.000 C 
ATOM     11  C   UNL     1      33.896 -16.038 -25.437  0.00  0.00    +0.004 C 
ATOM     12  C   UNL     1      35.326 -19.709 -23.168  0.00  0.00    +0.007 C 
ATOM     13  C   UNL     1      33.481 -13.577 -25.164  0.00  0.00    -0.042 C 
ATOM     14  C   UNL     1      33.331 -18.078 -21.436  0.00  0.00    +0.001 C 
ATOM     15  C   UNL     1      33.074 -14.838 -25.885  0.00  0.00    +0.022 C 
ATOM     16  C   UNL     1      34.235 -12.396 -23.054  0.00  0.00    +0.012 C 
ATOM     17  C   UNL     1      32.039 -13.637 -23.151  0.00  0.00    +0.004 C 
ATOM     18  C   UNL     1      33.819 -11.092 -23.715  0.00  0.00    +0.069 C 
ATOM     19  C   UNL     1      33.762 -12.470 -25.873  0.00  0.00    +0.029 C 
ATOM     20  C   UNL     1      34.025 -11.175 -25.204  0.00  0.00    +0.173 C 
ENDROOT
BRANCH   9  21
ATOM     21  O   UNL     1      33.186 -15.162 -21.004  0.00  0.00    -0.384 OA
ATOM     22  H   UNL     1      32.707 -14.343 -21.204  0.00  0.00    +0.210 HD
ENDBRANCH   9  21
BRANCH   8  24
ATOM     23  O   UNL     1      36.547 -19.622 -19.833  0.00  0.00    -0.293 OA
ATOM     24  C   UNL     1      35.635 -19.665 -20.658  0.00  0.00    +0.180 C 
BRANCH  24  25
ATOM     25  C   UNL     1      34.398 -20.513 -20.457  0.00  0.00    +0.202 C 
BRANCH  25  26
ATOM     26  O   UNL     1      34.616 -21.483 -19.454  0.00  0.00    -0.375 OA
ATOM     27  H   UNL     1      35.332 -22.076 -19.728  0.00  0.00    +0.211 HD
ENDBRANCH  25  26
ENDBRANCH  24  25
ENDBRANCH   8  24
TORSDOF 4
ENDMDL
MODEL 5
REMARK VINA RESULT:      -7.4      9.609     15.023
REMARK  Name = 5753
REMARK  4 active torsions:
REMARK  status: ('A' for Active; 'I' for Inactive)
REMARK    1  A    between atoms: C_8  and  C_24
REMARK    2  A    between atoms: C_9  and  O_21
REMARK    3  A    between atoms: C_24  and  C_25
REMARK    4  A    between atoms: C_25  and  O_26
REMARK                            x       y       z     vdW  Elec       q    Type
REMARK                         _______ _______ _______ _____ _____    ______ ____
ROOT
ATOM      1  O   UNL     1      34.588 -16.734 -20.801  0.00  0.00    -0.291 OA
ATOM      2  C   UNL     1      32.769  -9.493 -22.207  0.00  0.00    +0.001 C 
ATOM      3  C   UNL     1      33.142  -8.894 -23.578  0.00  0.00    +0.009 C 
ATOM      4  C   UNL     1      32.335 -10.964 -22.283  0.00  0.00    +0.003 C 
ATOM      5  C   UNL     1      33.516 -11.804 -22.869  0.00  0.00    +0.030 C 
ATOM      6  C   UNL     1      33.215 -13.358 -22.890  0.00  0.00    +0.018 C 
ATOM      7  C   UNL     1      34.340  -9.688 -24.127  0.00  0.00    +0.030 C 
ATOM      8  C   UNL     1      33.484  -7.452 -23.131  0.00  0.00    +0.060 C 
ATOM      9  C   UNL     1      34.072 -11.207 -24.201  0.00  0.00    +0.111 C 
ATOM     10  C   UNL     1      31.814  -8.460 -21.620  0.00  0.00    +0.000 C 
ATOM     11  C   UNL     1      31.952 -11.480 -20.888  0.00  0.00    +0.004 C 
ATOM     12  C   UNL     1      32.407  -7.116 -22.078  0.00  0.00    +0.007 C 
ATOM     13  C   UNL     1      32.708 -13.792 -21.508  0.00  0.00    -0.042 C 
ATOM     14  C   UNL     1      31.971  -8.882 -24.594  0.00  0.00    +0.001 C 
ATOM     15  C   UNL     1      31.601 -12.960 -20.909  0.00  0.00    +0.022 C 
ATOM     16  C   UNL     1      34.541 -14.101 -23.229  0.00  0.00    +0.012 C 
ATOM     17  C   UNL     1      32.135 -13.765 -23.918  0.00  0.00    +0.004 C 
ATOM     18  C   UNL     1      34.505 -15.586 -22.900  0.00  0.00    +0.069 C 
ATOM     19  C   UNL     1      33.164 -14.865 -20.841  0.00  0.00    +0.029 C 
ATOM     20  C   UNL     1      34.147 -15.790 -21.453  0.00  0.00    +0.173 C 
ENDROOT
BRANCH   9  21
ATOM     21  O   UNL     1      33.197 -11.474 -25.289  0.00  0.00    -0.384 OA
ATOM     22  H   UNL     1      32.311 -11.675 -24.950  0.00  0.00    +0.210 HD
ENDBRANCH   9  21
BRANCH   8  24
ATOM     23  O   UNL     1      34.473  -6.420 -25.035  0.00  0.00    -0.293 OA
ATOM     24  C   UNL     1      33.528  -6.455 -24.247  0.00  0.00    +0.180 C 
BRANCH  24  25
ATOM     25  C   UNL     1      32.355  -5.503 -24.345  0.00  0.00    +0.202 C 
BRANCH  25  26
ATOM     26  O   UNL     1      32.396  -4.784 -25.559  0.00  0.00    -0.375 OA
ATOM     27  H   UNL     1      32.354  -3.833 -25.373  0.00  0.00    +0.211 HD
ENDBRANCH  25  26
ENDBRANCH  24  25
ENDBRANCH   8  24
TORSDOF 4
ENDMDL
MODEL 6
REMARK VINA RESULT:      -7.0     13.979     19.071
REMARK  Name = 5753
REMARK  4 active torsions:
REMARK  status: ('A' for Active; 'I' for Inactive)
REMARK    1  A    between atoms: C_8  and  C_24
REMARK    2  A    between atoms: C_9  and  O_21
REMARK    3  A    between atoms: C_24  and  C_25
REMARK    4  A    between atoms: C_25  and  O_26
REMARK                            x       y       z     vdW  Elec       q    Type
REMARK                         _______ _______ _______ _____ _____    ______ ____
ROOT
ATOM      1  O   UNL     1      33.378 -12.730 -23.721  0.00  0.00    -0.291 OA
ATOM      2  C   UNL     1      32.503  -5.325 -25.174  0.00  0.00    +0.001 C 
ATOM      3  C   UNL     1      31.373  -4.562 -24.454  0.00  0.00    +0.009 C 
ATOM      4  C   UNL     1      33.175  -6.390 -24.297  0.00  0.00    +0.003 C 
ATOM      5  C   UNL     1      32.094  -7.432 -23.860  0.00  0.00    +0.030 C 
ATOM      6  C   UNL     1      32.703  -8.640 -23.037  0.00  0.00    +0.018 C 
ATOM      7  C   UNL     1      30.286  -5.582 -24.074  0.00  0.00    +0.030 C 
ATOM      8  C   UNL     1      30.968  -3.592 -25.589  0.00  0.00    +0.060 C 
ATOM      9  C   UNL     1      30.832  -6.759 -23.234  0.00  0.00    +0.111 C 
ATOM     10  C   UNL     1      33.349  -4.210 -25.780  0.00  0.00    +0.000 C 
ATOM     11  C   UNL     1      34.306  -7.083 -25.072  0.00  0.00    +0.004 C 
ATOM     12  C   UNL     1      32.310  -3.163 -26.220  0.00  0.00    +0.007 C 
ATOM     13  C   UNL     1      33.911  -9.208 -23.795  0.00  0.00    -0.042 C 
ATOM     14  C   UNL     1      31.850  -3.768 -23.209  0.00  0.00    +0.001 C 
ATOM     15  C   UNL     1      34.937  -8.207 -24.265  0.00  0.00    +0.022 C 
ATOM     16  C   UNL     1      31.600  -9.731 -22.898  0.00  0.00    +0.012 C 
ATOM     17  C   UNL     1      33.196  -8.243 -21.628  0.00  0.00    +0.004 C 
ATOM     18  C   UNL     1      32.142 -11.092 -22.488  0.00  0.00    +0.069 C 
ATOM     19  C   UNL     1      34.110 -10.518 -24.022  0.00  0.00    +0.029 C 
ATOM     20  C   UNL     1      33.204 -11.543 -23.454  0.00  0.00    +0.173 C 
ENDROOT
BRANCH   9  21
ATOM     21  O   UNL     1      31.091  -6.308 -21.912  0.00  0.00    -0.384 OA
ATOM     22  H   UNL     1      30.969  -7.043 -21.290  0.00  0.00    +0.210 HD
ENDBRANCH   9  21
BRANCH   8  24
ATOM     23  O   UNL     1      30.197  -2.016 -23.979  0.00  0.00    -0.293 OA
ATOM     24  C   UNL     1      30.145  -2.424 -25.138  0.00  0.00    +0.180 C 
BRANCH  24  25
ATOM     25  C   UNL     1      29.257  -1.786 -26.185  0.00  0.00    +0.202 C 
BRANCH  25  26
ATOM     26  O   UNL     1      27.909  -1.792 -25.765  0.00  0.00    -0.375 OA
ATOM     27  H   UNL     1      27.363  -2.229 -26.438  0.00  0.00    +0.211 HD
ENDBRANCH  25  26
ENDBRANCH  24  25
ENDBRANCH   8  24
TORSDOF 4
ENDMDL
