MODEL 1
REMARK VINA RESULT:      -7.4      0.000      0.000
REMARK  Name = 439351
REMARK  5 active torsions:
REMARK  status: ('A' for Active; 'I' for Inactive)
REMARK    1  A    between atoms: C_2  and  O_8
REMARK    2  A    between atoms: C_2  and  C_15
REMARK    3  A    between atoms: C_4  and  O_10
REMARK    4  A    between atoms: C_6  and  O_12
REMARK    5  A    between atoms: C_15  and  O_16
REMARK                            x       y       z     vdW  Elec       q    Type
REMARK                         _______ _______ _______ _____ _____    ______ ____
ROOT
ATOM      1  O   UNL     1      35.537 -23.990 -15.716  0.00  0.00    -0.293 OA
ATOM      2  C   UNL     1      38.595 -25.446 -14.688  0.00  0.00    +0.186 C 
ATOM      3  C   UNL     1      38.305 -25.659 -13.201  0.00  0.00    +0.070 C 
ATOM      4  C   UNL     1      36.804 -25.729 -12.913  0.00  0.00    +0.147 C 
ATOM      5  C   UNL     1      37.874 -24.224 -15.250  0.00  0.00    +0.105 C 
ATOM      6  C   UNL     1      36.078 -24.488 -13.418  0.00  0.00    +0.195 C 
ATOM      7  C   UNL     1      36.405 -24.241 -14.880  0.00  0.00    +0.183 C 
ENDROOT
BRANCH   2   8
ATOM      8  O   UNL     1      38.213 -26.592 -15.442  0.00  0.00    -0.376 OA
ATOM      9  H   UNL     1      38.274 -27.382 -14.882  0.00  0.00    +0.211 HD
ENDBRANCH   2   8
BRANCH   4  10
ATOM     10  O   UNL     1      36.612 -25.818 -11.501  0.00  0.00    -0.381 OA
ATOM     11  H   UNL     1      35.713 -25.528 -11.278  0.00  0.00    +0.210 HD
ENDBRANCH   4  10
BRANCH   6  12
ATOM     12  O   UNL     1      34.680 -24.684 -13.279  0.00  0.00    -0.375 OA
ATOM     13  H   UNL     1      34.341 -24.107 -12.576  0.00  0.00    +0.211 HD
ENDBRANCH   6  12
BRANCH   2  15
ATOM     14  O   UNL     1      40.859 -24.695 -14.199  0.00  0.00    -0.248 OA
ATOM     15  C   UNL     1      40.073 -25.312 -14.916  0.00  0.00    +0.339 C 
BRANCH  15  16
ATOM     16  O   UNL     1      40.485 -25.964 -16.038  0.00  0.00    -0.479 OA
ATOM     17  H   UNL     1      40.004 -25.871 -16.837  0.00  0.00    +0.295 HD
ENDBRANCH  15  16
ENDBRANCH   2  15
TORSDOF 5
ENDMDL
MODEL 2
REMARK VINA RESULT:      -7.3      1.900      4.267
REMARK  Name = 439351
REMARK  5 active torsions:
REMARK  status: ('A' for Active; 'I' for Inactive)
REMARK    1  A    between atoms: C_2  and  O_8
REMARK    2  A    between atoms: C_2  and  C_15
REMARK    3  A    between atoms: C_4  and  O_10
REMARK    4  A    between atoms: C_6  and  O_12
REMARK    5  A    between atoms: C_15  and  O_16
REMARK                            x       y       z     vdW  Elec       q    Type
REMARK                         _______ _______ _______ _____ _____    ______ ____
ROOT
ATOM      1  O   UNL     1      37.424 -22.417 -15.124  0.00  0.00    -0.293 OA
ATOM      2  C   UNL     1      37.020 -24.098 -12.036  0.00  0.00    +0.186 C 
ATOM      3  C   UNL     1      37.891 -25.330 -12.284  0.00  0.00    +0.070 C 
ATOM      4  C   UNL     1      38.943 -25.080 -13.368  0.00  0.00    +0.147 C 
ATOM      5  C   UNL     1      36.369 -23.580 -13.316  0.00  0.00    +0.105 C 
ATOM      6  C   UNL     1      38.303 -24.617 -14.672  0.00  0.00    +0.195 C 
ATOM      7  C   UNL     1      37.394 -23.427 -14.422  0.00  0.00    +0.183 C 
ENDROOT
BRANCH   2   8
ATOM      8  O   UNL     1      37.787 -23.050 -11.453  0.00  0.00    -0.376 OA
ATOM      9  H   UNL     1      38.558 -22.866 -12.010  0.00  0.00    +0.211 HD
ENDBRANCH   2   8
BRANCH   4  10
ATOM     10  O   UNL     1      39.640 -26.301 -13.619  0.00  0.00    -0.381 OA
ATOM     11  H   UNL     1      39.680 -26.459 -14.575  0.00  0.00    +0.210 HD
ENDBRANCH   4  10
BRANCH   6  12
ATOM     12  O   UNL     1      39.328 -24.240 -15.577  0.00  0.00    -0.375 OA
ATOM     13  H   UNL     1      39.152 -23.345 -15.909  0.00  0.00    +0.211 HD
ENDBRANCH   6  12
BRANCH   2  15
ATOM     14  O   UNL     1      36.030 -24.183  -9.813  0.00  0.00    -0.248 OA
ATOM     15  C   UNL     1      35.958 -24.408 -11.019  0.00  0.00    +0.339 C 
BRANCH  15  16
ATOM     16  O   UNL     1      34.859 -24.985 -11.578  0.00  0.00    -0.479 OA
ATOM     17  H   UNL     1      34.894 -25.876 -11.867  0.00  0.00    +0.295 HD
ENDBRANCH  15  16
ENDBRANCH   2  15
TORSDOF 5
ENDMDL
MODEL 3
REMARK VINA RESULT:      -7.3      1.943      3.614
REMARK  Name = 439351
REMARK  5 active torsions:
REMARK  status: ('A' for Active; 'I' for Inactive)
REMARK    1  A    between atoms: C_2  and  O_8
REMARK    2  A    between atoms: C_2  and  C_15
REMARK    3  A    between atoms: C_4  and  O_10
REMARK    4  A    between atoms: C_6  and  O_12
REMARK    5  A    between atoms: C_15  and  O_16
REMARK                            x       y       z     vdW  Elec       q    Type
REMARK                         _______ _______ _______ _____ _____    ______ ____
ROOT
ATOM      1  O   UNL     1      35.254 -25.348 -15.512  0.00  0.00    -0.293 OA
ATOM      2  C   UNL     1      37.517 -24.011 -13.140  0.00  0.00    +0.186 C 
ATOM      3  C   UNL     1      38.641 -25.045 -13.228  0.00  0.00    +0.070 C 
ATOM      4  C   UNL     1      38.630 -25.793 -14.564  0.00  0.00    +0.147 C 
ATOM      5  C   UNL     1      36.145 -24.623 -13.410  0.00  0.00    +0.105 C 
ATOM      6  C   UNL     1      37.282 -26.458 -14.821  0.00  0.00    +0.195 C 
ATOM      7  C   UNL     1      36.158 -25.447 -14.681  0.00  0.00    +0.183 C 
ENDROOT
BRANCH   2   8
ATOM      8  O   UNL     1      37.738 -22.950 -14.064  0.00  0.00    -0.376 OA
ATOM      9  H   UNL     1      38.177 -23.297 -14.855  0.00  0.00    +0.211 HD
ENDBRANCH   2   8
BRANCH   4  10
ATOM     10  O   UNL     1      39.632 -26.809 -14.528  0.00  0.00    -0.381 OA
ATOM     11  H   UNL     1      40.039 -26.831 -13.648  0.00  0.00    +0.210 HD
ENDBRANCH   4  10
BRANCH   6  12
ATOM     12  O   UNL     1      37.274 -26.986 -16.138  0.00  0.00    -0.375 OA
ATOM     13  H   UNL     1      37.126 -27.944 -16.100  0.00  0.00    +0.211 HD
ENDBRANCH   6  12
BRANCH   2  15
ATOM     14  O   UNL     1      37.140 -23.863 -10.740  0.00  0.00    -0.248 OA
ATOM     15  C   UNL     1      37.521 -23.353 -11.791  0.00  0.00    +0.339 C 
BRANCH  15  16
ATOM     16  O   UNL     1      38.008 -22.082 -11.837  0.00  0.00    -0.479 OA
ATOM     17  H   UNL     1      37.753 -21.458 -11.185  0.00  0.00    +0.295 HD
ENDBRANCH  15  16
ENDBRANCH   2  15
TORSDOF 5
ENDMDL
MODEL 4
REMARK VINA RESULT:      -7.2      1.868      3.117
REMARK  Name = 439351
REMARK  5 active torsions:
REMARK  status: ('A' for Active; 'I' for Inactive)
REMARK    1  A    between atoms: C_2  and  O_8
REMARK    2  A    between atoms: C_2  and  C_15
REMARK    3  A    between atoms: C_4  and  O_10
REMARK    4  A    between atoms: C_6  and  O_12
REMARK    5  A    between atoms: C_15  and  O_16
REMARK                            x       y       z     vdW  Elec       q    Type
REMARK                         _______ _______ _______ _____ _____    ______ ____
ROOT
ATOM      1  O   UNL     1      34.654 -23.878 -11.656  0.00  0.00    -0.293 OA
ATOM      2  C   UNL     1      37.010 -25.603 -13.658  0.00  0.00    +0.186 C 
ATOM      3  C   UNL     1      38.282 -24.833 -13.299  0.00  0.00    +0.070 C 
ATOM      4  C   UNL     1      38.167 -24.135 -11.942  0.00  0.00    +0.147 C 
ATOM      5  C   UNL     1      35.765 -24.721 -13.603  0.00  0.00    +0.105 C 
ATOM      6  C   UNL     1      36.959 -23.206 -11.892  0.00  0.00    +0.195 C 
ATOM      7  C   UNL     1      35.701 -23.952 -12.300  0.00  0.00    +0.183 C 
ENDROOT
BRANCH   2   8
ATOM      8  O   UNL     1      36.829 -26.710 -12.782  0.00  0.00    -0.376 OA
ATOM      9  H   UNL     1      37.049 -27.530 -13.248  0.00  0.00    +0.211 HD
ENDBRANCH   2   8
BRANCH   4  10
ATOM     10  O   UNL     1      39.343 -23.353 -11.728  0.00  0.00    -0.381 OA
ATOM     11  H   UNL     1      39.836 -23.276 -12.560  0.00  0.00    +0.210 HD
ENDBRANCH   4  10
BRANCH   6  12
ATOM     12  O   UNL     1      36.806 -22.723 -10.567  0.00  0.00    -0.375 OA
ATOM     13  H   UNL     1      36.494 -21.805 -10.592  0.00  0.00    +0.211 HD
ENDBRANCH   6  12
BRANCH   2  15
ATOM     14  O   UNL     1      36.217 -26.656 -15.705  0.00  0.00    -0.248 OA
ATOM     15  C   UNL     1      37.139 -26.212 -15.025  0.00  0.00    +0.339 C 
BRANCH  15  16
ATOM     16  O   UNL     1      38.428 -26.229 -15.464  0.00  0.00    -0.479 OA
ATOM     17  H   UNL     1      38.808 -27.028 -15.770  0.00  0.00    +0.295 HD
ENDBRANCH  15  16
ENDBRANCH   2  15
TORSDOF 5
ENDMDL
MODEL 5
REMARK VINA RESULT:      -7.1      1.499      2.326
REMARK  Name = 439351
REMARK  5 active torsions:
REMARK  status: ('A' for Active; 'I' for Inactive)
REMARK    1  A    between atoms: C_2  and  O_8
REMARK    2  A    between atoms: C_2  and  C_15
REMARK    3  A    between atoms: C_4  and  O_10
REMARK    4  A    between atoms: C_6  and  O_12
REMARK    5  A    between atoms: C_15  and  O_16
REMARK                            x       y       z     vdW  Elec       q    Type
REMARK                         _______ _______ _______ _____ _____    ______ ____
ROOT
ATOM      1  O   UNL     1      37.467 -23.899 -11.579  0.00  0.00    -0.293 OA
ATOM      2  C   UNL     1      39.016 -25.356 -14.408  0.00  0.00    +0.186 C 
ATOM      3  C   UNL     1      37.839 -26.146 -14.983  0.00  0.00    +0.070 C 
ATOM      4  C   UNL     1      36.491 -25.577 -14.532  0.00  0.00    +0.147 C 
ATOM      5  C   UNL     1      38.953 -25.246 -12.887  0.00  0.00    +0.105 C 
ATOM      6  C   UNL     1      36.391 -25.513 -13.012  0.00  0.00    +0.195 C 
ATOM      7  C   UNL     1      37.586 -24.778 -12.433  0.00  0.00    +0.183 C 
ENDROOT
BRANCH   2   8
ATOM      8  O   UNL     1      39.060 -24.046 -14.963  0.00  0.00    -0.376 OA
ATOM      9  H   UNL     1      38.492 -24.008 -15.748  0.00  0.00    +0.211 HD
ENDBRANCH   2   8
BRANCH   4  10
ATOM     10  O   UNL     1      35.450 -26.426 -15.016  0.00  0.00    -0.381 OA
ATOM     11  H   UNL     1      35.565 -27.318 -14.651  0.00  0.00    +0.210 HD
ENDBRANCH   4  10
BRANCH   6  12
ATOM     12  O   UNL     1      35.202 -24.825 -12.658  0.00  0.00    -0.375 OA
ATOM     13  H   UNL     1      34.577 -25.447 -12.255  0.00  0.00    +0.211 HD
ENDBRANCH   6  12
BRANCH   2  15
ATOM     14  O   UNL     1      41.140 -26.494 -14.058  0.00  0.00    -0.248 OA
ATOM     15  C   UNL     1      40.315 -25.990 -14.816  0.00  0.00    +0.339 C 
BRANCH  15  16
ATOM     16  O   UNL     1      40.507 -25.954 -16.164  0.00  0.00    -0.479 OA
ATOM     17  H   UNL     1      39.787 -26.104 -16.744  0.00  0.00    +0.295 HD
ENDBRANCH  15  16
ENDBRANCH   2  15
TORSDOF 5
ENDMDL
MODEL 6
REMARK VINA RESULT:      -7.1      2.000      3.303
REMARK  Name = 439351
REMARK  5 active torsions:
REMARK  status: ('A' for Active; 'I' for Inactive)
REMARK    1  A    between atoms: C_2  and  O_8
REMARK    2  A    between atoms: C_2  and  C_15
REMARK    3  A    between atoms: C_4  and  O_10
REMARK    4  A    between atoms: C_6  and  O_12
REMARK    5  A    between atoms: C_15  and  O_16
REMARK                            x       y       z     vdW  Elec       q    Type
REMARK                         _______ _______ _______ _____ _____    ______ ____
ROOT
ATOM      1  O   UNL     1      39.277 -23.403 -11.784  0.00  0.00    -0.293 OA
ATOM      2  C   UNL     1      37.274 -25.134 -14.133  0.00  0.00    +0.186 C 
ATOM      3  C   UNL     1      35.884 -24.858 -13.557  0.00  0.00    +0.070 C 
ATOM      4  C   UNL     1      35.865 -23.604 -12.680  0.00  0.00    +0.147 C 
ATOM      5  C   UNL     1      38.347 -25.210 -13.050  0.00  0.00    +0.105 C 
ATOM      6  C   UNL     1      36.893 -23.690 -11.557  0.00  0.00    +0.195 C 
ATOM      7  C   UNL     1      38.265 -24.017 -12.120  0.00  0.00    +0.183 C 
ENDROOT
BRANCH   2   8
ATOM      8  O   UNL     1      37.637 -24.125 -15.070  0.00  0.00    -0.376 OA
ATOM      9  H   UNL     1      38.384 -23.615 -14.723  0.00  0.00    +0.211 HD
ENDBRANCH   2   8
BRANCH   4  10
ATOM     10  O   UNL     1      34.569 -23.475 -12.093  0.00  0.00    -0.381 OA
ATOM     11  H   UNL     1      34.646 -23.030 -11.234  0.00  0.00    +0.210 HD
ENDBRANCH   4  10
BRANCH   6  12
ATOM     12  O   UNL     1      36.948 -22.440 -10.888  0.00  0.00    -0.375 OA
ATOM     13  H   UNL     1      37.855 -22.097 -10.921  0.00  0.00    +0.211 HD
ENDBRANCH   6  12
BRANCH   2  15
ATOM     14  O   UNL     1      36.383 -26.765 -15.706  0.00  0.00    -0.248 OA
ATOM     15  C   UNL     1      37.264 -26.409 -14.926  0.00  0.00    +0.339 C 
BRANCH  15  16
ATOM     16  O   UNL     1      38.369 -27.170 -14.695  0.00  0.00    -0.479 OA
ATOM     17  H   UNL     1      38.280 -28.090 -14.539  0.00  0.00    +0.295 HD
ENDBRANCH  15  16
ENDBRANCH   2  15
TORSDOF 5
ENDMDL
MODEL 7
REMARK VINA RESULT:      -7.0      1.346      2.959
REMARK  Name = 439351
REMARK  5 active torsions:
REMARK  status: ('A' for Active; 'I' for Inactive)
REMARK    1  A    between atoms: C_2  and  O_8
REMARK    2  A    between atoms: C_2  and  C_15
REMARK    3  A    between atoms: C_4  and  O_10
REMARK    4  A    between atoms: C_6  and  O_12
REMARK    5  A    between atoms: C_15  and  O_16
REMARK                            x       y       z     vdW  Elec       q    Type
REMARK                         _______ _______ _______ _____ _____    ______ ____
ROOT
ATOM      1  O   UNL     1      35.821 -25.288 -10.812  0.00  0.00    -0.293 OA
ATOM      2  C   UNL     1      38.249 -24.803 -13.342  0.00  0.00    +0.186 C 
ATOM      3  C   UNL     1      37.428 -24.000 -14.352  0.00  0.00    +0.070 C 
ATOM      4  C   UNL     1      36.246 -23.285 -13.693  0.00  0.00    +0.147 C 
ATOM      5  C   UNL     1      37.391 -25.787 -12.550  0.00  0.00    +0.105 C 
ATOM      6  C   UNL     1      35.348 -24.264 -12.944  0.00  0.00    +0.195 C 
ATOM      7  C   UNL     1      36.166 -25.102 -11.979  0.00  0.00    +0.183 C 
ENDROOT
BRANCH   2   8
ATOM      8  O   UNL     1      38.913 -23.935 -12.431  0.00  0.00    -0.376 OA
ATOM      9  H   UNL     1      38.421 -23.102 -12.361  0.00  0.00    +0.211 HD
ENDBRANCH   2   8
BRANCH   4  10
ATOM     10  O   UNL     1      35.470 -22.650 -14.709  0.00  0.00    -0.381 OA
ATOM     11  H   UNL     1      34.678 -23.180 -14.889  0.00  0.00    +0.210 HD
ENDBRANCH   4  10
BRANCH   6  12
ATOM     12  O   UNL     1      34.375 -23.530 -12.217  0.00  0.00    -0.375 OA
ATOM     13  H   UNL     1      34.553 -22.581 -12.307  0.00  0.00    +0.211 HD
ENDBRANCH   6  12
BRANCH   2  15
ATOM     14  O   UNL     1      39.253 -26.643 -14.580  0.00  0.00    -0.248 OA
ATOM     15  C   UNL     1      39.353 -25.544 -14.041  0.00  0.00    +0.339 C 
BRANCH  15  16
ATOM     16  O   UNL     1      40.528 -24.857 -14.023  0.00  0.00    -0.479 OA
ATOM     17  H   UNL     1      41.226 -25.106 -14.597  0.00  0.00    +0.295 HD
ENDBRANCH  15  16
ENDBRANCH   2  15
TORSDOF 5
ENDMDL
MODEL 8
REMARK VINA RESULT:      -6.4      2.442      4.324
REMARK  Name = 439351
REMARK  5 active torsions:
REMARK  status: ('A' for Active; 'I' for Inactive)
REMARK    1  A    between atoms: C_2  and  O_8
REMARK    2  A    between atoms: C_2  and  C_15
REMARK    3  A    between atoms: C_4  and  O_10
REMARK    4  A    between atoms: C_6  and  O_12
REMARK    5  A    between atoms: C_15  and  O_16
REMARK                            x       y       z     vdW  Elec       q    Type
REMARK                         _______ _______ _______ _____ _____    ______ ____
ROOT
ATOM      1  O   UNL     1      37.922 -23.382 -15.193  0.00  0.00    -0.293 OA
ATOM      2  C   UNL     1      35.922 -24.488 -12.490  0.00  0.00    +0.186 C 
ATOM      3  C   UNL     1      34.531 -24.157 -13.032  0.00  0.00    +0.070 C 
ATOM      4  C   UNL     1      34.515 -24.073 -14.560  0.00  0.00    +0.147 C 
ATOM      5  C   UNL     1      36.986 -23.516 -12.993  0.00  0.00    +0.105 C 
ATOM      6  C   UNL     1      35.534 -23.063 -15.076  0.00  0.00    +0.195 C 
ATOM      7  C   UNL     1      36.907 -23.354 -14.497  0.00  0.00    +0.183 C 
ENDROOT
BRANCH   2   8
ATOM      8  O   UNL     1      36.300 -25.812 -12.853  0.00  0.00    -0.376 OA
ATOM      9  H   UNL     1      35.626 -26.192 -13.437  0.00  0.00    +0.211 HD
ENDBRANCH   2   8
BRANCH   4  10
ATOM     10  O   UNL     1      33.216 -23.655 -14.983  0.00  0.00    -0.381 OA
ATOM     11  H   UNL     1      32.651 -24.434 -15.105  0.00  0.00    +0.210 HD
ENDBRANCH   4  10
BRANCH   6  12
ATOM     12  O   UNL     1      35.594 -23.152 -16.490  0.00  0.00    -0.375 OA
ATOM     13  H   UNL     1      36.522 -23.197 -16.771  0.00  0.00    +0.211 HD
ENDBRANCH   6  12
BRANCH   2  15
ATOM     14  O   UNL     1      35.160 -25.156 -10.277  0.00  0.00    -0.248 OA
ATOM     15  C   UNL     1      35.908 -24.490 -10.989  0.00  0.00    +0.339 C 
BRANCH  15  16
ATOM     16  O   UNL     1      36.842 -23.651 -10.461  0.00  0.00    -0.479 OA
ATOM     17  H   UNL     1      37.752 -23.801 -10.624  0.00  0.00    +0.295 HD
ENDBRANCH  15  16
ENDBRANCH   2  15
TORSDOF 5
ENDMDL
MODEL 9
REMARK VINA RESULT:      -6.3      5.752      8.459
REMARK  Name = 439351
REMARK  5 active torsions:
REMARK  status: ('A' for Active; 'I' for Inactive)
REMARK    1  A    between atoms: C_2  and  O_8
REMARK    2  A    between atoms: C_2  and  C_15
REMARK    3  A    between atoms: C_4  and  O_10
REMARK    4  A    between atoms: C_6  and  O_12
REMARK    5  A    between atoms: C_15  and  O_16
REMARK                            x       y       z     vdW  Elec       q    Type
REMARK                         _______ _______ _______ _____ _____    ______ ____
ROOT
ATOM      1  O   UNL     1      30.908 -23.867 -12.710  0.00  0.00    -0.293 OA
ATOM      2  C   UNL     1      29.833 -23.545 -16.067  0.00  0.00    +0.186 C 
ATOM      3  C   UNL     1      31.140 -23.106 -16.728  0.00  0.00    +0.070 C 
ATOM      4  C   UNL     1      32.365 -23.525 -15.911  0.00  0.00    +0.147 C 
ATOM      5  C   UNL     1      29.719 -23.058 -14.625  0.00  0.00    +0.105 C 
ATOM      6  C   UNL     1      32.293 -22.997 -14.483  0.00  0.00    +0.195 C 
ATOM      7  C   UNL     1      30.973 -23.385 -13.841  0.00  0.00    +0.183 C 
ENDROOT
BRANCH   2   8
ATOM      8  O   UNL     1      29.714 -24.964 -16.085  0.00  0.00    -0.376 OA
ATOM      9  H   UNL     1      30.114 -25.312 -16.896  0.00  0.00    +0.211 HD
ENDBRANCH   2   8
BRANCH   4  10
ATOM     10  O   UNL     1      33.534 -22.988 -16.530  0.00  0.00    -0.381 OA
ATOM     11  H   UNL     1      34.188 -22.767 -15.849  0.00  0.00    +0.210 HD
ENDBRANCH   4  10
BRANCH   6  12
ATOM     12  O   UNL     1      33.360 -23.556 -13.732  0.00  0.00    -0.375 OA
ATOM     13  H   UNL     1      33.587 -24.427 -14.094  0.00  0.00    +0.211 HD
ENDBRANCH   6  12
BRANCH   2  15
ATOM     14  O   UNL     1      28.376 -21.876 -17.076  0.00  0.00    -0.248 OA
ATOM     15  C   UNL     1      28.657 -23.053 -16.862  0.00  0.00    +0.339 C 
BRANCH  15  16
ATOM     16  O   UNL     1      27.897 -24.073 -17.347  0.00  0.00    -0.479 OA
ATOM     17  H   UNL     1      28.276 -24.920 -17.476  0.00  0.00    +0.295 HD
ENDBRANCH  15  16
ENDBRANCH   2  15
TORSDOF 5
ENDMDL
