MODEL 1
REMARK VINA RESULT:      -9.4      0.000      0.000
REMARK  Name = 9600408
REMARK  11 active torsions:
REMARK  status: ('A' for Active; 'I' for Inactive)
REMARK    1  A    between atoms: S_1  and  C_5
REMARK    2  A    between atoms: S_1  and  C_18
REMARK    3  A    between atoms: C_2  and  C_14
REMARK    4  A    between atoms: C_3  and  O_8
REMARK    5  A    between atoms: C_6  and  O_10
REMARK    6  A    between atoms: C_7  and  O_12
REMARK    7  A    between atoms: C_14  and  O_15
REMARK    8  A    between atoms: N_17  and  O_19
REMARK    9  A    between atoms: C_18  and  C_24
REMARK   10  A    between atoms: O_19  and  S_20
REMARK   11  A    between atoms: C_24  and  C_25
REMARK                            x       y       z     vdW  Elec       q    Type
REMARK                         _______ _______ _______ _____ _____    ______ ____
ROOT
ATOM      1  S   UNL     1      33.550 -22.422 -15.476  0.00  0.00    -0.094 S 
ENDROOT
BRANCH   1   5
ATOM      2  C   UNL     1      29.769 -24.037 -16.007  0.00  0.00    +0.060 C 
ATOM      3  C   UNL     1      29.447 -24.387 -14.546  0.00  0.00    +0.142 C 
ATOM      4  C   UNL     1      30.962 -23.072 -16.083  0.00  0.00    +0.019 C 
ATOM      5  C   UNL     1      32.192 -23.647 -15.377  0.00  0.00    +0.083 C 
ATOM      6  C   UNL     1      30.672 -24.928 -13.807  0.00  0.00    +0.165 C 
ATOM      7  C   UNL     1      31.888 -24.003 -13.918  0.00  0.00    +0.150 C 
BRANCH   3   8
ATOM      8  O   UNL     1      28.438 -25.399 -14.500  0.00  0.00    -0.382 OA
ATOM      9  H   UNL     1      28.341 -25.717 -13.588  0.00  0.00    +0.210 HD
ENDBRANCH   3   8
BRANCH   6  10
ATOM     10  O   UNL     1      30.326 -25.064 -12.424  0.00  0.00    -0.380 OA
ATOM     11  H   UNL     1      29.656 -25.758 -12.325  0.00  0.00    +0.211 HD
ENDBRANCH   6  10
BRANCH   7  12
ATOM     12  O   UNL     1      32.998 -24.701 -13.348  0.00  0.00    -0.381 OA
ATOM     13  H   UNL     1      33.820 -24.235 -13.566  0.00  0.00    +0.210 HD
ENDBRANCH   7  12
BRANCH   2  14
ATOM     14  C   UNL     1      28.562 -23.432 -16.729  0.00  0.00    +0.140 C 
BRANCH  14  15
ATOM     15  O   UNL     1      27.854 -24.477 -17.367  0.00  0.00    -0.382 OA
ATOM     16  H   UNL     1      26.946 -24.189 -17.550  0.00  0.00    +0.210 HD
ENDBRANCH  14  15
ENDBRANCH   2  14
ENDBRANCH   1   5
BRANCH   1  18
ATOM     17  N   UNL     1      35.775 -23.514 -16.445  0.00  0.00    -0.047 NA
ATOM     18  C   UNL     1      34.555 -23.167 -16.717  0.00  0.00    +0.129 C 
BRANCH  17  19
ATOM     19  O   UNL     1      36.098 -23.232 -15.116  0.00  0.00    -0.205 OA
BRANCH  19  20
ATOM     20  S   UNL     1      36.887 -24.477 -14.416  0.00  0.00    +0.302 S 
ATOM     21  O   UNL     1      35.963 -24.801 -13.112  0.00  0.00    -0.103 OA
ATOM     22  O   UNL     1      38.170 -23.997 -13.936  0.00  0.00    -0.011 OA
ATOM     23  O   UNL     1      36.811 -25.623 -15.304  0.00  0.00    -0.103 OA
ENDBRANCH  19  20
ENDBRANCH  17  19
BRANCH  18  24
ATOM     24  C   UNL     1      33.865 -23.324 -18.059  0.00  0.00    +0.082 C 
BRANCH  24  25
ATOM     25  C   UNL     1      34.113 -22.152 -18.976  0.00  0.00    -0.016 C 
ATOM     26  C   UNL     1      35.412 -21.840 -19.344  0.00  0.00    -0.004 C 
ATOM     27  C   UNL     1      33.037 -21.409 -19.435  0.00  0.00    -0.004 C 
ATOM     28  C   UNL     1      35.642 -20.756 -20.192  0.00  0.00    -0.000 C 
ATOM     29  C   UNL     1      33.266 -20.325 -20.285  0.00  0.00    -0.000 C 
ATOM     30  C   UNL     1      34.568 -19.999 -20.662  0.00  0.00    -0.000 C 
ENDBRANCH  24  25
ENDBRANCH  18  24
ENDBRANCH   1  18
TORSDOF 11
ENDMDL
MODEL 2
REMARK VINA RESULT:      -9.0      3.544      6.708
REMARK  Name = 9600408
REMARK  11 active torsions:
REMARK  status: ('A' for Active; 'I' for Inactive)
REMARK    1  A    between atoms: S_1  and  C_5
REMARK    2  A    between atoms: S_1  and  C_18
REMARK    3  A    between atoms: C_2  and  C_14
REMARK    4  A    between atoms: C_3  and  O_8
REMARK    5  A    between atoms: C_6  and  O_10
REMARK    6  A    between atoms: C_7  and  O_12
REMARK    7  A    between atoms: C_14  and  O_15
REMARK    8  A    between atoms: N_17  and  O_19
REMARK    9  A    between atoms: C_18  and  C_24
REMARK   10  A    between atoms: O_19  and  S_20
REMARK   11  A    between atoms: C_24  and  C_25
REMARK                            x       y       z     vdW  Elec       q    Type
REMARK                         _______ _______ _______ _____ _____    ______ ____
ROOT
ATOM      1  S   UNL     1      35.005 -22.766 -15.359  0.00  0.00    -0.094 S 
ENDROOT
BRANCH   1   5
ATOM      2  C   UNL     1      35.935 -24.747 -11.838  0.00  0.00    +0.060 C 
ATOM      3  C   UNL     1      37.095 -25.618 -12.349  0.00  0.00    +0.142 C 
ATOM      4  C   UNL     1      35.626 -23.619 -12.834  0.00  0.00    +0.019 C 
ATOM      5  C   UNL     1      35.319 -24.172 -14.227  0.00  0.00    +0.083 C 
ATOM      6  C   UNL     1      36.828 -26.151 -13.757  0.00  0.00    +0.165 C 
ATOM      7  C   UNL     1      36.465 -25.045 -14.752  0.00  0.00    +0.150 C 
BRANCH   3   8
ATOM      8  O   UNL     1      37.268 -26.748 -11.489  0.00  0.00    -0.382 OA
ATOM      9  H   UNL     1      37.244 -26.456 -10.563  0.00  0.00    +0.210 HD
ENDBRANCH   3   8
BRANCH   6  10
ATOM     10  O   UNL     1      38.019 -26.803 -14.214  0.00  0.00    -0.380 OA
ATOM     11  H   UNL     1      38.649 -26.877 -13.479  0.00  0.00    +0.211 HD
ENDBRANCH   6  10
BRANCH   7  12
ATOM     12  O   UNL     1      36.068 -25.687 -15.966  0.00  0.00    -0.381 OA
ATOM     13  H   UNL     1      36.437 -26.583 -15.994  0.00  0.00    +0.210 HD
ENDBRANCH   7  12
BRANCH   2  14
ATOM     14  C   UNL     1      36.230 -24.157 -10.456  0.00  0.00    +0.140 C 
BRANCH  14  15
ATOM     15  O   UNL     1      35.271 -24.657  -9.545  0.00  0.00    -0.382 OA
ATOM     16  H   UNL     1      34.850 -25.448  -9.918  0.00  0.00    +0.210 HD
ENDBRANCH  14  15
ENDBRANCH   2  14
ENDBRANCH   1   5
BRANCH   1  18
ATOM     17  N   UNL     1      33.048 -23.551 -16.981  0.00  0.00    -0.047 NA
ATOM     18  C   UNL     1      33.331 -23.088 -15.804  0.00  0.00    +0.129 C 
BRANCH  17  19
ATOM     19  O   UNL     1      34.202 -23.744 -17.742  0.00  0.00    -0.205 OA
BRANCH  19  20
ATOM     20  S   UNL     1      34.095 -23.000 -19.191  0.00  0.00    +0.302 S 
ATOM     21  O   UNL     1      33.987 -24.252 -20.230  0.00  0.00    -0.103 OA
ATOM     22  O   UNL     1      35.351 -22.320 -19.452  0.00  0.00    -0.011 OA
ATOM     23  O   UNL     1      32.837 -22.278 -19.241  0.00  0.00    -0.103 OA
ENDBRANCH  19  20
ENDBRANCH  17  19
BRANCH  18  24
ATOM     24  C   UNL     1      32.328 -22.761 -14.713  0.00  0.00    +0.082 C 
BRANCH  24  25
ATOM     25  C   UNL     1      31.015 -23.478 -14.902  0.00  0.00    -0.016 C 
ATOM     26  C   UNL     1      29.941 -22.796 -15.453  0.00  0.00    -0.004 C 
ATOM     27  C   UNL     1      30.905 -24.807 -14.523  0.00  0.00    -0.004 C 
ATOM     28  C   UNL     1      28.726 -23.459 -15.628  0.00  0.00    -0.000 C 
ATOM     29  C   UNL     1      29.690 -25.471 -14.699  0.00  0.00    -0.000 C 
ATOM     30  C   UNL     1      28.600 -24.797 -15.251  0.00  0.00    -0.000 C 
ENDBRANCH  24  25
ENDBRANCH  18  24
ENDBRANCH   1  18
TORSDOF 11
ENDMDL
MODEL 3
REMARK VINA RESULT:      -8.8      2.677      5.912
REMARK  Name = 9600408
REMARK  11 active torsions:
REMARK  status: ('A' for Active; 'I' for Inactive)
REMARK    1  A    between atoms: S_1  and  C_5
REMARK    2  A    between atoms: S_1  and  C_18
REMARK    3  A    between atoms: C_2  and  C_14
REMARK    4  A    between atoms: C_3  and  O_8
REMARK    5  A    between atoms: C_6  and  O_10
REMARK    6  A    between atoms: C_7  and  O_12
REMARK    7  A    between atoms: C_14  and  O_15
REMARK    8  A    between atoms: N_17  and  O_19
REMARK    9  A    between atoms: C_18  and  C_24
REMARK   10  A    between atoms: O_19  and  S_20
REMARK   11  A    between atoms: C_24  and  C_25
REMARK                            x       y       z     vdW  Elec       q    Type
REMARK                         _______ _______ _______ _____ _____    ______ ____
ROOT
ATOM      1  S   UNL     1      33.651 -24.492 -15.086  0.00  0.00    -0.094 S 
ENDROOT
BRANCH   1   5
ATOM      2  C   UNL     1      34.558 -22.023 -18.290  0.00  0.00    +0.060 C 
ATOM      3  C   UNL     1      36.089 -22.002 -18.155  0.00  0.00    +0.142 C 
ATOM      4  C   UNL     1      33.957 -23.167 -17.462  0.00  0.00    +0.019 C 
ATOM      5  C   UNL     1      34.372 -23.072 -15.992  0.00  0.00    +0.083 C 
ATOM      6  C   UNL     1      36.530 -21.945 -16.691  0.00  0.00    +0.165 C 
ATOM      7  C   UNL     1      35.897 -23.048 -15.838  0.00  0.00    +0.150 C 
BRANCH   3   8
ATOM      8  O   UNL     1      36.618 -20.844 -18.806  0.00  0.00    -0.382 OA
ATOM      9  H   UNL     1      37.398 -20.528 -18.320  0.00  0.00    +0.210 HD
ENDBRANCH   3   8
BRANCH   6  10
ATOM     10  O   UNL     1      37.954 -22.101 -16.655  0.00  0.00    -0.380 OA
ATOM     11  H   UNL     1      38.287 -21.821 -15.788  0.00  0.00    +0.211 HD
ENDBRANCH   6  10
BRANCH   7  12
ATOM     12  O   UNL     1      36.243 -22.776 -14.477  0.00  0.00    -0.381 OA
ATOM     13  H   UNL     1      36.916 -23.409 -14.182  0.00  0.00    +0.210 HD
ENDBRANCH   7  12
BRANCH   2  14
ATOM     14  C   UNL     1      34.116 -22.147 -19.751  0.00  0.00    +0.140 C 
BRANCH  14  15
ATOM     15  O   UNL     1      32.746 -21.805 -19.832  0.00  0.00    -0.382 OA
ATOM     16  H   UNL     1      32.434 -21.933 -20.742  0.00  0.00    +0.210 HD
ENDBRANCH  14  15
ENDBRANCH   2  14
ENDBRANCH   1   5
BRANCH   1  18
ATOM     17  N   UNL     1      33.959 -23.913 -12.507  0.00  0.00    -0.047 NA
ATOM     18  C   UNL     1      33.232 -23.713 -13.562  0.00  0.00    +0.129 C 
BRANCH  17  19
ATOM     19  O   UNL     1      35.035 -24.759 -12.785  0.00  0.00    -0.205 OA
BRANCH  19  20
ATOM     20  S   UNL     1      36.092 -24.811 -11.542  0.00  0.00    +0.302 S 
ATOM     21  O   UNL     1      36.943 -26.167 -11.851  0.00  0.00    -0.103 OA
ATOM     22  O   UNL     1      35.348 -25.029 -10.315  0.00  0.00    -0.011 OA
ATOM     23  O   UNL     1      36.999 -23.685 -11.668  0.00  0.00    -0.103 OA
ENDBRANCH  19  20
ENDBRANCH  17  19
BRANCH  18  24
ATOM     24  C   UNL     1      31.987 -22.849 -13.632  0.00  0.00    +0.082 C 
BRANCH  24  25
ATOM     25  C   UNL     1      30.899 -23.473 -14.471  0.00  0.00    -0.016 C 
ATOM     26  C   UNL     1      30.338 -24.676 -14.071  0.00  0.00    -0.004 C 
ATOM     27  C   UNL     1      30.479 -22.832 -15.626  0.00  0.00    -0.004 C 
ATOM     28  C   UNL     1      29.332 -25.253 -14.847  0.00  0.00    -0.000 C 
ATOM     29  C   UNL     1      29.472 -23.408 -16.401  0.00  0.00    -0.000 C 
ATOM     30  C   UNL     1      28.899 -24.619 -16.012  0.00  0.00    -0.000 C 
ENDBRANCH  24  25
ENDBRANCH  18  24
ENDBRANCH   1  18
TORSDOF 11
ENDMDL
MODEL 4
REMARK VINA RESULT:      -8.2      2.966      5.959
REMARK  Name = 9600408
REMARK  11 active torsions:
REMARK  status: ('A' for Active; 'I' for Inactive)
REMARK    1  A    between atoms: S_1  and  C_5
REMARK    2  A    between atoms: S_1  and  C_18
REMARK    3  A    between atoms: C_2  and  C_14
REMARK    4  A    between atoms: C_3  and  O_8
REMARK    5  A    between atoms: C_6  and  O_10
REMARK    6  A    between atoms: C_7  and  O_12
REMARK    7  A    between atoms: C_14  and  O_15
REMARK    8  A    between atoms: N_17  and  O_19
REMARK    9  A    between atoms: C_18  and  C_24
REMARK   10  A    between atoms: O_19  and  S_20
REMARK   11  A    between atoms: C_24  and  C_25
REMARK                            x       y       z     vdW  Elec       q    Type
REMARK                         _______ _______ _______ _____ _____    ______ ____
ROOT
ATOM      1  S   UNL     1      33.739 -23.882 -14.301  0.00  0.00    -0.094 S 
ENDROOT
BRANCH   1   5
ATOM      2  C   UNL     1      37.300 -25.950 -14.783  0.00  0.00    +0.060 C 
ATOM      3  C   UNL     1      37.808 -25.900 -13.333  0.00  0.00    +0.142 C 
ATOM      4  C   UNL     1      35.809 -25.588 -14.847  0.00  0.00    +0.019 C 
ATOM      5  C   UNL     1      35.538 -24.218 -14.223  0.00  0.00    +0.083 C 
ATOM      6  C   UNL     1      37.515 -24.551 -12.674  0.00  0.00    +0.165 C 
ATOM      7  C   UNL     1      36.040 -24.149 -12.776  0.00  0.00    +0.150 C 
BRANCH   3   8
ATOM      8  O   UNL     1      39.225 -26.088 -13.309  0.00  0.00    -0.382 OA
ATOM      9  H   UNL     1      39.471 -26.585 -12.512  0.00  0.00    +0.210 HD
ENDBRANCH   3   8
BRANCH   6  10
ATOM     10  O   UNL     1      37.865 -24.653 -11.289  0.00  0.00    -0.380 OA
ATOM     11  H   UNL     1      38.754 -24.289 -11.153  0.00  0.00    +0.211 HD
ENDBRANCH   6  10
BRANCH   7  12
ATOM     12  O   UNL     1      35.937 -22.808 -12.291  0.00  0.00    -0.381 OA
ATOM     13  H   UNL     1      36.713 -22.300 -12.575  0.00  0.00    +0.210 HD
ENDBRANCH   7  12
BRANCH   2  14
ATOM     14  C   UNL     1      37.532 -27.322 -15.423  0.00  0.00    +0.140 C 
BRANCH  14  15
ATOM     15  O   UNL     1      36.700 -27.430 -16.560  0.00  0.00    -0.382 OA
ATOM     16  H   UNL     1      35.784 -27.584 -16.279  0.00  0.00    +0.210 HD
ENDBRANCH  14  15
ENDBRANCH   2  14
ENDBRANCH   1   5
BRANCH   1  18
ATOM     17  N   UNL     1      32.397 -23.480 -16.563  0.00  0.00    -0.047 NA
ATOM     18  C   UNL     1      33.568 -23.479 -16.008  0.00  0.00    +0.129 C 
BRANCH  17  19
ATOM     19  O   UNL     1      31.399 -23.808 -15.643  0.00  0.00    -0.205 OA
BRANCH  19  20
ATOM     20  S   UNL     1      29.989 -23.067 -15.998  0.00  0.00    +0.302 S 
ATOM     21  O   UNL     1      29.013 -24.315 -16.380  0.00  0.00    -0.103 OA
ATOM     22  O   UNL     1      30.178 -22.273 -17.199  0.00  0.00    -0.011 OA
ATOM     23  O   UNL     1      29.474 -22.462 -14.784  0.00  0.00    -0.103 OA
ENDBRANCH  19  20
ENDBRANCH  17  19
BRANCH  18  24
ATOM     24  C   UNL     1      34.881 -23.167 -16.703  0.00  0.00    +0.082 C 
BRANCH  24  25
ATOM     25  C   UNL     1      34.689 -22.352 -17.958  0.00  0.00    -0.016 C 
ATOM     26  C   UNL     1      35.788 -21.754 -18.554  0.00  0.00    -0.004 C 
ATOM     27  C   UNL     1      33.418 -22.216 -18.493  0.00  0.00    -0.004 C 
ATOM     28  C   UNL     1      35.611 -21.000 -19.715  0.00  0.00    -0.000 C 
ATOM     29  C   UNL     1      33.240 -21.463 -19.654  0.00  0.00    -0.000 C 
ATOM     30  C   UNL     1      34.337 -20.855 -20.265  0.00  0.00    -0.000 C 
ENDBRANCH  24  25
ENDBRANCH  18  24
ENDBRANCH   1  18
TORSDOF 11
ENDMDL
MODEL 5
REMARK VINA RESULT:      -8.1      3.096      4.769
REMARK  Name = 9600408
REMARK  11 active torsions:
REMARK  status: ('A' for Active; 'I' for Inactive)
REMARK    1  A    between atoms: S_1  and  C_5
REMARK    2  A    between atoms: S_1  and  C_18
REMARK    3  A    between atoms: C_2  and  C_14
REMARK    4  A    between atoms: C_3  and  O_8
REMARK    5  A    between atoms: C_6  and  O_10
REMARK    6  A    between atoms: C_7  and  O_12
REMARK    7  A    between atoms: C_14  and  O_15
REMARK    8  A    between atoms: N_17  and  O_19
REMARK    9  A    between atoms: C_18  and  C_24
REMARK   10  A    between atoms: O_19  and  S_20
REMARK   11  A    between atoms: C_24  and  C_25
REMARK                            x       y       z     vdW  Elec       q    Type
REMARK                         _______ _______ _______ _____ _____    ______ ____
ROOT
ATOM      1  S   UNL     1      33.750 -22.751 -15.213  0.00  0.00    -0.094 S 
ENDROOT
BRANCH   1   5
ATOM      2  C   UNL     1      29.889 -24.081 -15.927  0.00  0.00    +0.060 C 
ATOM      3  C   UNL     1      29.446 -24.333 -14.477  0.00  0.00    +0.142 C 
ATOM      4  C   UNL     1      31.160 -23.220 -15.964  0.00  0.00    +0.019 C 
ATOM      5  C   UNL     1      32.290 -23.857 -15.153  0.00  0.00    +0.083 C 
ATOM      6  C   UNL     1      30.573 -24.935 -13.635  0.00  0.00    +0.165 C 
ATOM      7  C   UNL     1      31.866 -24.117 -13.703  0.00  0.00    +0.150 C 
BRANCH   3   8
ATOM      8  O   UNL     1      28.356 -25.257 -14.456  0.00  0.00    -0.382 OA
ATOM      9  H   UNL     1      27.523 -24.772 -14.338  0.00  0.00    +0.210 HD
ENDBRANCH   3   8
BRANCH   6  10
ATOM     10  O   UNL     1      30.130 -24.976 -12.273  0.00  0.00    -0.380 OA
ATOM     11  H   UNL     1      30.652 -25.631 -11.784  0.00  0.00    +0.211 HD
ENDBRANCH   6  10
BRANCH   7  12
ATOM     12  O   UNL     1      32.876 -24.874 -13.031  0.00  0.00    -0.381 OA
ATOM     13  H   UNL     1      33.726 -24.752 -13.482  0.00  0.00    +0.210 HD
ENDBRANCH   7  12
BRANCH   2  14
ATOM     14  C   UNL     1      28.784 -23.417 -16.754  0.00  0.00    +0.140 C 
BRANCH  14  15
ATOM     15  O   UNL     1      27.956 -24.430 -17.288  0.00  0.00    -0.382 OA
ATOM     16  H   UNL     1      28.420 -24.879 -18.013  0.00  0.00    +0.210 HD
ENDBRANCH  14  15
ENDBRANCH   2  14
ENDBRANCH   1   5
BRANCH   1  18
ATOM     17  N   UNL     1      35.390 -23.456 -17.185  0.00  0.00    -0.047 NA
ATOM     18  C   UNL     1      34.905 -23.799 -16.033  0.00  0.00    +0.129 C 
BRANCH  17  19
ATOM     19  O   UNL     1      34.891 -22.220 -17.599  0.00  0.00    -0.205 OA
BRANCH  19  20
ATOM     20  S   UNL     1      34.190 -22.319 -19.070  0.00  0.00    +0.302 S 
ATOM     21  O   UNL     1      32.641 -21.921 -18.757  0.00  0.00    -0.103 OA
ATOM     22  O   UNL     1      34.210 -23.706 -19.495  0.00  0.00    -0.011 OA
ATOM     23  O   UNL     1      34.749 -21.278 -19.912  0.00  0.00    -0.103 OA
ENDBRANCH  19  20
ENDBRANCH  17  19
BRANCH  18  24
ATOM     24  C   UNL     1      35.224 -25.076 -15.279  0.00  0.00    +0.082 C 
BRANCH  24  25
ATOM     25  C   UNL     1      36.507 -24.974 -14.490  0.00  0.00    -0.016 C 
ATOM     26  C   UNL     1      37.625 -25.673 -14.917  0.00  0.00    -0.004 C 
ATOM     27  C   UNL     1      36.544 -24.184 -13.352  0.00  0.00    -0.004 C 
ATOM     28  C   UNL     1      38.810 -25.579 -14.188  0.00  0.00    -0.000 C 
ATOM     29  C   UNL     1      37.729 -24.089 -12.622  0.00  0.00    -0.000 C 
ATOM     30  C   UNL     1      38.863 -24.787 -13.040  0.00  0.00    -0.000 C 
ENDBRANCH  24  25
ENDBRANCH  18  24
ENDBRANCH   1  18
TORSDOF 11
ENDMDL
MODEL 6
REMARK VINA RESULT:      -8.1      3.740      6.683
REMARK  Name = 9600408
REMARK  11 active torsions:
REMARK  status: ('A' for Active; 'I' for Inactive)
REMARK    1  A    between atoms: S_1  and  C_5
REMARK    2  A    between atoms: S_1  and  C_18
REMARK    3  A    between atoms: C_2  and  C_14
REMARK    4  A    between atoms: C_3  and  O_8
REMARK    5  A    between atoms: C_6  and  O_10
REMARK    6  A    between atoms: C_7  and  O_12
REMARK    7  A    between atoms: C_14  and  O_15
REMARK    8  A    between atoms: N_17  and  O_19
REMARK    9  A    between atoms: C_18  and  C_24
REMARK   10  A    between atoms: O_19  and  S_20
REMARK   11  A    between atoms: C_24  and  C_25
REMARK                            x       y       z     vdW  Elec       q    Type
REMARK                         _______ _______ _______ _____ _____    ______ ____
ROOT
ATOM      1  S   UNL     1      35.132 -22.357 -15.004  0.00  0.00    -0.094 S 
ENDROOT
BRANCH   1   5
ATOM      2  C   UNL     1      37.323 -25.858 -14.641  0.00  0.00    +0.060 C 
ATOM      3  C   UNL     1      37.680 -25.768 -13.149  0.00  0.00    +0.142 C 
ATOM      4  C   UNL     1      36.189 -24.882 -14.987  0.00  0.00    +0.019 C 
ATOM      5  C   UNL     1      36.549 -23.446 -14.599  0.00  0.00    +0.083 C 
ATOM      6  C   UNL     1      38.007 -24.335 -12.728  0.00  0.00    +0.165 C 
ATOM      7  C   UNL     1      36.909 -23.338 -13.113  0.00  0.00    +0.150 C 
BRANCH   3   8
ATOM      8  O   UNL     1      38.834 -26.567 -12.877  0.00  0.00    -0.382 OA
ATOM      9  H   UNL     1      38.990 -27.173 -13.619  0.00  0.00    +0.210 HD
ENDBRANCH   3   8
BRANCH   6  10
ATOM     10  O   UNL     1      38.158 -24.319 -11.303  0.00  0.00    -0.380 OA
ATOM     11  H   UNL     1      37.982 -23.424 -10.970  0.00  0.00    +0.211 HD
ENDBRANCH   6  10
BRANCH   7  12
ATOM     12  O   UNL     1      37.413 -22.030 -12.830  0.00  0.00    -0.381 OA
ATOM     13  H   UNL     1      38.143 -22.095 -12.195  0.00  0.00    +0.210 HD
ENDBRANCH   7  12
BRANCH   2  14
ATOM     14  C   UNL     1      36.931 -27.280 -15.050  0.00  0.00    +0.140 C 
BRANCH  14  15
ATOM     15  O   UNL     1      36.830 -27.327 -16.459  0.00  0.00    -0.382 OA
ATOM     16  H   UNL     1      37.679 -27.073 -16.854  0.00  0.00    +0.210 HD
ENDBRANCH  14  15
ENDBRANCH   2  14
ENDBRANCH   1   5
BRANCH   1  18
ATOM     17  N   UNL     1      33.874 -23.791 -16.857  0.00  0.00    -0.047 NA
ATOM     18  C   UNL     1      33.975 -23.550 -15.587  0.00  0.00    +0.129 C 
BRANCH  17  19
ATOM     19  O   UNL     1      34.775 -23.021 -17.594  0.00  0.00    -0.205 OA
BRANCH  19  20
ATOM     20  S   UNL     1      34.167 -22.622 -19.055  0.00  0.00    +0.302 S 
ATOM     21  O   UNL     1      32.657 -22.126 -18.692  0.00  0.00    -0.103 OA
ATOM     22  O   UNL     1      34.053 -23.831 -19.850  0.00  0.00    -0.011 OA
ATOM     23  O   UNL     1      34.899 -21.473 -19.555  0.00  0.00    -0.103 OA
ENDBRANCH  19  20
ENDBRANCH  17  19
BRANCH  18  24
ATOM     24  C   UNL     1      33.155 -24.204 -14.490  0.00  0.00    +0.082 C 
BRANCH  24  25
ATOM     25  C   UNL     1      31.671 -24.120 -14.752  0.00  0.00    -0.016 C 
ATOM     26  C   UNL     1      30.877 -25.231 -14.519  0.00  0.00    -0.004 C 
ATOM     27  C   UNL     1      31.130 -22.934 -15.221  0.00  0.00    -0.004 C 
ATOM     28  C   UNL     1      29.505 -25.155 -14.761  0.00  0.00    -0.000 C 
ATOM     29  C   UNL     1      29.757 -22.856 -15.462  0.00  0.00    -0.000 C 
ATOM     30  C   UNL     1      28.945 -23.967 -15.233  0.00  0.00    -0.000 C 
ENDBRANCH  24  25
ENDBRANCH  18  24
ENDBRANCH   1  18
TORSDOF 11
ENDMDL
MODEL 7
REMARK VINA RESULT:      -8.0      2.736      6.215
REMARK  Name = 9600408
REMARK  11 active torsions:
REMARK  status: ('A' for Active; 'I' for Inactive)
REMARK    1  A    between atoms: S_1  and  C_5
REMARK    2  A    between atoms: S_1  and  C_18
REMARK    3  A    between atoms: C_2  and  C_14
REMARK    4  A    between atoms: C_3  and  O_8
REMARK    5  A    between atoms: C_6  and  O_10
REMARK    6  A    between atoms: C_7  and  O_12
REMARK    7  A    between atoms: C_14  and  O_15
REMARK    8  A    between atoms: N_17  and  O_19
REMARK    9  A    between atoms: C_18  and  C_24
REMARK   10  A    between atoms: O_19  and  S_20
REMARK   11  A    between atoms: C_24  and  C_25
REMARK                            x       y       z     vdW  Elec       q    Type
REMARK                         _______ _______ _______ _____ _____    ______ ____
ROOT
ATOM      1  S   UNL     1      33.476 -23.900 -17.332  0.00  0.00    -0.094 S 
ENDROOT
BRANCH   1   5
ATOM      2  C   UNL     1      33.628 -20.541 -19.758  0.00  0.00    +0.060 C 
ATOM      3  C   UNL     1      35.087 -20.647 -20.229  0.00  0.00    +0.142 C 
ATOM      4  C   UNL     1      33.161 -21.866 -19.137  0.00  0.00    +0.019 C 
ATOM      5  C   UNL     1      34.075 -22.297 -17.987  0.00  0.00    +0.083 C 
ATOM      6  C   UNL     1      36.014 -21.114 -19.106  0.00  0.00    +0.165 C 
ATOM      7  C   UNL     1      35.535 -22.406 -18.438  0.00  0.00    +0.150 C 
BRANCH   3   8
ATOM      8  O   UNL     1      35.551 -19.366 -20.663  0.00  0.00    -0.382 OA
ATOM      9  H   UNL     1      35.566 -18.755 -19.908  0.00  0.00    +0.210 HD
ENDBRANCH   3   8
BRANCH   6  10
ATOM     10  O   UNL     1      37.309 -21.346 -19.673  0.00  0.00    -0.380 OA
ATOM     11  H   UNL     1      37.252 -21.293 -20.640  0.00  0.00    +0.211 HD
ENDBRANCH   6  10
BRANCH   7  12
ATOM     12  O   UNL     1      36.378 -22.630 -17.305  0.00  0.00    -0.381 OA
ATOM     13  H   UNL     1      36.681 -21.778 -16.954  0.00  0.00    +0.210 HD
ENDBRANCH   7  12
BRANCH   2  14
ATOM     14  C   UNL     1      32.688 -20.139 -20.898  0.00  0.00    +0.140 C 
BRANCH  14  15
ATOM     15  O   UNL     1      32.648 -18.728 -20.966  0.00  0.00    -0.382 OA
ATOM     16  H   UNL     1      33.477 -18.398 -21.348  0.00  0.00    +0.210 HD
ENDBRANCH  14  15
ENDBRANCH   2  14
ENDBRANCH   1   5
BRANCH   1  18
ATOM     17  N   UNL     1      34.630 -24.103 -14.944  0.00  0.00    -0.047 NA
ATOM     18  C   UNL     1      33.628 -23.609 -15.601  0.00  0.00    +0.129 C 
BRANCH  17  19
ATOM     19  O   UNL     1      35.486 -24.817 -15.783  0.00  0.00    -0.205 OA
BRANCH  19  20
ATOM     20  S   UNL     1      36.753 -25.435 -14.961  0.00  0.00    +0.302 S 
ATOM     21  O   UNL     1      37.904 -24.299 -15.169  0.00  0.00    -0.103 OA
ATOM     22  O   UNL     1      37.197 -26.639 -15.638  0.00  0.00    -0.011 OA
ATOM     23  O   UNL     1      36.412 -25.461 -13.551  0.00  0.00    -0.103 OA
ENDBRANCH  19  20
ENDBRANCH  17  19
BRANCH  18  24
ATOM     24  C   UNL     1      32.502 -22.777 -15.014  0.00  0.00    +0.082 C 
BRANCH  24  25
ATOM     25  C   UNL     1      31.146 -23.396 -15.246  0.00  0.00    -0.016 C 
ATOM     26  C   UNL     1      30.236 -22.751 -16.069  0.00  0.00    -0.004 C 
ATOM     27  C   UNL     1      30.834 -24.599 -14.632  0.00  0.00    -0.004 C 
ATOM     28  C   UNL     1      28.982 -23.323 -16.283  0.00  0.00    -0.000 C 
ATOM     29  C   UNL     1      29.580 -25.172 -14.847  0.00  0.00    -0.000 C 
ATOM     30  C   UNL     1      28.654 -24.534 -15.672  0.00  0.00    -0.000 C 
ENDBRANCH  24  25
ENDBRANCH  18  24
ENDBRANCH   1  18
TORSDOF 11
ENDMDL
MODEL 8
REMARK VINA RESULT:      -7.9      3.609      7.197
REMARK  Name = 9600408
REMARK  11 active torsions:
REMARK  status: ('A' for Active; 'I' for Inactive)
REMARK    1  A    between atoms: S_1  and  C_5
REMARK    2  A    between atoms: S_1  and  C_18
REMARK    3  A    between atoms: C_2  and  C_14
REMARK    4  A    between atoms: C_3  and  O_8
REMARK    5  A    between atoms: C_6  and  O_10
REMARK    6  A    between atoms: C_7  and  O_12
REMARK    7  A    between atoms: C_14  and  O_15
REMARK    8  A    between atoms: N_17  and  O_19
REMARK    9  A    between atoms: C_18  and  C_24
REMARK   10  A    between atoms: O_19  and  S_20
REMARK   11  A    between atoms: C_24  and  C_25
REMARK                            x       y       z     vdW  Elec       q    Type
REMARK                         _______ _______ _______ _____ _____    ______ ____
ROOT
ATOM      1  S   UNL     1      35.497 -22.677 -14.954  0.00  0.00    -0.094 S 
ENDROOT
BRANCH   1   5
ATOM      2  C   UNL     1      38.555 -25.250 -13.851  0.00  0.00    +0.060 C 
ATOM      3  C   UNL     1      38.380 -26.317 -14.944  0.00  0.00    +0.142 C 
ATOM      4  C   UNL     1      37.797 -23.966 -14.222  0.00  0.00    +0.019 C 
ATOM      5  C   UNL     1      36.315 -24.245 -14.479  0.00  0.00    +0.083 C 
ATOM      6  C   UNL     1      36.905 -26.586 -15.245  0.00  0.00    +0.165 C 
ATOM      7  C   UNL     1      36.122 -25.309 -15.565  0.00  0.00    +0.150 C 
BRANCH   3   8
ATOM      8  O   UNL     1      38.961 -27.551 -14.514  0.00  0.00    -0.382 OA
ATOM      9  H   UNL     1      38.647 -27.762 -13.620  0.00  0.00    +0.210 HD
ENDBRANCH   3   8
BRANCH   6  10
ATOM     10  O   UNL     1      36.841 -27.457 -16.381  0.00  0.00    -0.380 OA
ATOM     11  H   UNL     1      37.345 -27.070 -17.114  0.00  0.00    +0.211 HD
ENDBRANCH   6  10
BRANCH   7  12
ATOM     12  O   UNL     1      34.742 -25.674 -15.647  0.00  0.00    -0.381 OA
ATOM     13  H   UNL     1      34.456 -25.652 -16.574  0.00  0.00    +0.210 HD
ENDBRANCH   7  12
BRANCH   2  14
ATOM     14  C   UNL     1      40.030 -24.930 -13.595  0.00  0.00    +0.140 C 
BRANCH  14  15
ATOM     15  O   UNL     1      40.774 -25.317 -14.734  0.00  0.00    -0.382 OA
ATOM     16  H   UNL     1      40.445 -24.841 -15.513  0.00  0.00    +0.210 HD
ENDBRANCH  14  15
ENDBRANCH   2  14
ENDBRANCH   1   5
BRANCH   1  18
ATOM     17  N   UNL     1      33.495 -23.382 -16.558  0.00  0.00    -0.047 NA
ATOM     18  C   UNL     1      33.878 -23.266 -15.325  0.00  0.00    +0.129 C 
BRANCH  17  19
ATOM     19  O   UNL     1      34.508 -23.008 -17.443  0.00  0.00    -0.205 OA
BRANCH  19  20
ATOM     20  S   UNL     1      33.909 -22.622 -18.911  0.00  0.00    +0.302 S 
ATOM     21  O   UNL     1      34.941 -21.471 -19.429  0.00  0.00    -0.103 OA
ATOM     22  O   UNL     1      32.611 -21.999 -18.729  0.00  0.00    -0.011 OA
ATOM     23  O   UNL     1      34.062 -23.773 -19.782  0.00  0.00    -0.103 OA
ENDBRANCH  19  20
ENDBRANCH  17  19
BRANCH  18  24
ATOM     24  C   UNL     1      33.041 -23.584 -14.100  0.00  0.00    +0.082 C 
BRANCH  24  25
ATOM     25  C   UNL     1      31.595 -23.846 -14.442  0.00  0.00    -0.016 C 
ATOM     26  C   UNL     1      31.112 -25.144 -14.404  0.00  0.00    -0.004 C 
ATOM     27  C   UNL     1      30.775 -22.784 -14.789  0.00  0.00    -0.004 C 
ATOM     28  C   UNL     1      29.775 -25.387 -14.720  0.00  0.00    -0.000 C 
ATOM     29  C   UNL     1      29.438 -23.025 -15.105  0.00  0.00    -0.000 C 
ATOM     30  C   UNL     1      28.937 -24.327 -15.071  0.00  0.00    -0.000 C 
ENDBRANCH  24  25
ENDBRANCH  18  24
ENDBRANCH   1  18
TORSDOF 11
ENDMDL
MODEL 9
REMARK VINA RESULT:      -7.8      1.612      2.356
REMARK  Name = 9600408
REMARK  11 active torsions:
REMARK  status: ('A' for Active; 'I' for Inactive)
REMARK    1  A    between atoms: S_1  and  C_5
REMARK    2  A    between atoms: S_1  and  C_18
REMARK    3  A    between atoms: C_2  and  C_14
REMARK    4  A    between atoms: C_3  and  O_8
REMARK    5  A    between atoms: C_6  and  O_10
REMARK    6  A    between atoms: C_7  and  O_12
REMARK    7  A    between atoms: C_14  and  O_15
REMARK    8  A    between atoms: N_17  and  O_19
REMARK    9  A    between atoms: C_18  and  C_24
REMARK   10  A    between atoms: O_19  and  S_20
REMARK   11  A    between atoms: C_24  and  C_25
REMARK                            x       y       z     vdW  Elec       q    Type
REMARK                         _______ _______ _______ _____ _____    ______ ____
ROOT
ATOM      1  S   UNL     1      35.402 -22.825 -14.129  0.00  0.00    -0.094 S 
ENDROOT
BRANCH   1   5
ATOM      2  C   UNL     1      31.793 -23.688 -15.979  0.00  0.00    +0.060 C 
ATOM      3  C   UNL     1      30.990 -24.138 -14.748  0.00  0.00    +0.142 C 
ATOM      4  C   UNL     1      33.066 -22.943 -15.553  0.00  0.00    +0.019 C 
ATOM      5  C   UNL     1      33.930 -23.798 -14.623  0.00  0.00    +0.083 C 
ATOM      6  C   UNL     1      31.844 -24.964 -13.784  0.00  0.00    +0.165 C 
ATOM      7  C   UNL     1      33.145 -24.258 -13.390  0.00  0.00    +0.150 C 
BRANCH   3   8
ATOM      8  O   UNL     1      29.893 -24.958 -15.157  0.00  0.00    -0.382 OA
ATOM      9  H   UNL     1      30.006 -25.853 -14.797  0.00  0.00    +0.210 HD
ENDBRANCH   3   8
BRANCH   6  10
ATOM     10  O   UNL     1      31.072 -25.192 -12.599  0.00  0.00    -0.380 OA
ATOM     11  H   UNL     1      31.642 -25.568 -11.909  0.00  0.00    +0.211 HD
ENDBRANCH   6  10
BRANCH   7  12
ATOM     12  O   UNL     1      33.922 -25.198 -12.643  0.00  0.00    -0.381 OA
ATOM     13  H   UNL     1      33.361 -25.943 -12.377  0.00  0.00    +0.210 HD
ENDBRANCH   7  12
BRANCH   2  14
ATOM     14  C   UNL     1      30.959 -22.805 -16.912  0.00  0.00    +0.140 C 
BRANCH  14  15
ATOM     15  O   UNL     1      29.742 -22.496 -16.263  0.00  0.00    -0.382 OA
ATOM     16  H   UNL     1      29.884 -21.770 -15.635  0.00  0.00    +0.210 HD
ENDBRANCH  14  15
ENDBRANCH   2  14
ENDBRANCH   1   5
BRANCH   1  18
ATOM     17  N   UNL     1      36.881 -24.472 -15.604  0.00  0.00    -0.047 NA
ATOM     18  C   UNL     1      36.508 -23.242 -15.436  0.00  0.00    +0.129 C 
BRANCH  17  19
ATOM     19  O   UNL     1      36.287 -25.317 -14.665  0.00  0.00    -0.205 OA
BRANCH  19  20
ATOM     20  S   UNL     1      37.406 -26.129 -13.798  0.00  0.00    +0.302 S 
ATOM     21  O   UNL     1      38.581 -25.018 -13.598  0.00  0.00    -0.103 OA
ATOM     22  O   UNL     1      37.944 -27.193 -14.625  0.00  0.00    -0.011 OA
ATOM     23  O   UNL     1      36.847 -26.418 -12.490  0.00  0.00    -0.103 OA
ENDBRANCH  19  20
ENDBRANCH  17  19
BRANCH  18  24
ATOM     24  C   UNL     1      36.951 -22.056 -16.272  0.00  0.00    +0.082 C 
BRANCH  24  25
ATOM     25  C   UNL     1      36.216 -21.970 -17.587  0.00  0.00    -0.016 C 
ATOM     26  C   UNL     1      34.981 -22.585 -17.716  0.00  0.00    -0.004 C 
ATOM     27  C   UNL     1      36.789 -21.277 -18.641  0.00  0.00    -0.004 C 
ATOM     28  C   UNL     1      34.301 -22.506 -18.932  0.00  0.00    -0.000 C 
ATOM     29  C   UNL     1      36.108 -21.196 -19.857  0.00  0.00    -0.000 C 
ATOM     30  C   UNL     1      34.864 -21.811 -20.003  0.00  0.00    -0.000 C 
ENDBRANCH  24  25
ENDBRANCH  18  24
ENDBRANCH   1  18
TORSDOF 11
ENDMDL
