MODEL 1
REMARK VINA RESULT:     -11.9      0.000      0.000
REMARK  Name = 447476
REMARK  4 active torsions:
REMARK  status: ('A' for Active; 'I' for Inactive)
REMARK    1  A    between atoms: C_2  and  C_17
REMARK    2  A    between atoms: C_8  and  C_13
REMARK    3  A    between atoms: C_18  and  O_29
REMARK    4  A    between atoms: C_19  and  C_23
REMARK                            x       y       z     vdW  Elec       q    Type
REMARK                         _______ _______ _______ _____ _____    ______ ____
ROOT
ATOM      1  N   UNL     1      32.623 -14.138 -22.306  0.00  0.00    -0.312 N 
ATOM      2  C   UNL     1      33.504 -14.380 -23.326  0.00  0.00    +0.051 C 
ATOM      3  C   UNL     1      33.056 -12.165 -23.253  0.00  0.00    +0.015 C 
ATOM      4  C   UNL     1      32.331 -12.794 -22.238  0.00  0.00    +0.048 C 
ATOM      5  C   UNL     1      33.791 -13.178 -23.931  0.00  0.00    +0.016 C 
ATOM      6  C   UNL     1      32.939 -10.769 -23.405  0.00  0.00    +0.004 C 
ATOM      7  C   UNL     1      31.490 -12.095 -21.365  0.00  0.00    +0.015 C 
ATOM      8  C   UNL     1      32.101 -10.056 -22.539  0.00  0.00    +0.031 C 
ATOM      9  C   UNL     1      31.389 -10.711 -21.536  0.00  0.00    +0.004 C 
ATOM     10  H   UNL     1      32.250 -14.826 -21.708  0.00  0.00    +0.152 HD
ENDROOT
BRANCH   8  13
ATOM     11  N   UNL     1      32.723  -7.736 -21.911  0.00  0.00    -0.343 N 
ATOM     12  N   UNL     1      31.130  -8.118 -23.577  0.00  0.00    -0.285 NA
ATOM     13  C   UNL     1      31.973  -8.615 -22.690  0.00  0.00    +0.117 C 
ATOM     14  H   UNL     1      32.621  -6.764 -22.028  0.00  0.00    +0.144 HD
ATOM     15  H   UNL     1      33.355  -8.088 -21.241  0.00  0.00    +0.144 HD
ATOM     16  H   UNL     1      31.042  -7.144 -23.680  0.00  0.00    +0.188 HD
ENDBRANCH   8  13
BRANCH   2  17
ATOM     17  C   UNL     1      33.982 -15.707 -23.624  0.00  0.00    +0.047 C 
ATOM     18  C   UNL     1      34.330 -16.595 -22.604  0.00  0.00    +0.135 C 
ATOM     19  C   UNL     1      34.790 -17.874 -22.917  0.00  0.00    +0.034 C 
ATOM     20  C   UNL     1      34.098 -16.103 -24.958  0.00  0.00    +0.004 C 
ATOM     21  C   UNL     1      34.904 -18.267 -24.250  0.00  0.00    +0.003 C 
ATOM     22  C   UNL     1      34.558 -17.382 -25.270  0.00  0.00    +0.000 C 
BRANCH  19  23
ATOM     23  C   UNL     1      35.155 -18.812 -21.873  0.00  0.00    +0.003 C 
ATOM     24  C   UNL     1      34.192 -19.668 -21.342  0.00  0.00    +0.000 C 
ATOM     25  C   UNL     1      36.467 -18.856 -21.405  0.00  0.00    +0.000 C 
ATOM     26  C   UNL     1      34.542 -20.572 -20.338  0.00  0.00    +0.000 C 
ATOM     27  C   UNL     1      36.816 -19.759 -20.401  0.00  0.00    +0.000 C 
ATOM     28  C   UNL     1      35.854 -20.616 -19.868  0.00  0.00    +0.000 C 
ENDBRANCH  19  23
BRANCH  18  29
ATOM     29  O   UNL     1      34.217 -16.210 -21.298  0.00  0.00    -0.505 OA
ATOM     30  H   UNL     1      34.935 -15.788 -20.869  0.00  0.00    +0.292 HD
ENDBRANCH  18  29
ENDBRANCH   2  17
TORSDOF 4
ENDMDL
MODEL 2
REMARK VINA RESULT:     -11.2      0.999      1.630
REMARK  Name = 447476
REMARK  4 active torsions:
REMARK  status: ('A' for Active; 'I' for Inactive)
REMARK    1  A    between atoms: C_2  and  C_17
REMARK    2  A    between atoms: C_8  and  C_13
REMARK    3  A    between atoms: C_18  and  O_29
REMARK    4  A    between atoms: C_19  and  C_23
REMARK                            x       y       z     vdW  Elec       q    Type
REMARK                         _______ _______ _______ _____ _____    ______ ____
ROOT
ATOM      1  N   UNL     1      34.269 -14.000 -24.341  0.00  0.00    -0.312 N 
ATOM      2  C   UNL     1      33.745 -14.982 -23.545  0.00  0.00    +0.051 C 
ATOM      3  C   UNL     1      32.876 -12.990 -22.921  0.00  0.00    +0.015 C 
ATOM      4  C   UNL     1      33.757 -12.773 -23.983  0.00  0.00    +0.048 C 
ATOM      5  C   UNL     1      32.878 -14.389 -22.656  0.00  0.00    +0.016 C 
ATOM      6  C   UNL     1      32.205 -11.886 -22.359  0.00  0.00    +0.004 C 
ATOM      7  C   UNL     1      34.003 -11.501 -24.512  0.00  0.00    +0.015 C 
ATOM      8  C   UNL     1      32.442 -10.607 -22.878  0.00  0.00    +0.031 C 
ATOM      9  C   UNL     1      33.327 -10.420 -23.937  0.00  0.00    +0.004 C 
ATOM     10  H   UNL     1      34.920 -14.149 -25.065  0.00  0.00    +0.152 HD
ENDROOT
BRANCH   8  13
ATOM     11  N   UNL     1      31.112  -8.523 -23.108  0.00  0.00    -0.343 N 
ATOM     12  N   UNL     1      31.735  -9.296 -20.993  0.00  0.00    -0.285 NA
ATOM     13  C   UNL     1      31.754  -9.462 -22.302  0.00  0.00    +0.117 C 
ATOM     14  H   UNL     1      30.653  -7.755 -22.698  0.00  0.00    +0.144 HD
ATOM     15  H   UNL     1      31.118  -8.629 -24.087  0.00  0.00    +0.144 HD
ATOM     16  H   UNL     1      31.271  -8.521 -20.601  0.00  0.00    +0.188 HD
ENDBRANCH   8  13
BRANCH   2  17
ATOM     17  C   UNL     1      34.109 -16.369 -23.701  0.00  0.00    +0.047 C 
ATOM     18  C   UNL     1      34.396 -17.168 -22.593  0.00  0.00    +0.135 C 
ATOM     19  C   UNL     1      34.746 -18.507 -22.768  0.00  0.00    +0.034 C 
ATOM     20  C   UNL     1      34.173 -16.914 -24.985  0.00  0.00    +0.004 C 
ATOM     21  C   UNL     1      34.808 -19.049 -24.052  0.00  0.00    +0.003 C 
ATOM     22  C   UNL     1      34.522 -18.252 -25.160  0.00  0.00    +0.000 C 
BRANCH  19  23
ATOM     23  C   UNL     1      35.047 -19.355 -21.632  0.00  0.00    +0.003 C 
ATOM     24  C   UNL     1      34.028 -20.086 -21.023  0.00  0.00    +0.000 C 
ATOM     25  C   UNL     1      36.352 -19.436 -21.151  0.00  0.00    +0.000 C 
ATOM     26  C   UNL     1      34.317 -20.903 -19.929  0.00  0.00    +0.000 C 
ATOM     27  C   UNL     1      36.640 -20.252 -20.057  0.00  0.00    +0.000 C 
ATOM     28  C   UNL     1      35.623 -20.986 -19.447  0.00  0.00    +0.000 C 
ENDBRANCH  19  23
BRANCH  18  29
ATOM     29  O   UNL     1      34.333 -16.637 -21.335  0.00  0.00    -0.505 OA
ATOM     30  H   UNL     1      33.755 -15.921 -21.156  0.00  0.00    +0.292 HD
ENDBRANCH  18  29
ENDBRANCH   2  17
TORSDOF 4
ENDMDL
MODEL 3
REMARK VINA RESULT:     -11.1      3.699      8.926
REMARK  Name = 447476
REMARK  4 active torsions:
REMARK  status: ('A' for Active; 'I' for Inactive)
REMARK    1  A    between atoms: C_2  and  C_17
REMARK    2  A    between atoms: C_8  and  C_13
REMARK    3  A    between atoms: C_18  and  O_29
REMARK    4  A    between atoms: C_19  and  C_23
REMARK                            x       y       z     vdW  Elec       q    Type
REMARK                         _______ _______ _______ _____ _____    ______ ____
ROOT
ATOM      1  N   UNL     1      35.795 -19.050 -21.571  0.00  0.00    -0.312 N 
ATOM      2  C   UNL     1      34.570 -18.658 -22.039  0.00  0.00    +0.051 C 
ATOM      3  C   UNL     1      34.276 -20.255 -20.466  0.00  0.00    +0.015 C 
ATOM      4  C   UNL     1      35.646 -20.025 -20.609  0.00  0.00    +0.048 C 
ATOM      5  C   UNL     1      33.609 -19.386 -21.374  0.00  0.00    +0.016 C 
ATOM      6  C   UNL     1      33.844 -21.217 -19.531  0.00  0.00    +0.004 C 
ATOM      7  C   UNL     1      36.610 -20.712 -19.863  0.00  0.00    +0.015 C 
ATOM      8  C   UNL     1      34.797 -21.913 -18.778  0.00  0.00    +0.031 C 
ATOM      9  C   UNL     1      36.157 -21.663 -18.943  0.00  0.00    +0.004 C 
ATOM     10  H   UNL     1      36.657 -18.688 -21.878  0.00  0.00    +0.152 HD
ENDROOT
BRANCH   8  13
ATOM     11  N   UNL     1      33.131 -23.555 -17.944  0.00  0.00    -0.343 N 
ATOM     12  N   UNL     1      35.129 -23.210 -16.783  0.00  0.00    -0.285 NA
ATOM     13  C   UNL     1      34.359 -22.909 -17.812  0.00  0.00    +0.117 C 
ATOM     14  H   UNL     1      32.853 -24.225 -17.279  0.00  0.00    +0.144 HD
ATOM     15  H   UNL     1      32.541 -23.340 -18.704  0.00  0.00    +0.144 HD
ATOM     16  H   UNL     1      34.835 -23.883 -16.128  0.00  0.00    +0.188 HD
ENDBRANCH   8  13
BRANCH   2  17
ATOM     17  C   UNL     1      34.428 -17.646 -23.057  0.00  0.00    +0.047 C 
ATOM     18  C   UNL     1      33.990 -16.359 -22.738  0.00  0.00    +0.135 C 
ATOM     19  C   UNL     1      33.861 -15.396 -23.739  0.00  0.00    +0.034 C 
ATOM     20  C   UNL     1      34.736 -17.966 -24.381  0.00  0.00    +0.004 C 
ATOM     21  C   UNL     1      34.170 -15.718 -25.061  0.00  0.00    +0.003 C 
ATOM     22  C   UNL     1      34.607 -17.003 -25.381  0.00  0.00    +0.000 C 
BRANCH  19  23
ATOM     23  C   UNL     1      33.410 -14.054 -23.430  0.00  0.00    +0.003 C 
ATOM     24  C   UNL     1      33.933 -12.967 -24.129  0.00  0.00    +0.000 C 
ATOM     25  C   UNL     1      32.454 -13.853 -22.435  0.00  0.00    +0.000 C 
ATOM     26  C   UNL     1      33.499 -11.675 -23.832  0.00  0.00    +0.000 C 
ATOM     27  C   UNL     1      32.021 -12.561 -22.139  0.00  0.00    +0.000 C 
ATOM     28  C   UNL     1      32.543 -11.473 -22.837  0.00  0.00    +0.000 C 
ENDBRANCH  19  23
BRANCH  18  29
ATOM     29  O   UNL     1      33.689 -16.043 -21.443  0.00  0.00    -0.505 OA
ATOM     30  H   UNL     1      33.822 -15.170 -21.130  0.00  0.00    +0.292 HD
ENDBRANCH  18  29
ENDBRANCH   2  17
TORSDOF 4
ENDMDL
MODEL 4
REMARK VINA RESULT:     -10.8      1.784      3.074
REMARK  Name = 447476
REMARK  4 active torsions:
REMARK  status: ('A' for Active; 'I' for Inactive)
REMARK    1  A    between atoms: C_2  and  C_17
REMARK    2  A    between atoms: C_8  and  C_13
REMARK    3  A    between atoms: C_18  and  O_29
REMARK    4  A    between atoms: C_19  and  C_23
REMARK                            x       y       z     vdW  Elec       q    Type
REMARK                         _______ _______ _______ _____ _____    ______ ____
ROOT
ATOM      1  N   UNL     1      34.421 -11.037 -24.400  0.00  0.00    -0.312 N 
ATOM      2  C   UNL     1      33.490 -11.977 -24.049  0.00  0.00    +0.051 C 
ATOM      3  C   UNL     1      32.907  -9.992 -23.137  0.00  0.00    +0.015 C 
ATOM      4  C   UNL     1      34.091  -9.815 -23.856  0.00  0.00    +0.048 C 
ATOM      5  C   UNL     1      32.539 -11.361 -23.268  0.00  0.00    +0.016 C 
ATOM      6  C   UNL     1      32.343  -8.883 -22.475  0.00  0.00    +0.004 C 
ATOM      7  C   UNL     1      34.743  -8.581 -23.946  0.00  0.00    +0.015 C 
ATOM      8  C   UNL     1      32.985  -7.642 -22.556  0.00  0.00    +0.031 C 
ATOM      9  C   UNL     1      34.166  -7.495 -23.280  0.00  0.00    +0.004 C 
ATOM     10  H   UNL     1      35.213 -11.209 -24.959  0.00  0.00    +0.152 HD
ENDROOT
BRANCH   8  13
ATOM     11  N   UNL     1      31.956  -5.382 -22.583  0.00  0.00    -0.343 N 
ATOM     12  N   UNL     1      32.315  -6.488 -20.557  0.00  0.00    -0.285 NA
ATOM     13  C   UNL     1      32.410  -6.492 -21.874  0.00  0.00    +0.117 C 
ATOM     14  H   UNL     1      31.571  -4.614 -22.103  0.00  0.00    +0.144 HD
ATOM     15  H   UNL     1      32.022  -5.365 -23.566  0.00  0.00    +0.144 HD
ATOM     16  H   UNL     1      31.927  -5.711 -20.094  0.00  0.00    +0.188 HD
ENDBRANCH   8  13
BRANCH   2  17
ATOM     17  C   UNL     1      33.587 -13.349 -24.483  0.00  0.00    +0.047 C 
ATOM     18  C   UNL     1      34.111 -14.335 -23.644  0.00  0.00    +0.135 C 
ATOM     19  C   UNL     1      34.196 -15.655 -24.085  0.00  0.00    +0.034 C 
ATOM     20  C   UNL     1      33.149 -13.689 -25.764  0.00  0.00    +0.004 C 
ATOM     21  C   UNL     1      33.756 -15.993 -25.365  0.00  0.00    +0.003 C 
ATOM     22  C   UNL     1      33.233 -15.010 -26.204  0.00  0.00    +0.000 C 
BRANCH  19  23
ATOM     23  C   UNL     1      34.735 -16.695 -23.230  0.00  0.00    +0.003 C 
ATOM     24  C   UNL     1      35.305 -17.833 -23.798  0.00  0.00    +0.000 C 
ATOM     25  C   UNL     1      34.683 -16.553 -21.845  0.00  0.00    +0.000 C 
ATOM     26  C   UNL     1      35.826 -18.834 -22.976  0.00  0.00    +0.000 C 
ATOM     27  C   UNL     1      35.203 -17.554 -21.024  0.00  0.00    +0.000 C 
ATOM     28  C   UNL     1      35.774 -18.693 -21.590  0.00  0.00    +0.000 C 
ENDBRANCH  19  23
BRANCH  18  29
ATOM     29  O   UNL     1      34.541 -14.004 -22.390  0.00  0.00    -0.505 OA
ATOM     30  H   UNL     1      34.301 -14.536 -21.656  0.00  0.00    +0.292 HD
ENDBRANCH  18  29
ENDBRANCH   2  17
TORSDOF 4
ENDMDL
MODEL 5
REMARK VINA RESULT:     -10.8      3.221      8.620
REMARK  Name = 447476
REMARK  4 active torsions:
REMARK  status: ('A' for Active; 'I' for Inactive)
REMARK    1  A    between atoms: C_2  and  C_17
REMARK    2  A    between atoms: C_8  and  C_13
REMARK    3  A    between atoms: C_18  and  O_29
REMARK    4  A    between atoms: C_19  and  C_23
REMARK                            x       y       z     vdW  Elec       q    Type
REMARK                         _______ _______ _______ _____ _____    ______ ____
ROOT
ATOM      1  N   UNL     1      35.921 -17.470 -22.581  0.00  0.00    -0.312 N 
ATOM      2  C   UNL     1      34.600 -17.294 -22.893  0.00  0.00    +0.051 C 
ATOM      3  C   UNL     1      34.789 -19.024 -21.450  0.00  0.00    +0.015 C 
ATOM      4  C   UNL     1      36.067 -18.520 -21.702  0.00  0.00    +0.048 C 
ATOM      5  C   UNL     1      33.873 -18.241 -22.208  0.00  0.00    +0.016 C 
ATOM      6  C   UNL     1      34.652 -20.116 -20.570  0.00  0.00    +0.004 C 
ATOM      7  C   UNL     1      37.219 -19.056 -21.118  0.00  0.00    +0.015 C 
ATOM      8  C   UNL     1      35.797 -20.663 -19.978  0.00  0.00    +0.031 C 
ATOM      9  C   UNL     1      37.059 -20.139 -20.249  0.00  0.00    +0.004 C 
ATOM     10  H   UNL     1      36.661 -16.925 -22.935  0.00  0.00    +0.152 HD
ENDROOT
BRANCH   8  13
ATOM     11  N   UNL     1      36.479 -21.916 -17.945  0.00  0.00    -0.343 N 
ATOM     12  N   UNL     1      34.759 -22.723 -19.305  0.00  0.00    -0.285 NA
ATOM     13  C   UNL     1      35.664 -21.791 -19.068  0.00  0.00    +0.117 C 
ATOM     14  H   UNL     1      36.374 -22.687 -17.344  0.00  0.00    +0.144 HD
ATOM     15  H   UNL     1      37.162 -21.232 -17.754  0.00  0.00    +0.144 HD
ATOM     16  H   UNL     1      34.668 -23.487 -18.692  0.00  0.00    +0.188 HD
ENDBRANCH   8  13
BRANCH   2  17
ATOM     17  C   UNL     1      34.158 -16.260 -23.796  0.00  0.00    +0.047 C 
ATOM     18  C   UNL     1      33.925 -14.959 -23.345  0.00  0.00    +0.135 C 
ATOM     19  C   UNL     1      33.498 -13.976 -24.237  0.00  0.00    +0.034 C 
ATOM     20  C   UNL     1      33.963 -16.573 -25.143  0.00  0.00    +0.004 C 
ATOM     21  C   UNL     1      33.305 -14.290 -25.582  0.00  0.00    +0.003 C 
ATOM     22  C   UNL     1      33.537 -15.589 -26.035  0.00  0.00    +0.000 C 
BRANCH  19  23
ATOM     23  C   UNL     1      33.251 -12.619 -23.790  0.00  0.00    +0.003 C 
ATOM     24  C   UNL     1      33.980 -11.564 -24.338  0.00  0.00    +0.000 C 
ATOM     25  C   UNL     1      32.287 -12.373 -22.814  0.00  0.00    +0.000 C 
ATOM     26  C   UNL     1      33.742 -10.258 -23.908  0.00  0.00    +0.000 C 
ATOM     27  C   UNL     1      32.050 -11.067 -22.385  0.00  0.00    +0.000 C 
ATOM     28  C   UNL     1      32.777 -10.010 -22.932  0.00  0.00    +0.000 C 
ENDBRANCH  19  23
BRANCH  18  29
ATOM     29  O   UNL     1      34.116 -14.651 -22.027  0.00  0.00    -0.505 OA
ATOM     30  H   UNL     1      33.383 -14.605 -21.445  0.00  0.00    +0.292 HD
ENDBRANCH  18  29
ENDBRANCH   2  17
TORSDOF 4
ENDMDL
MODEL 6
REMARK VINA RESULT:     -10.6      3.982      9.098
REMARK  Name = 447476
REMARK  4 active torsions:
REMARK  status: ('A' for Active; 'I' for Inactive)
REMARK    1  A    between atoms: C_2  and  C_17
REMARK    2  A    between atoms: C_8  and  C_13
REMARK    3  A    between atoms: C_18  and  O_29
REMARK    4  A    between atoms: C_19  and  C_23
REMARK                            x       y       z     vdW  Elec       q    Type
REMARK                         _______ _______ _______ _____ _____    ______ ____
ROOT
ATOM      1  N   UNL     1      33.809 -20.159 -20.965  0.00  0.00    -0.312 N 
ATOM      2  C   UNL     1      34.845 -19.410 -21.455  0.00  0.00    +0.051 C 
ATOM      3  C   UNL     1      35.593 -20.646 -19.716  0.00  0.00    +0.015 C 
ATOM      4  C   UNL     1      34.237 -20.924 -19.902  0.00  0.00    +0.048 C 
ATOM      5  C   UNL     1      35.963 -19.689 -20.703  0.00  0.00    +0.016 C 
ATOM      6  C   UNL     1      36.285 -21.306 -18.681  0.00  0.00    +0.004 C 
ATOM      7  C   UNL     1      33.534 -21.829 -19.101  0.00  0.00    +0.015 C 
ATOM      8  C   UNL     1      35.594 -22.215 -17.871  0.00  0.00    +0.031 C 
ATOM      9  C   UNL     1      34.241 -22.471 -18.079  0.00  0.00    +0.004 C 
ATOM     10  H   UNL     1      32.891 -20.151 -21.320  0.00  0.00    +0.152 HD
ENDROOT
BRANCH   8  13
ATOM     11  N   UNL     1      37.641 -22.629 -16.527  0.00  0.00    -0.343 N 
ATOM     12  N   UNL     1      35.672 -23.799 -16.066  0.00  0.00    -0.285 NA
ATOM     13  C   UNL     1      36.301 -22.899 -16.799  0.00  0.00    +0.117 C 
ATOM     14  H   UNL     1      38.101 -23.104 -15.798  0.00  0.00    +0.144 HD
ATOM     15  H   UNL     1      38.128 -21.963 -17.065  0.00  0.00    +0.144 HD
ATOM     16  H   UNL     1      36.149 -24.264 -15.341  0.00  0.00    +0.188 HD
ENDBRANCH   8  13
BRANCH   2  17
ATOM     17  C   UNL     1      34.679 -18.514 -22.573  0.00  0.00    +0.047 C 
ATOM     18  C   UNL     1      34.241 -17.201 -22.387  0.00  0.00    +0.135 C 
ATOM     19  C   UNL     1      34.088 -16.353 -23.483  0.00  0.00    +0.034 C 
ATOM     20  C   UNL     1      34.962 -18.975 -23.861  0.00  0.00    +0.004 C 
ATOM     21  C   UNL     1      34.372 -16.816 -24.768  0.00  0.00    +0.003 C 
ATOM     22  C   UNL     1      34.809 -18.126 -24.956  0.00  0.00    +0.000 C 
BRANCH  19  23
ATOM     23  C   UNL     1      33.636 -14.986 -23.312  0.00  0.00    +0.003 C 
ATOM     24  C   UNL     1      32.713 -14.680 -22.313  0.00  0.00    +0.000 C 
ATOM     25  C   UNL     1      34.125 -13.982 -24.146  0.00  0.00    +0.000 C 
ATOM     26  C   UNL     1      32.278 -13.365 -22.147  0.00  0.00    +0.000 C 
ATOM     27  C   UNL     1      33.689 -12.668 -23.980  0.00  0.00    +0.000 C 
ATOM     28  C   UNL     1      32.766 -12.359 -22.981  0.00  0.00    +0.000 C 
ENDBRANCH  19  23
BRANCH  18  29
ATOM     29  O   UNL     1      33.964 -16.748 -21.128  0.00  0.00    -0.505 OA
ATOM     30  H   UNL     1      34.662 -16.561 -20.532  0.00  0.00    +0.292 HD
ENDBRANCH  18  29
ENDBRANCH   2  17
TORSDOF 4
ENDMDL
MODEL 7
REMARK VINA RESULT:     -10.5      2.790      9.144
REMARK  Name = 447476
REMARK  4 active torsions:
REMARK  status: ('A' for Active; 'I' for Inactive)
REMARK    1  A    between atoms: C_2  and  C_17
REMARK    2  A    between atoms: C_8  and  C_13
REMARK    3  A    between atoms: C_18  and  O_29
REMARK    4  A    between atoms: C_19  and  C_23
REMARK                            x       y       z     vdW  Elec       q    Type
REMARK                         _______ _______ _______ _____ _____    ______ ____
ROOT
ATOM      1  N   UNL     1      32.867 -13.598 -23.952  0.00  0.00    -0.312 N 
ATOM      2  C   UNL     1      32.927 -13.216 -22.639  0.00  0.00    +0.051 C 
ATOM      3  C   UNL     1      33.907 -15.242 -22.860  0.00  0.00    +0.015 C 
ATOM      4  C   UNL     1      33.457 -14.831 -24.116  0.00  0.00    +0.048 C 
ATOM      5  C   UNL     1      33.566 -14.213 -21.937  0.00  0.00    +0.016 C 
ATOM      6  C   UNL     1      34.559 -16.486 -22.745  0.00  0.00    +0.004 C 
ATOM      7  C   UNL     1      33.625 -15.606 -25.269  0.00  0.00    +0.015 C 
ATOM      8  C   UNL     1      34.734 -17.272 -23.890  0.00  0.00    +0.031 C 
ATOM      9  C   UNL     1      34.274 -16.837 -25.131  0.00  0.00    +0.004 C 
ATOM     10  H   UNL     1      32.459 -13.068 -24.675  0.00  0.00    +0.152 HD
ENDROOT
BRANCH   8  13
ATOM     11  N   UNL     1      34.927 -19.684 -24.448  0.00  0.00    -0.343 N 
ATOM     12  N   UNL     1      36.487 -18.674 -23.032  0.00  0.00    -0.285 NA
ATOM     13  C   UNL     1      35.405 -18.558 -23.780  0.00  0.00    +0.117 C 
ATOM     14  H   UNL     1      35.395 -20.545 -24.359  0.00  0.00    +0.144 HD
ATOM     15  H   UNL     1      34.119 -19.618 -25.008  0.00  0.00    +0.144 HD
ATOM     16  H   UNL     1      36.942 -19.543 -22.955  0.00  0.00    +0.188 HD
ENDBRANCH   8  13
BRANCH   2  17
ATOM     17  C   UNL     1      32.383 -11.961 -22.181  0.00  0.00    +0.047 C 
ATOM     18  C   UNL     1      32.562 -10.787 -22.915  0.00  0.00    +0.135 C 
ATOM     19  C   UNL     1      32.027  -9.585 -22.453  0.00  0.00    +0.034 C 
ATOM     20  C   UNL     1      31.665 -11.929 -20.984  0.00  0.00    +0.004 C 
ATOM     21  C   UNL     1      31.309  -9.555 -21.257  0.00  0.00    +0.003 C 
ATOM     22  C   UNL     1      31.129 -10.727 -20.523  0.00  0.00    +0.000 C 
BRANCH  19  23
ATOM     23  C   UNL     1      32.200  -8.354 -23.199  0.00  0.00    +0.003 C 
ATOM     24  C   UNL     1      31.089  -7.704 -23.733  0.00  0.00    +0.000 C 
ATOM     25  C   UNL     1      33.477  -7.825 -23.381  0.00  0.00    +0.000 C 
ATOM     26  C   UNL     1      31.255  -6.519 -24.451  0.00  0.00    +0.000 C 
ATOM     27  C   UNL     1      33.642  -6.641 -24.099  0.00  0.00    +0.000 C 
ATOM     28  C   UNL     1      32.532  -5.988 -24.634  0.00  0.00    +0.000 C 
ENDBRANCH  19  23
BRANCH  18  29
ATOM     29  O   UNL     1      33.264 -10.817 -24.088  0.00  0.00    -0.505 OA
ATOM     30  H   UNL     1      32.829 -10.644 -24.899  0.00  0.00    +0.292 HD
ENDBRANCH  18  29
ENDBRANCH   2  17
TORSDOF 4
ENDMDL
MODEL 8
REMARK VINA RESULT:     -10.4      3.154      8.450
REMARK  Name = 447476
REMARK  4 active torsions:
REMARK  status: ('A' for Active; 'I' for Inactive)
REMARK    1  A    between atoms: C_2  and  C_17
REMARK    2  A    between atoms: C_8  and  C_13
REMARK    3  A    between atoms: C_18  and  O_29
REMARK    4  A    between atoms: C_19  and  C_23
REMARK                            x       y       z     vdW  Elec       q    Type
REMARK                         _______ _______ _______ _____ _____    ______ ____
ROOT
ATOM      1  N   UNL     1      34.478 -16.652 -24.707  0.00  0.00    -0.312 N 
ATOM      2  C   UNL     1      34.046 -15.510 -24.088  0.00  0.00    +0.051 C 
ATOM      3  C   UNL     1      34.282 -17.140 -22.539  0.00  0.00    +0.015 C 
ATOM      4  C   UNL     1      34.630 -17.664 -23.786  0.00  0.00    +0.048 C 
ATOM      5  C   UNL     1      33.916 -15.780 -22.745  0.00  0.00    +0.016 C 
ATOM      6  C   UNL     1      34.353 -17.977 -21.408  0.00  0.00    +0.004 C 
ATOM      7  C   UNL     1      35.045 -18.989 -23.960  0.00  0.00    +0.015 C 
ATOM      8  C   UNL     1      34.766 -19.305 -21.566  0.00  0.00    +0.031 C 
ATOM      9  C   UNL     1      35.106 -19.801 -22.823  0.00  0.00    +0.004 C 
ATOM     10  H   UNL     1      34.653 -16.738 -25.673  0.00  0.00    +0.152 HD
ENDROOT
BRANCH   8  13
ATOM     11  N   UNL     1      33.694 -20.744 -19.849  0.00  0.00    -0.343 N 
ATOM     12  N   UNL     1      36.011 -20.437 -19.851  0.00  0.00    -0.285 NA
ATOM     13  C   UNL     1      34.840 -20.176 -20.403  0.00  0.00    +0.117 C 
ATOM     14  H   UNL     1      33.766 -21.329 -19.061  0.00  0.00    +0.144 HD
ATOM     15  H   UNL     1      32.812 -20.558 -20.245  0.00  0.00    +0.144 HD
ATOM     16  H   UNL     1      36.063 -21.025 -19.063  0.00  0.00    +0.188 HD
ENDBRANCH   8  13
BRANCH   2  17
ATOM     17  C   UNL     1      33.803 -14.290 -24.817  0.00  0.00    +0.047 C 
ATOM     18  C   UNL     1      33.904 -13.044 -24.193  0.00  0.00    +0.135 C 
ATOM     19  C   UNL     1      33.664 -11.878 -24.919  0.00  0.00    +0.034 C 
ATOM     20  C   UNL     1      33.461 -14.363 -26.169  0.00  0.00    +0.004 C 
ATOM     21  C   UNL     1      33.324 -11.954 -26.269  0.00  0.00    +0.003 C 
ATOM     22  C   UNL     1      33.222 -13.196 -26.894  0.00  0.00    +0.000 C 
BRANCH  19  23
ATOM     23  C   UNL     1      33.765 -10.575 -24.291  0.00  0.00    +0.003 C 
ATOM     24  C   UNL     1      32.755 -10.137 -23.436  0.00  0.00    +0.000 C 
ATOM     25  C   UNL     1      34.870  -9.764 -24.544  0.00  0.00    +0.000 C 
ATOM     26  C   UNL     1      32.851  -8.883 -22.830  0.00  0.00    +0.000 C 
ATOM     27  C   UNL     1      34.965  -8.511 -23.940  0.00  0.00    +0.000 C 
ATOM     28  C   UNL     1      33.956  -8.071 -23.083  0.00  0.00    +0.000 C 
ENDBRANCH  19  23
BRANCH  18  29
ATOM     29  O   UNL     1      34.239 -12.971 -22.871  0.00  0.00    -0.505 OA
ATOM     30  H   UNL     1      34.305 -13.753 -22.359  0.00  0.00    +0.292 HD
ENDBRANCH  18  29
ENDBRANCH   2  17
TORSDOF 4
ENDMDL
MODEL 9
REMARK VINA RESULT:     -10.3      5.410      9.082
REMARK  Name = 447476
REMARK  4 active torsions:
REMARK  status: ('A' for Active; 'I' for Inactive)
REMARK    1  A    between atoms: C_2  and  C_17
REMARK    2  A    between atoms: C_8  and  C_13
REMARK    3  A    between atoms: C_18  and  O_29
REMARK    4  A    between atoms: C_19  and  C_23
REMARK                            x       y       z     vdW  Elec       q    Type
REMARK                         _______ _______ _______ _____ _____    ______ ____
ROOT
ATOM      1  N   UNL     1      36.016 -20.962 -19.176  0.00  0.00    -0.312 N 
ATOM      2  C   UNL     1      34.757 -21.446 -18.944  0.00  0.00    +0.051 C 
ATOM      3  C   UNL     1      34.702 -20.106 -20.764  0.00  0.00    +0.015 C 
ATOM      4  C   UNL     1      36.012 -20.140 -20.281  0.00  0.00    +0.048 C 
ATOM      5  C   UNL     1      33.921 -20.935 -19.910  0.00  0.00    +0.016 C 
ATOM      6  C   UNL     1      34.419 -19.329 -21.905  0.00  0.00    +0.004 C 
ATOM      7  C   UNL     1      37.058 -19.432 -20.884  0.00  0.00    +0.015 C 
ATOM      8  C   UNL     1      35.455 -18.615 -22.518  0.00  0.00    +0.031 C 
ATOM      9  C   UNL     1      36.752 -18.667 -22.014  0.00  0.00    +0.004 C 
ATOM     10  H   UNL     1      36.809 -21.169 -18.631  0.00  0.00    +0.152 HD
ENDROOT
BRANCH   8  13
ATOM     11  N   UNL     1      34.459 -18.331 -24.775  0.00  0.00    -0.343 N 
ATOM     12  N   UNL     1      35.594 -16.561 -23.757  0.00  0.00    -0.285 NA
ATOM     13  C   UNL     1      35.171 -17.810 -23.696  0.00  0.00    +0.117 C 
ATOM     14  H   UNL     1      34.278 -17.770 -25.563  0.00  0.00    +0.144 HD
ATOM     15  H   UNL     1      34.138 -19.262 -24.749  0.00  0.00    +0.144 HD
ATOM     16  H   UNL     1      35.403 -16.014 -24.553  0.00  0.00    +0.188 HD
ENDBRANCH   8  13
BRANCH   2  17
ATOM     17  C   UNL     1      34.470 -22.336 -17.845  0.00  0.00    +0.047 C 
ATOM     18  C   UNL     1      35.457 -22.675 -16.916  0.00  0.00    +0.135 C 
ATOM     19  C   UNL     1      35.156 -23.537 -15.862  0.00  0.00    +0.034 C 
ATOM     20  C   UNL     1      33.183 -22.861 -17.714  0.00  0.00    +0.004 C 
ATOM     21  C   UNL     1      33.870 -24.060 -15.733  0.00  0.00    +0.003 C 
ATOM     22  C   UNL     1      32.884 -23.722 -16.659  0.00  0.00    +0.000 C 
BRANCH  19  23
ATOM     23  C   UNL     1      36.165 -23.902 -14.886  0.00  0.00    +0.003 C 
ATOM     24  C   UNL     1      36.308 -23.149 -13.722  0.00  0.00    +0.000 C 
ATOM     25  C   UNL     1      36.987 -25.004 -15.114  0.00  0.00    +0.000 C 
ATOM     26  C   UNL     1      37.278 -23.501 -12.782  0.00  0.00    +0.000 C 
ATOM     27  C   UNL     1      37.957 -25.354 -14.175  0.00  0.00    +0.000 C 
ATOM     28  C   UNL     1      38.101 -24.603 -13.009  0.00  0.00    +0.000 C 
ENDBRANCH  19  23
BRANCH  18  29
ATOM     29  O   UNL     1      36.717 -22.162 -17.042  0.00  0.00    -0.505 OA
ATOM     30  H   UNL     1      37.368 -22.352 -16.396  0.00  0.00    +0.292 HD
ENDBRANCH  18  29
ENDBRANCH   2  17
TORSDOF 4
ENDMDL
