MODEL 1
REMARK VINA RESULT:      -4.6      0.000      0.000
REMARK  Name = 408285
REMARK  3 active torsions:
REMARK  status: ('A' for Active; 'I' for Inactive)
REMARK    1  A    between atoms: N_2  and  C_8
REMARK    2  A    between atoms: C_8  and  C_9
REMARK    3  A    between atoms: C_9  and  N_10
REMARK                            x       y       z     vdW  Elec       q    Type
REMARK                         _______ _______ _______ _____ _____    ______ ____
ROOT
ATOM      1  O   UNL     1      33.127 -21.916 -19.866  0.00  0.00    -0.358 OA
ATOM      2  N   UNL     1      35.210 -19.998 -20.148  0.00  0.00    +0.389 N 
ATOM      3  C   UNL     1      35.500 -21.426 -19.955  0.00  0.00    -0.045 C 
ATOM      4  C   UNL     1      33.918 -19.835 -20.829  0.00  0.00    -0.045 C 
ATOM      5  C   UNL     1      34.365 -22.084 -19.176  0.00  0.00    +0.119 C 
ATOM      6  C   UNL     1      32.821 -20.530 -20.030  0.00  0.00    +0.119 C 
ATOM      7  H   UNL     1      35.156 -19.548 -19.234  0.00  0.00    -0.080 HD
ENDROOT
BRANCH   2   8
ATOM      8  C   UNL     1      36.280 -19.348 -20.903  0.00  0.00    -0.102 C 
BRANCH   8   9
ATOM      9  C   UNL     1      35.752 -18.108 -21.610  0.00  0.00    -0.110 C 
BRANCH   9  10
ATOM     10  N   UNL     1      36.261 -18.065 -22.960  0.00  0.00    +0.379 N 
ATOM     11  H   UNL     1      37.280 -18.050 -22.939  0.00  0.00    -0.089 HD
ATOM     12  H   UNL     1      35.918 -17.225 -23.426  0.00  0.00    -0.089 HD
ATOM     13  H   UNL     1      35.944 -18.890 -23.469  0.00  0.00    -0.089 HD
ENDBRANCH   9  10
ENDBRANCH   8   9
ENDBRANCH   2   8
TORSDOF 3
ENDMDL
MODEL 2
REMARK VINA RESULT:      -4.6      3.414      4.929
REMARK  Name = 408285
REMARK  3 active torsions:
REMARK  status: ('A' for Active; 'I' for Inactive)
REMARK    1  A    between atoms: N_2  and  C_8
REMARK    2  A    between atoms: C_8  and  C_9
REMARK    3  A    between atoms: C_9  and  N_10
REMARK                            x       y       z     vdW  Elec       q    Type
REMARK                         _______ _______ _______ _____ _____    ______ ____
ROOT
ATOM      1  O   UNL     1      34.676 -17.121 -25.566  0.00  0.00    -0.358 OA
ATOM      2  N   UNL     1      34.717 -17.595 -22.760  0.00  0.00    +0.389 N 
ATOM      3  C   UNL     1      35.108 -18.635 -23.722  0.00  0.00    -0.045 C 
ATOM      4  C   UNL     1      34.994 -16.265 -23.319  0.00  0.00    -0.045 C 
ATOM      5  C   UNL     1      34.381 -18.417 -25.045  0.00  0.00    +0.119 C 
ATOM      6  C   UNL     1      34.270 -16.102 -24.652  0.00  0.00    +0.119 C 
ATOM      7  H   UNL     1      33.715 -17.672 -22.583  0.00  0.00    -0.080 HD
ENDROOT
BRANCH   2   8
ATOM      8  C   UNL     1      35.411 -17.778 -21.487  0.00  0.00    -0.102 C 
BRANCH   8   9
ATOM      9  C   UNL     1      35.364 -19.240 -21.063  0.00  0.00    -0.110 C 
BRANCH   9  10
ATOM     10  N   UNL     1      36.539 -19.558 -20.286  0.00  0.00    +0.379 N 
ATOM     11  H   UNL     1      36.464 -19.126 -19.365  0.00  0.00    -0.089 HD
ATOM     12  H   UNL     1      37.368 -19.201 -20.762  0.00  0.00    -0.089 HD
ATOM     13  H   UNL     1      36.614 -20.569 -20.182  0.00  0.00    -0.089 HD
ENDBRANCH   9  10
ENDBRANCH   8   9
ENDBRANCH   2   8
TORSDOF 3
ENDMDL
MODEL 3
REMARK VINA RESULT:      -4.5      3.254      5.113
REMARK  Name = 408285
REMARK  3 active torsions:
REMARK  status: ('A' for Active; 'I' for Inactive)
REMARK    1  A    between atoms: N_2  and  C_8
REMARK    2  A    between atoms: C_8  and  C_9
REMARK    3  A    between atoms: C_9  and  N_10
REMARK                            x       y       z     vdW  Elec       q    Type
REMARK                         _______ _______ _______ _____ _____    ______ ____
ROOT
ATOM      1  O   UNL     1      33.899 -16.166 -24.586  0.00  0.00    -0.358 OA
ATOM      2  N   UNL     1      35.791 -17.511 -22.939  0.00  0.00    +0.389 N 
ATOM      3  C   UNL     1      34.990 -16.387 -22.432  0.00  0.00    -0.045 C 
ATOM      4  C   UNL     1      35.053 -18.216 -23.996  0.00  0.00    -0.045 C 
ATOM      5  C   UNL     1      34.620 -15.454 -23.580  0.00  0.00    +0.119 C 
ATOM      6  C   UNL     1      34.682 -17.240 -25.109  0.00  0.00    +0.119 C 
ATOM      7  H   UNL     1      36.656 -17.143 -23.335  0.00  0.00    -0.080 HD
ENDROOT
BRANCH   2   8
ATOM      8  C   UNL     1      36.147 -18.425 -21.856  0.00  0.00    -0.102 C 
BRANCH   8   9
ATOM      9  C   UNL     1      34.934 -19.242 -21.432  0.00  0.00    -0.110 C 
BRANCH   9  10
ATOM     10  N   UNL     1      35.285 -20.086 -20.314  0.00  0.00    +0.379 N 
ATOM     11  H   UNL     1      36.286 -20.016 -20.137  0.00  0.00    -0.089 HD
ATOM     12  H   UNL     1      35.044 -21.054 -20.530  0.00  0.00    -0.089 HD
ATOM     13  H   UNL     1      34.771 -19.785 -19.487  0.00  0.00    -0.089 HD
ENDBRANCH   9  10
ENDBRANCH   8   9
ENDBRANCH   2   8
TORSDOF 3
ENDMDL
MODEL 4
REMARK VINA RESULT:      -4.5      6.207      7.170
REMARK  Name = 408285
REMARK  3 active torsions:
REMARK  status: ('A' for Active; 'I' for Inactive)
REMARK    1  A    between atoms: N_2  and  C_8
REMARK    2  A    between atoms: C_8  and  C_9
REMARK    3  A    between atoms: C_9  and  N_10
REMARK                            x       y       z     vdW  Elec       q    Type
REMARK                         _______ _______ _______ _____ _____    ______ ____
ROOT
ATOM      1  O   UNL     1      34.157 -16.039 -26.194  0.00  0.00    -0.358 OA
ATOM      2  N   UNL     1      33.442 -14.881 -23.695  0.00  0.00    +0.389 N 
ATOM      3  C   UNL     1      34.595 -15.783 -23.823  0.00  0.00    -0.045 C 
ATOM      4  C   UNL     1      33.214 -14.174 -24.963  0.00  0.00    -0.045 C 
ATOM      5  C   UNL     1      34.367 -16.754 -24.976  0.00  0.00    +0.119 C 
ATOM      6  C   UNL     1      33.019 -15.184 -26.090  0.00  0.00    +0.119 C 
ATOM      7  H   UNL     1      32.614 -15.436 -23.478  0.00  0.00    -0.080 HD
ENDROOT
BRANCH   2   8
ATOM      8  C   UNL     1      33.643 -13.933 -22.601  0.00  0.00    -0.102 C 
BRANCH   8   9
ATOM      9  C   UNL     1      32.381 -13.822 -21.757  0.00  0.00    -0.110 C 
BRANCH   9  10
ATOM     10  N   UNL     1      31.695 -12.590 -22.068  0.00  0.00    +0.379 N 
ATOM     11  H   UNL     1      30.701 -12.778 -22.198  0.00  0.00    -0.089 HD
ATOM     12  H   UNL     1      32.081 -12.194 -22.926  0.00  0.00    -0.089 HD
ATOM     13  H   UNL     1      31.819 -11.929 -21.302  0.00  0.00    -0.089 HD
ENDBRANCH   9  10
ENDBRANCH   8   9
ENDBRANCH   2   8
TORSDOF 3
ENDMDL
MODEL 5
REMARK VINA RESULT:      -4.5      6.606      7.929
REMARK  Name = 408285
REMARK  3 active torsions:
REMARK  status: ('A' for Active; 'I' for Inactive)
REMARK    1  A    between atoms: N_2  and  C_8
REMARK    2  A    between atoms: C_8  and  C_9
REMARK    3  A    between atoms: C_9  and  N_10
REMARK                            x       y       z     vdW  Elec       q    Type
REMARK                         _______ _______ _______ _____ _____    ______ ____
ROOT
ATOM      1  O   UNL     1      38.588 -26.928 -14.620  0.00  0.00    -0.358 OA
ATOM      2  N   UNL     1      37.217 -24.434 -14.578  0.00  0.00    +0.389 N 
ATOM      3  C   UNL     1      38.655 -24.516 -14.867  0.00  0.00    -0.045 C 
ATOM      4  C   UNL     1      36.548 -25.673 -15.001  0.00  0.00    -0.045 C 
ATOM      5  C   UNL     1      39.252 -25.742 -14.183  0.00  0.00    +0.119 C 
ATOM      6  C   UNL     1      37.194 -26.871 -14.313  0.00  0.00    +0.119 C 
ATOM      7  H   UNL     1      37.091 -24.323 -13.571  0.00  0.00    -0.080 HD
ENDROOT
BRANCH   2   8
ATOM      8  C   UNL     1      36.620 -23.272 -15.233  0.00  0.00    -0.102 C 
BRANCH   8   9
ATOM      9  C   UNL     1      37.622 -22.627 -16.181  0.00  0.00    -0.110 C 
BRANCH   9  10
ATOM     10  N   UNL     1      37.194 -21.286 -16.500  0.00  0.00    +0.379 N 
ATOM     11  H   UNL     1      37.918 -20.818 -17.046  0.00  0.00    -0.089 HD
ATOM     12  H   UNL     1      37.030 -20.767 -15.637  0.00  0.00    -0.089 HD
ATOM     13  H   UNL     1      36.331 -21.324 -17.042  0.00  0.00    -0.089 HD
ENDBRANCH   9  10
ENDBRANCH   8   9
ENDBRANCH   2   8
TORSDOF 3
ENDMDL
MODEL 6
REMARK VINA RESULT:      -4.4      8.698      9.542
REMARK  Name = 408285
REMARK  3 active torsions:
REMARK  status: ('A' for Active; 'I' for Inactive)
REMARK    1  A    between atoms: N_2  and  C_8
REMARK    2  A    between atoms: C_8  and  C_9
REMARK    3  A    between atoms: C_9  and  N_10
REMARK                            x       y       z     vdW  Elec       q    Type
REMARK                         _______ _______ _______ _____ _____    ______ ____
ROOT
ATOM      1  O   UNL     1      38.328 -27.036 -14.596  0.00  0.00    -0.358 OA
ATOM      2  N   UNL     1      37.411 -24.395 -14.062  0.00  0.00    +0.389 N 
ATOM      3  C   UNL     1      36.475 -25.517 -14.224  0.00  0.00    -0.045 C 
ATOM      4  C   UNL     1      38.694 -24.884 -13.538  0.00  0.00    -0.045 C 
ATOM      5  C   UNL     1      37.089 -26.576 -15.134  0.00  0.00    +0.119 C 
ATOM      6  C   UNL     1      39.256 -25.958 -14.465  0.00  0.00    +0.119 C 
ATOM      7  H   UNL     1      37.572 -23.969 -14.974  0.00  0.00    -0.080 HD
ENDROOT
BRANCH   2   8
ATOM      8  C   UNL     1      36.848 -23.372 -13.183  0.00  0.00    -0.102 C 
BRANCH   8   9
ATOM      9  C   UNL     1      37.665 -23.265 -11.903  0.00  0.00    -0.110 C 
BRANCH   9  10
ATOM     10  N   UNL     1      36.817 -23.520 -10.763  0.00  0.00    +0.379 N 
ATOM     11  H   UNL     1      35.992 -24.040 -11.062  0.00  0.00    -0.089 HD
ATOM     12  H   UNL     1      36.528 -22.633 -10.349  0.00  0.00    -0.089 HD
ATOM     13  H   UNL     1      37.331 -24.066 -10.072  0.00  0.00    -0.089 HD
ENDBRANCH   9  10
ENDBRANCH   8   9
ENDBRANCH   2   8
TORSDOF 3
ENDMDL
MODEL 7
REMARK VINA RESULT:      -4.4      8.433      9.411
REMARK  Name = 408285
REMARK  3 active torsions:
REMARK  status: ('A' for Active; 'I' for Inactive)
REMARK    1  A    between atoms: N_2  and  C_8
REMARK    2  A    between atoms: C_8  and  C_9
REMARK    3  A    between atoms: C_9  and  N_10
REMARK                            x       y       z     vdW  Elec       q    Type
REMARK                         _______ _______ _______ _____ _____    ______ ____
ROOT
ATOM      1  O   UNL     1      37.214 -23.919 -10.788  0.00  0.00    -0.358 OA
ATOM      2  N   UNL     1      35.834 -23.933 -13.277  0.00  0.00    +0.389 N 
ATOM      3  C   UNL     1      37.292 -23.763 -13.207  0.00  0.00    -0.045 C 
ATOM      4  C   UNL     1      35.365 -24.729 -12.133  0.00  0.00    -0.045 C 
ATOM      5  C   UNL     1      37.675 -23.120 -11.877  0.00  0.00    +0.119 C 
ATOM      6  C   UNL     1      35.793 -24.063 -10.829  0.00  0.00    +0.119 C 
ATOM      7  H   UNL     1      35.395 -23.013 -13.236  0.00  0.00    -0.080 HD
ENDROOT
BRANCH   2   8
ATOM      8  C   UNL     1      35.444 -24.559 -14.539  0.00  0.00    -0.102 C 
BRANCH   8   9
ATOM      9  C   UNL     1      36.556 -25.467 -15.045  0.00  0.00    -0.110 C 
BRANCH   9  10
ATOM     10  N   UNL     1      36.063 -26.819 -15.161  0.00  0.00    +0.379 N 
ATOM     11  H   UNL     1      36.842 -27.450 -15.349  0.00  0.00    -0.089 HD
ATOM     12  H   UNL     1      35.391 -26.871 -15.928  0.00  0.00    -0.089 HD
ATOM     13  H   UNL     1      35.608 -27.091 -14.291  0.00  0.00    -0.089 HD
ENDBRANCH   9  10
ENDBRANCH   8   9
ENDBRANCH   2   8
TORSDOF 3
ENDMDL
MODEL 8
REMARK VINA RESULT:      -4.4      4.428      5.921
REMARK  Name = 408285
REMARK  3 active torsions:
REMARK  status: ('A' for Active; 'I' for Inactive)
REMARK    1  A    between atoms: N_2  and  C_8
REMARK    2  A    between atoms: C_8  and  C_9
REMARK    3  A    between atoms: C_9  and  N_10
REMARK                            x       y       z     vdW  Elec       q    Type
REMARK                         _______ _______ _______ _____ _____    ______ ____
ROOT
ATOM      1  O   UNL     1      34.987 -15.594 -20.403  0.00  0.00    -0.358 OA
ATOM      2  N   UNL     1      33.929 -15.804 -23.037  0.00  0.00    +0.389 N 
ATOM      3  C   UNL     1      33.999 -14.514 -22.337  0.00  0.00    -0.045 C 
ATOM      4  C   UNL     1      35.003 -16.690 -22.567  0.00  0.00    -0.045 C 
ATOM      5  C   UNL     1      33.927 -14.738 -20.830  0.00  0.00    +0.119 C 
ATOM      6  C   UNL     1      34.907 -16.863 -21.054  0.00  0.00    +0.119 C 
ATOM      7  H   UNL     1      33.031 -16.241 -22.828  0.00  0.00    -0.080 HD
ENDROOT
BRANCH   2   8
ATOM      8  C   UNL     1      34.008 -15.615 -24.484  0.00  0.00    -0.102 C 
BRANCH   8   9
ATOM      9  C   UNL     1      33.185 -14.405 -24.906  0.00  0.00    -0.110 C 
BRANCH   9  10
ATOM     10  N   UNL     1      32.549 -14.669 -26.174  0.00  0.00    +0.379 N 
ATOM     11  H   UNL     1      33.251 -14.970 -26.850  0.00  0.00    -0.089 HD
ATOM     12  H   UNL     1      32.096 -13.819 -26.511  0.00  0.00    -0.089 HD
ATOM     13  H   UNL     1      31.851 -15.403 -26.058  0.00  0.00    -0.089 HD
ENDBRANCH   9  10
ENDBRANCH   8   9
ENDBRANCH   2   8
TORSDOF 3
ENDMDL
MODEL 9
REMARK VINA RESULT:      -4.4      5.987      6.826
REMARK  Name = 408285
REMARK  3 active torsions:
REMARK  status: ('A' for Active; 'I' for Inactive)
REMARK    1  A    between atoms: N_2  and  C_8
REMARK    2  A    between atoms: C_8  and  C_9
REMARK    3  A    between atoms: C_9  and  N_10
REMARK                            x       y       z     vdW  Elec       q    Type
REMARK                         _______ _______ _______ _____ _____    ______ ____
ROOT
ATOM      1  O   UNL     1      34.151 -16.009 -26.204  0.00  0.00    -0.358 OA
ATOM      2  N   UNL     1      33.554 -15.056 -23.590  0.00  0.00    +0.389 N 
ATOM      3  C   UNL     1      34.684 -15.962 -23.839  0.00  0.00    -0.045 C 
ATOM      4  C   UNL     1      33.291 -14.241 -24.784  0.00  0.00    -0.045 C 
ATOM      5  C   UNL     1      34.394 -16.828 -25.060  0.00  0.00    +0.119 C 
ATOM      6  C   UNL     1      33.034 -15.148 -25.984  0.00  0.00    +0.119 C 
ATOM      7  H   UNL     1      32.724 -15.615 -23.388  0.00  0.00    -0.080 HD
ENDROOT
BRANCH   2   8
ATOM      8  C   UNL     1      33.814 -14.207 -22.429  0.00  0.00    -0.102 C 
BRANCH   8   9
ATOM      9  C   UNL     1      32.624 -14.228 -21.480  0.00  0.00    -0.110 C 
BRANCH   9  10
ATOM     10  N   UNL     1      32.454 -15.557 -20.943  0.00  0.00    +0.379 N 
ATOM     11  H   UNL     1      33.178 -16.169 -21.317  0.00  0.00    -0.089 HD
ATOM     12  H   UNL     1      31.536 -15.915 -21.207  0.00  0.00    -0.089 HD
ATOM     13  H   UNL     1      32.527 -15.525 -19.927  0.00  0.00    -0.089 HD
ENDBRANCH   9  10
ENDBRANCH   8   9
ENDBRANCH   2   8
TORSDOF 3
ENDMDL
