MODEL 1
REMARK VINA RESULT:      -6.1      0.000      0.000
REMARK  Name = 6433106
REMARK  1 active torsions:
REMARK  status: ('A' for Active; 'I' for Inactive)
REMARK    1  A    between atoms: C_3  and  N_12
REMARK                            x       y       z     vdW  Elec       q    Type
REMARK                         _______ _______ _______ _____ _____    ______ ____
ROOT
ATOM      1  C   UNL     1      33.596 -15.978 -21.407  0.00  0.00    -0.002 C 
ATOM      2  C   UNL     1      34.470 -18.475 -21.587  0.00  0.00    -0.002 C 
ATOM      3  C   UNL     1      34.520 -16.898 -23.687  0.00  0.00    -0.049 C 
ATOM      4  C   UNL     1      33.559 -17.436 -20.885  0.00  0.00    -0.000 C 
ATOM      5  C   UNL     1      33.551 -15.945 -22.954  0.00  0.00    -0.020 C 
ATOM      6  C   UNL     1      34.385 -18.330 -23.126  0.00  0.00    -0.020 C 
ATOM      7  C   UNL     1      34.791 -15.187 -20.843  0.00  0.00    -0.000 C 
ATOM      8  C   UNL     1      32.329 -15.256 -20.881  0.00  0.00    -0.000 C 
ATOM      9  C   UNL     1      33.950 -19.887 -21.214  0.00  0.00    -0.000 C 
ATOM     10  C   UNL     1      35.921 -18.417 -21.076  0.00  0.00    -0.000 C 
ATOM     11  C   UNL     1      34.172 -16.911 -25.189  0.00  0.00    -0.022 C 
ENDROOT
BRANCH   3  12
ATOM     12  N   UNL     1      35.900 -16.424 -23.579  0.00  0.00    +0.383 N 
ATOM     13  H   UNL     1      36.389 -16.597 -24.458  0.00  0.00    -0.089 HD
ATOM     14  H   UNL     1      36.373 -16.922 -22.824  0.00  0.00    -0.089 HD
ATOM     15  H   UNL     1      35.902 -15.423 -23.380  0.00  0.00    -0.089 HD
ENDBRANCH   3  12
TORSDOF 1
ENDMDL
MODEL 2
REMARK VINA RESULT:      -6.1      9.986     12.032
REMARK  Name = 6433106
REMARK  1 active torsions:
REMARK  status: ('A' for Active; 'I' for Inactive)
REMARK    1  A    between atoms: C_3  and  N_12
REMARK                            x       y       z     vdW  Elec       q    Type
REMARK                         _______ _______ _______ _____ _____    ______ ____
ROOT
ATOM      1  C   UNL     1      37.040 -23.928 -12.393  0.00  0.00    -0.002 C 
ATOM      2  C   UNL     1      36.769 -23.866 -15.029  0.00  0.00    -0.002 C 
ATOM      3  C   UNL     1      38.657 -25.320 -13.925  0.00  0.00    -0.049 C 
ATOM      4  C   UNL     1      36.563 -23.173 -13.659  0.00  0.00    -0.000 C 
ATOM      5  C   UNL     1      38.447 -24.536 -12.612  0.00  0.00    -0.020 C 
ATOM      6  C   UNL     1      38.188 -24.477 -15.130  0.00  0.00    -0.020 C 
ATOM      7  C   UNL     1      36.019 -24.980 -11.921  0.00  0.00    -0.000 C 
ATOM      8  C   UNL     1      37.145 -22.897 -11.240  0.00  0.00    -0.000 C 
ATOM      9  C   UNL     1      36.641 -22.783 -16.130  0.00  0.00    -0.000 C 
ATOM     10  C   UNL     1      35.669 -24.900 -15.332  0.00  0.00    -0.000 C 
ATOM     11  C   UNL     1      40.157 -25.638 -14.086  0.00  0.00    -0.022 C 
ENDROOT
BRANCH   3  12
ATOM     12  N   UNL     1      37.956 -26.604 -13.883  0.00  0.00    +0.383 N 
ATOM     13  H   UNL     1      36.961 -26.454 -14.052  0.00  0.00    -0.089 HD
ATOM     14  H   UNL     1      38.084 -27.032 -12.966  0.00  0.00    -0.089 HD
ATOM     15  H   UNL     1      38.333 -27.222 -14.602  0.00  0.00    -0.089 HD
ENDBRANCH   3  12
TORSDOF 1
ENDMDL
MODEL 3
REMARK VINA RESULT:      -5.9      9.858     11.936
REMARK  Name = 6433106
REMARK  1 active torsions:
REMARK  status: ('A' for Active; 'I' for Inactive)
REMARK    1  A    between atoms: C_3  and  N_12
REMARK                            x       y       z     vdW  Elec       q    Type
REMARK                         _______ _______ _______ _____ _____    ______ ____
ROOT
ATOM      1  C   UNL     1      36.950 -23.473 -15.071  0.00  0.00    -0.002 C 
ATOM      2  C   UNL     1      38.499 -25.401 -14.116  0.00  0.00    -0.002 C 
ATOM      3  C   UNL     1      36.837 -24.128 -12.530  0.00  0.00    -0.049 C 
ATOM      4  C   UNL     1      38.254 -24.302 -15.180  0.00  0.00    -0.000 C 
ATOM      5  C   UNL     1      36.699 -23.032 -13.608  0.00  0.00    -0.020 C 
ATOM      6  C   UNL     1      38.179 -24.873 -12.696  0.00  0.00    -0.020 C 
ATOM      7  C   UNL     1      35.739 -24.209 -15.673  0.00  0.00    -0.000 C 
ATOM      8  C   UNL     1      37.131 -22.193 -15.927  0.00  0.00    -0.000 C 
ATOM      9  C   UNL     1      40.005 -25.769 -14.156  0.00  0.00    -0.000 C 
ATOM     10  C   UNL     1      37.743 -26.703 -14.436  0.00  0.00    -0.000 C 
ATOM     11  C   UNL     1      36.796 -23.469 -11.136  0.00  0.00    -0.022 C 
ENDROOT
BRANCH   3  12
ATOM     12  N   UNL     1      35.712 -25.062 -12.588  0.00  0.00    +0.383 N 
ATOM     13  H   UNL     1      35.933 -25.895 -12.041  0.00  0.00    -0.089 HD
ATOM     14  H   UNL     1      35.541 -25.328 -13.557  0.00  0.00    -0.089 HD
ATOM     15  H   UNL     1      34.879 -24.615 -12.205  0.00  0.00    -0.089 HD
ENDBRANCH   3  12
TORSDOF 1
ENDMDL
MODEL 4
REMARK VINA RESULT:      -5.8      9.750     11.879
REMARK  Name = 6433106
REMARK  1 active torsions:
REMARK  status: ('A' for Active; 'I' for Inactive)
REMARK    1  A    between atoms: C_3  and  N_12
REMARK                            x       y       z     vdW  Elec       q    Type
REMARK                         _______ _______ _______ _____ _____    ______ ____
ROOT
ATOM      1  C   UNL     1      38.500 -25.351 -14.066  0.00  0.00    -0.002 C 
ATOM      2  C   UNL     1      36.909 -23.857 -12.562  0.00  0.00    -0.002 C 
ATOM      3  C   UNL     1      36.924 -23.565 -15.172  0.00  0.00    -0.049 C 
ATOM      4  C   UNL     1      38.204 -24.697 -12.694  0.00  0.00    -0.000 C 
ATOM      5  C   UNL     1      38.253 -24.348 -15.219  0.00  0.00    -0.020 C 
ATOM      6  C   UNL     1      36.734 -22.921 -13.782  0.00  0.00    -0.020 C 
ATOM      7  C   UNL     1      37.725 -26.667 -14.265  0.00  0.00    -0.000 C 
ATOM      8  C   UNL     1      40.001 -25.740 -14.090  0.00  0.00    -0.000 C 
ATOM      9  C   UNL     1      37.049 -22.969 -11.299  0.00  0.00    -0.000 C 
ATOM     10  C   UNL     1      35.666 -24.734 -12.319  0.00  0.00    -0.000 C 
ATOM     11  C   UNL     1      36.956 -22.455 -16.241  0.00  0.00    -0.022 C 
ENDROOT
BRANCH   3  12
ATOM     12  N   UNL     1      35.794 -24.435 -15.502  0.00  0.00    +0.383 N 
ATOM     13  H   UNL     1      36.032 -25.010 -16.311  0.00  0.00    -0.089 HD
ATOM     14  H   UNL     1      34.977 -23.864 -15.720  0.00  0.00    -0.089 HD
ATOM     15  H   UNL     1      35.585 -25.038 -14.706  0.00  0.00    -0.089 HD
ENDBRANCH   3  12
TORSDOF 1
ENDMDL
MODEL 5
REMARK VINA RESULT:      -5.8     10.016     11.584
REMARK  Name = 6433106
REMARK  1 active torsions:
REMARK  status: ('A' for Active; 'I' for Inactive)
REMARK    1  A    between atoms: C_3  and  N_12
REMARK                            x       y       z     vdW  Elec       q    Type
REMARK                         _______ _______ _______ _____ _____    ______ ____
ROOT
ATOM      1  C   UNL     1      36.011 -24.226 -12.135  0.00  0.00    -0.002 C 
ATOM      2  C   UNL     1      36.824 -25.412 -14.363  0.00  0.00    -0.002 C 
ATOM      3  C   UNL     1      34.753 -23.797 -14.400  0.00  0.00    -0.049 C 
ATOM      4  C   UNL     1      36.738 -25.413 -12.816  0.00  0.00    -0.000 C 
ATOM      5  C   UNL     1      34.683 -23.904 -12.862  0.00  0.00    -0.020 C 
ATOM      6  C   UNL     1      35.458 -25.037 -14.989  0.00  0.00    -0.020 C 
ATOM      7  C   UNL     1      36.916 -22.987 -12.001  0.00  0.00    -0.000 C 
ATOM      8  C   UNL     1      35.666 -24.653 -10.685  0.00  0.00    -0.000 C 
ATOM      9  C   UNL     1      37.174 -26.853 -14.817  0.00  0.00    -0.000 C 
ATOM     10  C   UNL     1      37.967 -24.521 -14.884  0.00  0.00    -0.000 C 
ATOM     11  C   UNL     1      33.320 -23.718 -14.964  0.00  0.00    -0.022 C 
ENDROOT
BRANCH   3  12
ATOM     12  N   UNL     1      35.435 -22.568 -14.807  0.00  0.00    +0.383 N 
ATOM     13  H   UNL     1      35.151 -22.319 -15.755  0.00  0.00    -0.089 HD
ATOM     14  H   UNL     1      36.444 -22.714 -14.783  0.00  0.00    -0.089 HD
ATOM     15  H   UNL     1      35.185 -21.812 -14.168  0.00  0.00    -0.089 HD
ENDBRANCH   3  12
TORSDOF 1
ENDMDL
MODEL 6
REMARK VINA RESULT:      -5.8      9.475     11.520
REMARK  Name = 6433106
REMARK  1 active torsions:
REMARK  status: ('A' for Active; 'I' for Inactive)
REMARK    1  A    between atoms: C_3  and  N_12
REMARK                            x       y       z     vdW  Elec       q    Type
REMARK                         _______ _______ _______ _____ _____    ______ ____
ROOT
ATOM      1  C   UNL     1      34.949 -23.814 -14.689  0.00  0.00    -0.002 C 
ATOM      2  C   UNL     1      36.216 -24.156 -12.386  0.00  0.00    -0.002 C 
ATOM      3  C   UNL     1      36.886 -25.577 -14.490  0.00  0.00    -0.049 C 
ATOM      4  C   UNL     1      34.936 -23.720 -13.143  0.00  0.00    -0.000 C 
ATOM      5  C   UNL     1      35.556 -25.160 -15.154  0.00  0.00    -0.020 C 
ATOM      6  C   UNL     1      36.766 -25.486 -12.955  0.00  0.00    -0.020 C 
ATOM      7  C   UNL     1      35.645 -22.605 -15.341  0.00  0.00    -0.000 C 
ATOM      8  C   UNL     1      33.477 -23.765 -15.177  0.00  0.00    -0.000 C 
ATOM      9  C   UNL     1      35.829 -24.397 -10.904  0.00  0.00    -0.000 C 
ATOM     10  C   UNL     1      37.285 -23.048 -12.362  0.00  0.00    -0.000 C 
ATOM     11  C   UNL     1      37.211 -27.031 -14.886  0.00  0.00    -0.022 C 
ENDROOT
BRANCH   3  12
ATOM     12  N   UNL     1      37.992 -24.751 -14.976  0.00  0.00    +0.383 N 
ATOM     13  H   UNL     1      38.843 -24.985 -14.462  0.00  0.00    -0.089 HD
ATOM     14  H   UNL     1      37.770 -23.765 -14.833  0.00  0.00    -0.089 HD
ATOM     15  H   UNL     1      38.137 -24.925 -15.970  0.00  0.00    -0.089 HD
ENDBRANCH   3  12
TORSDOF 1
ENDMDL
MODEL 7
REMARK VINA RESULT:      -5.7      1.629      3.832
REMARK  Name = 6433106
REMARK  1 active torsions:
REMARK  status: ('A' for Active; 'I' for Inactive)
REMARK    1  A    between atoms: C_3  and  N_12
REMARK                            x       y       z     vdW  Elec       q    Type
REMARK                         _______ _______ _______ _____ _____    ______ ____
ROOT
ATOM      1  C   UNL     1      34.840 -18.106 -23.296  0.00  0.00    -0.002 C 
ATOM      2  C   UNL     1      33.769 -16.609 -21.389  0.00  0.00    -0.002 C 
ATOM      3  C   UNL     1      33.915 -19.216 -21.103  0.00  0.00    -0.049 C 
ATOM      4  C   UNL     1      34.117 -16.799 -22.886  0.00  0.00    -0.000 C 
ATOM      5  C   UNL     1      34.185 -19.334 -22.618  0.00  0.00    -0.020 C 
ATOM      6  C   UNL     1      33.161 -17.904 -20.797  0.00  0.00    -0.020 C 
ATOM      7  C   UNL     1      36.357 -18.040 -23.038  0.00  0.00    -0.000 C 
ATOM      8  C   UNL     1      34.682 -18.273 -24.830  0.00  0.00    -0.000 C 
ATOM      9  C   UNL     1      32.696 -15.495 -21.291  0.00  0.00    -0.000 C 
ATOM     10  C   UNL     1      34.970 -16.103 -20.570  0.00  0.00    -0.000 C 
ATOM     11  C   UNL     1      33.051 -20.410 -20.651  0.00  0.00    -0.022 C 
ENDROOT
BRANCH   3  12
ATOM     12  N   UNL     1      35.164 -19.289 -20.343  0.00  0.00    +0.383 N 
ATOM     13  H   UNL     1      35.956 -19.215 -20.983  0.00  0.00    -0.089 HD
ATOM     14  H   UNL     1      35.209 -20.179 -19.848  0.00  0.00    -0.089 HD
ATOM     15  H   UNL     1      35.199 -18.523 -19.670  0.00  0.00    -0.089 HD
ENDBRANCH   3  12
TORSDOF 1
ENDMDL
MODEL 8
REMARK VINA RESULT:      -5.6      9.634     12.060
REMARK  Name = 6433106
REMARK  1 active torsions:
REMARK  status: ('A' for Active; 'I' for Inactive)
REMARK    1  A    between atoms: C_3  and  N_12
REMARK                            x       y       z     vdW  Elec       q    Type
REMARK                         _______ _______ _______ _____ _____    ______ ____
ROOT
ATOM      1  C   UNL     1      36.979 -25.572 -14.277  0.00  0.00    -0.002 C 
ATOM      2  C   UNL     1      34.965 -23.872 -14.567  0.00  0.00    -0.002 C 
ATOM      3  C   UNL     1      36.118 -24.174 -12.227  0.00  0.00    -0.049 C 
ATOM      4  C   UNL     1      35.701 -25.150 -15.044  0.00  0.00    -0.000 C 
ATOM      5  C   UNL     1      36.759 -25.478 -12.747  0.00  0.00    -0.020 C 
ATOM      6  C   UNL     1      34.836 -23.855 -13.025  0.00  0.00    -0.020 C 
ATOM      7  C   UNL     1      38.221 -24.786 -14.735  0.00  0.00    -0.000 C 
ATOM      8  C   UNL     1      37.269 -27.056 -14.622  0.00  0.00    -0.000 C 
ATOM      9  C   UNL     1      33.534 -23.902 -15.163  0.00  0.00    -0.000 C 
ATOM     10  C   UNL     1      35.616 -22.587 -15.111  0.00  0.00    -0.000 C 
ATOM     11  C   UNL     1      35.754 -24.351 -10.739  0.00  0.00    -0.022 C 
ENDROOT
BRANCH   3  12
ATOM     12  N   UNL     1      37.066 -23.061 -12.299  0.00  0.00    +0.383 N 
ATOM     13  H   UNL     1      38.019 -23.423 -12.245  0.00  0.00    -0.089 HD
ATOM     14  H   UNL     1      36.902 -22.423 -11.521  0.00  0.00    -0.089 HD
ATOM     15  H   UNL     1      36.941 -22.563 -13.180  0.00  0.00    -0.089 HD
ENDBRANCH   3  12
TORSDOF 1
ENDMDL
MODEL 9
REMARK VINA RESULT:      -5.6      8.570     10.513
REMARK  Name = 6433106
REMARK  1 active torsions:
REMARK  status: ('A' for Active; 'I' for Inactive)
REMARK    1  A    between atoms: C_3  and  N_12
REMARK                            x       y       z     vdW  Elec       q    Type
REMARK                         _______ _______ _______ _____ _____    ______ ____
ROOT
ATOM      1  C   UNL     1      31.519  -6.506 -23.641  0.00  0.00    -0.002 C 
ATOM      2  C   UNL     1      33.869  -7.712 -23.420  0.00  0.00    -0.002 C 
ATOM      3  C   UNL     1      32.254  -7.569 -21.355  0.00  0.00    -0.049 C 
ATOM      4  C   UNL     1      32.980  -6.662 -24.132  0.00  0.00    -0.000 C 
ATOM      5  C   UNL     1      31.458  -6.473 -22.094  0.00  0.00    -0.020 C 
ATOM      6  C   UNL     1      33.702  -7.625 -21.884  0.00  0.00    -0.020 C 
ATOM      7  C   UNL     1      30.586  -7.577 -24.237  0.00  0.00    -0.000 C 
ATOM      8  C   UNL     1      30.987  -5.147 -24.165  0.00  0.00    -0.000 C 
ATOM      9  C   UNL     1      35.347  -7.385 -23.756  0.00  0.00    -0.000 C 
ATOM     10  C   UNL     1      33.627  -9.138 -23.951  0.00  0.00    -0.000 C 
ATOM     11  C   UNL     1      32.280  -7.241 -19.848  0.00  0.00    -0.022 C 
ENDROOT
BRANCH   3  12
ATOM     12  N   UNL     1      31.599  -8.871 -21.491  0.00  0.00    +0.383 N 
ATOM     13  H   UNL     1      30.593  -8.736 -21.598  0.00  0.00    -0.089 HD
ATOM     14  H   UNL     1      31.780  -9.432 -20.658  0.00  0.00    -0.089 HD
ATOM     15  H   UNL     1      31.966  -9.353 -22.312  0.00  0.00    -0.089 HD
ENDBRANCH   3  12
TORSDOF 1
ENDMDL
