MODEL 1
REMARK VINA RESULT:      -8.5      0.000      0.000
REMARK  Name = 5310966
REMARK  0 active torsions:
REMARK  status: ('A' for Active; 'I' for Inactive)
REMARK                            x       y       z     vdW  Elec       q    Type
REMARK                         _______ _______ _______ _____ _____    ______ ____
ROOT
ATOM      1  N   UNL     1      35.222 -17.514 -20.651  0.00  0.00    +0.384 N 
ATOM      2  N   UNL     1      32.384 -22.112 -18.284  0.00  0.00    -0.241 NA
ATOM      3  N   UNL     1      35.069 -22.792 -18.021  0.00  0.00    -0.241 NA
ATOM      4  C   UNL     1      33.730 -19.058 -21.979  0.00  0.00    +0.001 C 
ATOM      5  C   UNL     1      36.023 -19.638 -21.754  0.00  0.00    +0.001 C 
ATOM      6  C   UNL     1      34.944 -19.461 -22.836  0.00  0.00    +0.004 C 
ATOM      7  C   UNL     1      33.869 -20.089 -20.887  0.00  0.00    -0.027 C 
ATOM      8  C   UNL     1      35.219 -20.431 -20.754  0.00  0.00    -0.027 C 
ATOM      9  C   UNL     1      33.983 -17.635 -21.439  0.00  0.00    -0.077 C 
ATOM     10  C   UNL     1      36.377 -18.240 -21.203  0.00  0.00    -0.077 C 
ATOM     11  C   UNL     1      32.914 -20.644 -20.061  0.00  0.00    +0.016 C 
ATOM     12  C   UNL     1      35.629 -21.331 -19.794  0.00  0.00    +0.016 C 
ATOM     13  C   UNL     1      33.308 -21.563 -19.090  0.00  0.00    +0.099 C 
ATOM     14  C   UNL     1      34.679 -21.909 -18.955  0.00  0.00    +0.099 C 
ATOM     15  C   UNL     1      32.802 -22.993 -17.359  0.00  0.00    +0.119 C 
ATOM     16  C   UNL     1      34.124 -23.327 -17.229  0.00  0.00    +0.119 C 
ATOM     17  H   UNL     1      35.039 -17.873 -19.715  0.00  0.00    -0.084 HD
ATOM     18  H   UNL     1      35.473 -16.525 -20.662  0.00  0.00    -0.084 HD
ENDROOT
TORSDOF 0
ENDMDL
MODEL 2
REMARK VINA RESULT:      -8.3      3.183      6.580
REMARK  Name = 5310966
REMARK  0 active torsions:
REMARK  status: ('A' for Active; 'I' for Inactive)
REMARK                            x       y       z     vdW  Elec       q    Type
REMARK                         _______ _______ _______ _____ _____    ______ ____
ROOT
ATOM      1  N   UNL     1      33.994 -19.604 -22.188  0.00  0.00    +0.384 N 
ATOM      2  N   UNL     1      32.885 -13.983 -20.786  0.00  0.00    -0.241 NA
ATOM      3  N   UNL     1      32.920 -13.970 -23.567  0.00  0.00    -0.241 NA
ATOM      4  C   UNL     1      35.640 -18.126 -20.973  0.00  0.00    +0.001 C 
ATOM      5  C   UNL     1      35.669 -18.116 -23.349  0.00  0.00    +0.001 C 
ATOM      6  C   UNL     1      36.620 -18.282 -22.150  0.00  0.00    +0.004 C 
ATOM      7  C   UNL     1      34.881 -16.919 -21.466  0.00  0.00    -0.027 C 
ATOM      8  C   UNL     1      34.898 -16.913 -22.865  0.00  0.00    -0.027 C 
ATOM      9  C   UNL     1      34.738 -19.377 -20.938  0.00  0.00    -0.077 C 
ATOM     10  C   UNL     1      34.768 -19.366 -23.418  0.00  0.00    -0.077 C 
ATOM     11  C   UNL     1      34.205 -15.944 -20.762  0.00  0.00    +0.016 C 
ATOM     12  C   UNL     1      34.239 -15.932 -23.576  0.00  0.00    +0.016 C 
ATOM     13  C   UNL     1      33.541 -14.939 -21.463  0.00  0.00    +0.099 C 
ATOM     14  C   UNL     1      33.559 -14.933 -22.883  0.00  0.00    +0.099 C 
ATOM     15  C   UNL     1      32.255 -13.031 -21.495  0.00  0.00    +0.119 C 
ATOM     16  C   UNL     1      32.271 -13.025 -22.865  0.00  0.00    +0.119 C 
ATOM     17  H   UNL     1      33.187 -18.981 -22.195  0.00  0.00    -0.084 HD
ATOM     18  H   UNL     1      33.740 -20.592 -22.195  0.00  0.00    -0.084 HD
ENDROOT
TORSDOF 0
ENDMDL
MODEL 3
REMARK VINA RESULT:      -8.2      3.661      7.292
REMARK  Name = 5310966
REMARK  0 active torsions:
REMARK  status: ('A' for Active; 'I' for Inactive)
REMARK                            x       y       z     vdW  Elec       q    Type
REMARK                         _______ _______ _______ _____ _____    ______ ____
ROOT
ATOM      1  N   UNL     1      33.686 -19.198 -21.870  0.00  0.00    +0.384 N 
ATOM      2  N   UNL     1      33.224 -13.834 -24.281  0.00  0.00    -0.241 NA
ATOM      3  N   UNL     1      33.574 -15.510 -26.473  0.00  0.00    -0.241 NA
ATOM      4  C   UNL     1      35.375 -17.359 -21.500  0.00  0.00    +0.001 C 
ATOM      5  C   UNL     1      35.673 -18.791 -23.372  0.00  0.00    +0.001 C 
ATOM      6  C   UNL     1      36.450 -18.239 -22.163  0.00  0.00    +0.004 C 
ATOM      7  C   UNL     1      34.853 -16.666 -22.734  0.00  0.00    -0.027 C 
ATOM      8  C   UNL     1      35.028 -17.509 -23.836  0.00  0.00    -0.027 C 
ATOM      9  C   UNL     1      34.309 -18.292 -20.890  0.00  0.00    -0.077 C 
ATOM     10  C   UNL     1      34.619 -19.787 -22.845  0.00  0.00    -0.077 C 
ATOM     11  C   UNL     1      34.245 -15.436 -22.873  0.00  0.00    +0.016 C 
ATOM     12  C   UNL     1      34.598 -17.132 -25.091  0.00  0.00    +0.016 C 
ATOM     13  C   UNL     1      33.812 -15.033 -24.135  0.00  0.00    +0.099 C 
ATOM     14  C   UNL     1      33.990 -15.888 -25.254  0.00  0.00    +0.099 C 
ATOM     15  C   UNL     1      32.817 -13.480 -25.512  0.00  0.00    +0.119 C 
ATOM     16  C   UNL     1      32.989 -14.305 -26.592  0.00  0.00    +0.119 C 
ATOM     17  H   UNL     1      32.980 -18.672 -22.385  0.00  0.00    -0.084 HD
ATOM     18  H   UNL     1      33.299 -19.976 -21.337  0.00  0.00    -0.084 HD
ENDROOT
TORSDOF 0
ENDMDL
MODEL 4
REMARK VINA RESULT:      -7.9      2.993      6.581
REMARK  Name = 5310966
REMARK  0 active torsions:
REMARK  status: ('A' for Active; 'I' for Inactive)
REMARK                            x       y       z     vdW  Elec       q    Type
REMARK                         _______ _______ _______ _____ _____    ______ ____
ROOT
ATOM      1  N   UNL     1      37.319 -25.601 -15.372  0.00  0.00    +0.384 N 
ATOM      2  N   UNL     1      33.917 -22.199 -18.784  0.00  0.00    -0.241 NA
ATOM      3  N   UNL     1      36.425 -21.010 -18.966  0.00  0.00    -0.241 NA
ATOM      4  C   UNL     1      35.409 -24.212 -14.482  0.00  0.00    +0.001 C 
ATOM      5  C   UNL     1      37.552 -23.198 -14.638  0.00  0.00    +0.001 C 
ATOM      6  C   UNL     1      36.412 -23.416 -13.627  0.00  0.00    +0.004 C 
ATOM      7  C   UNL     1      35.465 -23.378 -15.737  0.00  0.00    -0.027 C 
ATOM      8  C   UNL     1      36.726 -22.780 -15.829  0.00  0.00    -0.027 C 
ATOM      9  C   UNL     1      36.000 -25.617 -14.719  0.00  0.00    -0.077 C 
ATOM     10  C   UNL     1      38.236 -24.559 -14.883  0.00  0.00    -0.077 C 
ATOM     11  C   UNL     1      34.520 -23.192 -16.725  0.00  0.00    +0.016 C 
ATOM     12  C   UNL     1      37.057 -21.990 -16.910  0.00  0.00    +0.016 C 
ATOM     13  C   UNL     1      34.832 -22.389 -17.820  0.00  0.00    +0.099 C 
ATOM     14  C   UNL     1      36.113 -21.783 -17.913  0.00  0.00    +0.099 C 
ATOM     15  C   UNL     1      34.254 -21.420 -19.826  0.00  0.00    +0.119 C 
ATOM     16  C   UNL     1      35.490 -20.835 -19.916  0.00  0.00    +0.119 C 
ATOM     17  H   UNL     1      37.177 -25.456 -16.371  0.00  0.00    -0.084 HD
ATOM     18  H   UNL     1      37.759 -26.496 -15.154  0.00  0.00    -0.084 HD
ENDROOT
TORSDOF 0
ENDMDL
MODEL 5
REMARK VINA RESULT:      -7.7      6.165      8.173
REMARK  Name = 5310966
REMARK  0 active torsions:
REMARK  status: ('A' for Active; 'I' for Inactive)
REMARK                            x       y       z     vdW  Elec       q    Type
REMARK                         _______ _______ _______ _____ _____    ______ ____
ROOT
ATOM      1  N   UNL     1      36.958 -26.934 -13.874  0.00  0.00    +0.384 N 
ATOM      2  N   UNL     1      32.139 -23.596 -13.213  0.00  0.00    -0.241 NA
ATOM      3  N   UNL     1      32.648 -23.480 -15.946  0.00  0.00    -0.241 NA
ATOM      4  C   UNL     1      36.936 -24.769 -12.577  0.00  0.00    +0.001 C 
ATOM      5  C   UNL     1      37.370 -24.670 -14.911  0.00  0.00    +0.001 C 
ATOM      6  C   UNL     1      37.955 -24.185 -13.572  0.00  0.00    +0.004 C 
ATOM      7  C   UNL     1      35.667 -24.381 -13.295  0.00  0.00    -0.027 C 
ATOM      8  C   UNL     1      35.922 -24.324 -14.669  0.00  0.00    -0.027 C 
ATOM      9  C   UNL     1      37.119 -26.300 -12.554  0.00  0.00    -0.077 C 
ATOM     10  C   UNL     1      37.572 -26.198 -14.991  0.00  0.00    -0.077 C 
ATOM     11  C   UNL     1      34.402 -24.144 -12.799  0.00  0.00    +0.016 C 
ATOM     12  C   UNL     1      34.916 -24.028 -15.563  0.00  0.00    +0.016 C 
ATOM     13  C   UNL     1      33.373 -23.834 -13.687  0.00  0.00    +0.099 C 
ATOM     14  C   UNL     1      33.633 -23.775 -15.082  0.00  0.00    +0.099 C 
ATOM     15  C   UNL     1      31.172 -23.302 -14.099  0.00  0.00    +0.119 C 
ATOM     16  C   UNL     1      31.422 -23.246 -15.445  0.00  0.00    +0.119 C 
ATOM     17  H   UNL     1      35.960 -27.023 -14.063  0.00  0.00    -0.084 HD
ATOM     18  H   UNL     1      37.439 -27.832 -13.822  0.00  0.00    -0.084 HD
ENDROOT
TORSDOF 0
ENDMDL
MODEL 6
REMARK VINA RESULT:      -7.6      1.277      2.535
REMARK  Name = 5310966
REMARK  0 active torsions:
REMARK  status: ('A' for Active; 'I' for Inactive)
REMARK                            x       y       z     vdW  Elec       q    Type
REMARK                         _______ _______ _______ _____ _____    ______ ____
ROOT
ATOM      1  N   UNL     1      35.266 -19.460 -23.676  0.00  0.00    +0.384 N 
ATOM      2  N   UNL     1      35.440 -22.308 -18.514  0.00  0.00    -0.241 NA
ATOM      3  N   UNL     1      32.720 -21.951 -18.974  0.00  0.00    -0.241 NA
ATOM      4  C   UNL     1      36.255 -18.468 -21.576  0.00  0.00    +0.001 C 
ATOM      5  C   UNL     1      33.932 -18.164 -21.970  0.00  0.00    +0.001 C 
ATOM      6  C   UNL     1      35.195 -17.353 -21.626  0.00  0.00    +0.004 C 
ATOM      7  C   UNL     1      35.485 -19.481 -20.766  0.00  0.00    -0.027 C 
ATOM      8  C   UNL     1      34.117 -19.302 -20.998  0.00  0.00    -0.027 C 
ATOM      9  C   UNL     1      36.488 -18.966 -23.017  0.00  0.00    -0.077 C 
ATOM     10  C   UNL     1      34.063 -18.649 -23.429  0.00  0.00    -0.077 C 
ATOM     11  C   UNL     1      35.937 -20.488 -19.939  0.00  0.00    +0.016 C 
ATOM     12  C   UNL     1      33.185 -20.128 -20.406  0.00  0.00    +0.016 C 
ATOM     13  C   UNL     1      35.010 -21.328 -19.324  0.00  0.00    +0.099 C 
ATOM     14  C   UNL     1      33.621 -21.146 -19.560  0.00  0.00    +0.099 C 
ATOM     15  C   UNL     1      34.517 -23.099 -17.940  0.00  0.00    +0.119 C 
ATOM     16  C   UNL     1      33.178 -22.924 -18.167  0.00  0.00    +0.119 C 
ATOM     17  H   UNL     1      35.086 -20.406 -23.343  0.00  0.00    -0.084 HD
ATOM     18  H   UNL     1      35.443 -19.413 -24.680  0.00  0.00    -0.084 HD
ENDROOT
TORSDOF 0
ENDMDL
MODEL 7
REMARK VINA RESULT:      -7.6      5.644      7.618
REMARK  Name = 5310966
REMARK  0 active torsions:
REMARK  status: ('A' for Active; 'I' for Inactive)
REMARK                            x       y       z     vdW  Elec       q    Type
REMARK                         _______ _______ _______ _____ _____    ______ ____
ROOT
ATOM      1  N   UNL     1      30.398 -25.481 -15.144  0.00  0.00    +0.384 N 
ATOM      2  N   UNL     1      35.902 -23.585 -16.098  0.00  0.00    -0.241 NA
ATOM      3  N   UNL     1      35.861 -24.136 -13.371  0.00  0.00    -0.241 NA
ATOM      4  C   UNL     1      30.949 -23.128 -15.872  0.00  0.00    +0.001 C 
ATOM      5  C   UNL     1      30.914 -23.599 -13.544  0.00  0.00    +0.001 C 
ATOM      6  C   UNL     1      30.337 -22.600 -14.562  0.00  0.00    +0.004 C 
ATOM      7  C   UNL     1      32.364 -23.339 -15.395  0.00  0.00    -0.027 C 
ATOM      8  C   UNL     1      32.344 -23.617 -14.024  0.00  0.00    -0.027 C 
ATOM      9  C   UNL     1      30.267 -24.470 -16.207  0.00  0.00    -0.077 C 
ATOM     10  C   UNL     1      30.230 -24.963 -13.777  0.00  0.00    -0.077 C 
ATOM     11  C   UNL     1      33.551 -23.332 -16.098  0.00  0.00    +0.016 C 
ATOM     12  C   UNL     1      33.510 -23.889 -13.340  0.00  0.00    +0.016 C 
ATOM     13  C   UNL     1      34.741 -23.596 -15.422  0.00  0.00    +0.099 C 
ATOM     14  C   UNL     1      34.720 -23.877 -14.031  0.00  0.00    +0.099 C 
ATOM     15  C   UNL     1      37.029 -23.846 -15.413  0.00  0.00    +0.119 C 
ATOM     16  C   UNL     1      37.009 -24.118 -14.071  0.00  0.00    +0.119 C 
ATOM     17  H   UNL     1      31.326 -25.897 -15.215  0.00  0.00    -0.084 HD
ATOM     18  H   UNL     1      29.644 -26.152 -15.291  0.00  0.00    -0.084 HD
ENDROOT
TORSDOF 0
ENDMDL
MODEL 8
REMARK VINA RESULT:      -7.6      3.005      7.088
REMARK  Name = 5310966
REMARK  0 active torsions:
REMARK  status: ('A' for Active; 'I' for Inactive)
REMARK                            x       y       z     vdW  Elec       q    Type
REMARK                         _______ _______ _______ _____ _____    ______ ____
ROOT
ATOM      1  N   UNL     1      30.427 -25.620 -14.925  0.00  0.00    +0.384 N 
ATOM      2  N   UNL     1      32.766 -22.065 -19.009  0.00  0.00    -0.241 NA
ATOM      3  N   UNL     1      34.966 -22.887 -17.518  0.00  0.00    -0.241 NA
ATOM      4  C   UNL     1      29.939 -23.147 -15.056  0.00  0.00    +0.001 C 
ATOM      5  C   UNL     1      31.818 -23.851 -13.783  0.00  0.00    +0.001 C 
ATOM      6  C   UNL     1      30.562 -22.970 -13.659  0.00  0.00    +0.004 C 
ATOM      7  C   UNL     1      31.186 -22.972 -15.886  0.00  0.00    -0.027 C 
ATOM      8  C   UNL     1      32.293 -23.386 -15.137  0.00  0.00    -0.027 C 
ATOM      9  C   UNL     1      29.401 -24.589 -15.155  0.00  0.00    -0.077 C 
ATOM     10  C   UNL     1      31.362 -25.324 -13.827  0.00  0.00    -0.077 C 
ATOM     11  C   UNL     1      31.335 -22.532 -17.185  0.00  0.00    +0.016 C 
ATOM     12  C   UNL     1      33.561 -23.365 -15.678  0.00  0.00    +0.016 C 
ATOM     13  C   UNL     1      32.610 -22.496 -17.746  0.00  0.00    +0.099 C 
ATOM     14  C   UNL     1      33.733 -22.916 -16.986  0.00  0.00    +0.099 C 
ATOM     15  C   UNL     1      34.010 -22.045 -19.517  0.00  0.00    +0.119 C 
ATOM     16  C   UNL     1      35.094 -22.451 -18.783  0.00  0.00    +0.119 C 
ATOM     17  H   UNL     1      30.968 -25.728 -15.782  0.00  0.00    -0.084 HD
ATOM     18  H   UNL     1      29.927 -26.468 -14.655  0.00  0.00    -0.084 HD
ENDROOT
TORSDOF 0
ENDMDL
MODEL 9
REMARK VINA RESULT:      -7.5      8.709     11.786
REMARK  Name = 5310966
REMARK  0 active torsions:
REMARK  status: ('A' for Active; 'I' for Inactive)
REMARK                            x       y       z     vdW  Elec       q    Type
REMARK                         _______ _______ _______ _____ _____    ______ ____
ROOT
ATOM      1  N   UNL     1      31.323  -7.017 -24.169  0.00  0.00    +0.384 N 
ATOM      2  N   UNL     1      34.057 -12.239 -24.379  0.00  0.00    -0.241 NA
ATOM      3  N   UNL     1      31.956 -12.670 -22.608  0.00  0.00    -0.241 NA
ATOM      4  C   UNL     1      33.676  -7.386 -23.333  0.00  0.00    +0.001 C 
ATOM      5  C   UNL     1      31.881  -7.754 -21.820  0.00  0.00    +0.001 C 
ATOM      6  C   UNL     1      33.215  -6.992 -21.918  0.00  0.00    +0.004 C 
ATOM      7  C   UNL     1      33.391  -8.866 -23.263  0.00  0.00    -0.027 C 
ATOM      8  C   UNL     1      32.334  -9.083 -22.372  0.00  0.00    -0.027 C 
ATOM      9  C   UNL     1      32.747  -6.687 -24.346  0.00  0.00    -0.077 C 
ATOM     10  C   UNL     1      30.873  -7.071 -22.768  0.00  0.00    -0.077 C 
ATOM     11  C   UNL     1      33.970  -9.917 -23.943  0.00  0.00    +0.016 C 
ATOM     12  C   UNL     1      31.844 -10.353 -22.151  0.00  0.00    +0.016 C 
ATOM     13  C   UNL     1      33.495 -11.209 -23.726  0.00  0.00    +0.099 C 
ATOM     14  C   UNL     1      32.423 -11.429 -22.822  0.00  0.00    +0.099 C 
ATOM     15  C   UNL     1      33.571 -13.471 -24.146  0.00  0.00    +0.119 C 
ATOM     16  C   UNL     1      32.536 -13.683 -23.274  0.00  0.00    +0.119 C 
ATOM     17  H   UNL     1      31.153  -7.928 -24.592  0.00  0.00    -0.084 HD
ATOM     18  H   UNL     1      30.796  -6.263 -24.611  0.00  0.00    -0.084 HD
ENDROOT
TORSDOF 0
ENDMDL
