MODEL 1
REMARK VINA RESULT:     -10.8      0.000      0.000
REMARK  Name = 11430856
REMARK  10 active torsions:
REMARK  status: ('A' for Active; 'I' for Inactive)
REMARK    1  A    between atoms: N_1  and  C_19
REMARK    2  A    between atoms: N_2  and  C_8
REMARK    3  A    between atoms: C_11  and  N_15
REMARK    4  A    between atoms: C_19  and  C_20
REMARK    5  A    between atoms: C_20  and  C_21
REMARK    6  A    between atoms: C_21  and  C_22
REMARK    7  A    between atoms: C_22  and  N_23
REMARK    8  A    between atoms: N_23  and  S_25
REMARK    9  A    between atoms: S_25  and  C_28
REMARK   10  A    between atoms: C_28  and  C_29
REMARK                            x       y       z     vdW  Elec       q    Type
REMARK                         _______ _______ _______ _____ _____    ______ ____
ROOT
ATOM      1  N   UNL     1      35.863 -20.646 -19.294  0.00  0.00    +0.389 N 
ATOM      2  N   UNL     1      35.253 -19.208 -21.686  0.00  0.00    -0.312 N 
ATOM      3  C   UNL     1      34.631 -20.932 -20.039  0.00  0.00    -0.055 C 
ATOM      4  C   UNL     1      36.932 -20.266 -20.224  0.00  0.00    -0.055 C 
ATOM      5  C   UNL     1      34.170 -19.706 -20.831  0.00  0.00    +0.068 C 
ATOM      6  C   UNL     1      36.549 -19.017 -21.022  0.00  0.00    +0.068 C 
ATOM      7  H   UNL     1      35.689 -19.870 -18.656  0.00  0.00    -0.080 HD
ENDROOT
BRANCH   2   8
ATOM      8  C   UNL     1      34.952 -18.397 -22.786  0.00  0.00    +0.049 C 
ATOM      9  C   UNL     1      34.823 -17.018 -22.622  0.00  0.00    +0.029 C 
ATOM     10  C   UNL     1      34.784 -18.969 -24.047  0.00  0.00    +0.015 C 
ATOM     11  C   UNL     1      34.525 -16.211 -23.719  0.00  0.00    +0.052 C 
ATOM     12  C   UNL     1      34.486 -18.160 -25.145  0.00  0.00    +0.003 C 
ATOM     13  C   UNL     1      34.357 -16.781 -24.981  0.00  0.00    +0.015 C 
BRANCH  11  15
ATOM     14  O   UNL     1      32.712 -14.241 -25.095  0.00  0.00    -0.275 OA
ATOM     15  N   UNL     1      34.395 -14.831 -23.555  0.00  0.00    -0.284 N 
ATOM     16  C   UNL     1      33.531 -13.957 -24.227  0.00  0.00    +0.227 C 
ATOM     17  C   UNL     1      33.698 -12.534 -23.758  0.00  0.00    +0.095 C 
ATOM     18  H   UNL     1      34.985 -14.420 -22.883  0.00  0.00    +0.155 HD
ENDBRANCH  11  15
ENDBRANCH   2   8
BRANCH   1  19
ATOM     19  C   UNL     1      36.263 -21.807 -18.500  0.00  0.00    -0.077 C 
BRANCH  19  20
ATOM     20  C   UNL     1      36.764 -21.405 -17.111  0.00  0.00    -0.021 C 
BRANCH  20  21
ATOM     21  C   UNL     1      37.827 -22.363 -16.556  0.00  0.00    +0.017 C 
BRANCH  21  22
ATOM     22  C   UNL     1      37.400 -23.009 -15.242  0.00  0.00    +0.091 C 
BRANCH  22  23
ATOM     23  N   UNL     1      37.606 -24.467 -15.297  0.00  0.00    -0.183 NA
ATOM     24  H   UNL     1      37.671 -24.724 -16.281  0.00  0.00    +0.148 HD
BRANCH  23  25
ATOM     25  S   UNL     1      36.435 -25.494 -14.587  0.00  0.00    +0.041 S 
ATOM     26  O   UNL     1      37.033 -26.196 -13.459  0.00  0.00    -0.158 OA
ATOM     27  O   UNL     1      35.791 -26.248 -15.654  0.00  0.00    -0.158 OA
BRANCH  25  28
ATOM     28  C   UNL     1      35.279 -24.322 -13.971  0.00  0.00    +0.169 C 
BRANCH  28  29
ATOM     29  C   UNL     1      33.957 -24.401 -14.733  0.00  0.00    +0.025 C 
ATOM     30  C   UNL     1      32.769 -24.337 -13.764  0.00  0.00    +0.002 C 
ATOM     31  C   UNL     1      33.869 -23.285 -15.782  0.00  0.00    +0.002 C 
ATOM     32  C   UNL     1      31.435 -24.362 -14.506  0.00  0.00    +0.000 C 
ATOM     33  C   UNL     1      32.533 -23.312 -16.521  0.00  0.00    +0.000 C 
ATOM     34  C   UNL     1      31.354 -23.256 -15.555  0.00  0.00    +0.000 C 
ENDBRANCH  28  29
ENDBRANCH  25  28
ENDBRANCH  23  25
ENDBRANCH  22  23
ENDBRANCH  21  22
ENDBRANCH  20  21
ENDBRANCH  19  20
ENDBRANCH   1  19
TORSDOF 10
ENDMDL
MODEL 2
REMARK VINA RESULT:     -10.5      5.039      9.433
REMARK  Name = 11430856
REMARK  10 active torsions:
REMARK  status: ('A' for Active; 'I' for Inactive)
REMARK    1  A    between atoms: N_1  and  C_19
REMARK    2  A    between atoms: N_2  and  C_8
REMARK    3  A    between atoms: C_11  and  N_15
REMARK    4  A    between atoms: C_19  and  C_20
REMARK    5  A    between atoms: C_20  and  C_21
REMARK    6  A    between atoms: C_21  and  C_22
REMARK    7  A    between atoms: C_22  and  N_23
REMARK    8  A    between atoms: N_23  and  S_25
REMARK    9  A    between atoms: S_25  and  C_28
REMARK   10  A    between atoms: C_28  and  C_29
REMARK                            x       y       z     vdW  Elec       q    Type
REMARK                         _______ _______ _______ _____ _____    ______ ____
ROOT
ATOM      1  N   UNL     1      32.379 -12.931 -23.193  0.00  0.00    +0.389 N 
ATOM      2  N   UNL     1      32.321 -10.233 -22.257  0.00  0.00    -0.312 N 
ATOM      3  C   UNL     1      33.432 -11.986 -23.584  0.00  0.00    -0.055 C 
ATOM      4  C   UNL     1      31.914 -12.627 -21.835  0.00  0.00    -0.055 C 
ATOM      5  C   UNL     1      32.914 -10.546 -23.560  0.00  0.00    +0.068 C 
ATOM      6  C   UNL     1      31.345 -11.208 -21.753  0.00  0.00    +0.068 C 
ATOM      7  H   UNL     1      31.595 -12.836 -23.839  0.00  0.00    -0.080 HD
ENDROOT
BRANCH   2   8
ATOM      8  C   UNL     1      32.180  -8.899 -21.860  0.00  0.00    +0.049 C 
ATOM      9  C   UNL     1      31.761  -7.937 -22.779  0.00  0.00    +0.029 C 
ATOM     10  C   UNL     1      32.459  -8.530 -20.544  0.00  0.00    +0.015 C 
ATOM     11  C   UNL     1      31.620  -6.608 -22.383  0.00  0.00    +0.052 C 
ATOM     12  C   UNL     1      32.318  -7.200 -20.147  0.00  0.00    +0.003 C 
ATOM     13  C   UNL     1      31.898  -6.239 -21.066  0.00  0.00    +0.015 C 
BRANCH  11  15
ATOM     14  O   UNL     1      32.967  -5.554 -24.860  0.00  0.00    -0.275 OA
ATOM     15  N   UNL     1      31.201  -5.646 -23.302  0.00  0.00    -0.284 N 
ATOM     16  C   UNL     1      31.873  -5.190 -24.444  0.00  0.00    +0.227 C 
ATOM     17  C   UNL     1      31.079  -4.138 -25.178  0.00  0.00    +0.095 C 
ATOM     18  H   UNL     1      30.323  -5.236 -23.127  0.00  0.00    +0.155 HD
ENDBRANCH  11  15
ENDBRANCH   2   8
BRANCH   1  19
ATOM     19  C   UNL     1      32.869 -14.307 -23.271  0.00  0.00    -0.077 C 
BRANCH  19  20
ATOM     20  C   UNL     1      33.331 -14.670 -24.683  0.00  0.00    -0.021 C 
BRANCH  20  21
ATOM     21  C   UNL     1      34.231 -15.913 -24.719  0.00  0.00    +0.017 C 
BRANCH  21  22
ATOM     22  C   UNL     1      35.053 -16.075 -23.443  0.00  0.00    +0.091 C 
BRANCH  22  23
ATOM     23  N   UNL     1      35.537 -17.461 -23.317  0.00  0.00    -0.183 NA
ATOM     24  H   UNL     1      34.872 -18.057 -23.809  0.00  0.00    +0.148 HD
BRANCH  23  25
ATOM     25  S   UNL     1      35.745 -18.125 -21.754  0.00  0.00    +0.041 S 
ATOM     26  O   UNL     1      35.257 -17.178 -20.760  0.00  0.00    -0.158 OA
ATOM     27  O   UNL     1      37.104 -18.641 -21.661  0.00  0.00    -0.158 OA
BRANCH  25  28
ATOM     28  C   UNL     1      34.643 -19.494 -21.814  0.00  0.00    +0.169 C 
BRANCH  28  29
ATOM     29  C   UNL     1      34.518 -20.160 -20.445  0.00  0.00    +0.025 C 
ATOM     30  C   UNL     1      33.192 -20.922 -20.332  0.00  0.00    +0.002 C 
ATOM     31  C   UNL     1      35.710 -21.091 -20.184  0.00  0.00    +0.002 C 
ATOM     32  C   UNL     1      33.067 -21.640 -18.990  0.00  0.00    +0.000 C 
ATOM     33  C   UNL     1      35.581 -21.808 -18.843  0.00  0.00    +0.000 C 
ATOM     34  C   UNL     1      34.257 -22.559 -18.731  0.00  0.00    +0.000 C 
ENDBRANCH  28  29
ENDBRANCH  25  28
ENDBRANCH  23  25
ENDBRANCH  22  23
ENDBRANCH  21  22
ENDBRANCH  20  21
ENDBRANCH  19  20
ENDBRANCH   1  19
TORSDOF 10
ENDMDL
MODEL 3
REMARK VINA RESULT:     -10.4      1.410      2.219
REMARK  Name = 11430856
REMARK  10 active torsions:
REMARK  status: ('A' for Active; 'I' for Inactive)
REMARK    1  A    between atoms: N_1  and  C_19
REMARK    2  A    between atoms: N_2  and  C_8
REMARK    3  A    between atoms: C_11  and  N_15
REMARK    4  A    between atoms: C_19  and  C_20
REMARK    5  A    between atoms: C_20  and  C_21
REMARK    6  A    between atoms: C_21  and  C_22
REMARK    7  A    between atoms: C_22  and  N_23
REMARK    8  A    between atoms: N_23  and  S_25
REMARK    9  A    between atoms: S_25  and  C_28
REMARK   10  A    between atoms: C_28  and  C_29
REMARK                            x       y       z     vdW  Elec       q    Type
REMARK                         _______ _______ _______ _____ _____    ______ ____
ROOT
ATOM      1  N   UNL     1      35.586 -20.848 -20.636  0.00  0.00    +0.389 N 
ATOM      2  N   UNL     1      34.928 -18.108 -21.102  0.00  0.00    -0.312 N 
ATOM      3  C   UNL     1      36.609 -19.804 -20.499  0.00  0.00    -0.055 C 
ATOM      4  C   UNL     1      34.277 -20.321 -20.232  0.00  0.00    -0.055 C 
ATOM      5  C   UNL     1      36.282 -18.596 -21.379  0.00  0.00    +0.068 C 
ATOM      6  C   UNL     1      33.873 -19.129 -21.104  0.00  0.00    +0.068 C 
ATOM      7  H   UNL     1      35.538 -21.136 -21.613  0.00  0.00    -0.080 HD
ENDROOT
BRANCH   2   8
ATOM      8  C   UNL     1      34.576 -16.799 -21.451  0.00  0.00    +0.049 C 
ATOM      9  C   UNL     1      34.114 -16.520 -22.737  0.00  0.00    +0.029 C 
ATOM     10  C   UNL     1      34.686 -15.775 -20.511  0.00  0.00    +0.015 C 
ATOM     11  C   UNL     1      33.762 -15.216 -23.083  0.00  0.00    +0.052 C 
ATOM     12  C   UNL     1      34.334 -14.470 -20.857  0.00  0.00    +0.003 C 
ATOM     13  C   UNL     1      33.872 -14.190 -22.143  0.00  0.00    +0.015 C 
BRANCH  11  15
ATOM     14  O   UNL     1      34.460 -16.475 -25.727  0.00  0.00    -0.275 OA
ATOM     15  N   UNL     1      33.301 -14.936 -24.369  0.00  0.00    -0.284 N 
ATOM     16  C   UNL     1      33.662 -15.556 -25.572  0.00  0.00    +0.227 C 
ATOM     17  C   UNL     1      32.933 -14.960 -26.751  0.00  0.00    +0.095 C 
ATOM     18  H   UNL     1      32.638 -14.211 -24.441  0.00  0.00    +0.155 HD
ENDBRANCH  11  15
ENDBRANCH   2   8
BRANCH   1  19
ATOM     19  C   UNL     1      35.937 -22.019 -19.832  0.00  0.00    -0.077 C 
BRANCH  19  20
ATOM     20  C   UNL     1      35.644 -21.802 -18.347  0.00  0.00    -0.021 C 
BRANCH  20  21
ATOM     21  C   UNL     1      36.914 -21.609 -17.507  0.00  0.00    +0.017 C 
BRANCH  21  22
ATOM     22  C   UNL     1      36.776 -22.183 -16.100  0.00  0.00    +0.091 C 
BRANCH  22  23
ATOM     23  N   UNL     1      37.184 -23.599 -16.082  0.00  0.00    -0.183 NA
ATOM     24  H   UNL     1      36.942 -23.992 -16.991  0.00  0.00    +0.148 HD
BRANCH  23  25
ATOM     25  S   UNL     1      36.519 -24.635 -14.893  0.00  0.00    +0.041 S 
ATOM     26  O   UNL     1      37.508 -24.866 -13.849  0.00  0.00    -0.158 OA
ATOM     27  O   UNL     1      35.904 -25.766 -15.575  0.00  0.00    -0.158 OA
BRANCH  25  28
ATOM     28  C   UNL     1      35.236 -23.626 -14.239  0.00  0.00    +0.169 C 
BRANCH  28  29
ATOM     29  C   UNL     1      33.867 -24.088 -14.736  0.00  0.00    +0.025 C 
ATOM     30  C   UNL     1      32.901 -24.284 -13.559  0.00  0.00    +0.002 C 
ATOM     31  C   UNL     1      33.295 -23.092 -15.754  0.00  0.00    +0.002 C 
ATOM     32  C   UNL     1      31.510 -24.695 -14.035  0.00  0.00    +0.000 C 
ATOM     33  C   UNL     1      31.903 -23.505 -16.225  0.00  0.00    +0.000 C 
ATOM     34  C   UNL     1      30.948 -23.707 -15.053  0.00  0.00    +0.000 C 
ENDBRANCH  28  29
ENDBRANCH  25  28
ENDBRANCH  23  25
ENDBRANCH  22  23
ENDBRANCH  21  22
ENDBRANCH  20  21
ENDBRANCH  19  20
ENDBRANCH   1  19
TORSDOF 10
ENDMDL
MODEL 4
REMARK VINA RESULT:     -10.3      2.077      3.286
REMARK  Name = 11430856
REMARK  10 active torsions:
REMARK  status: ('A' for Active; 'I' for Inactive)
REMARK    1  A    between atoms: N_1  and  C_19
REMARK    2  A    between atoms: N_2  and  C_8
REMARK    3  A    between atoms: C_11  and  N_15
REMARK    4  A    between atoms: C_19  and  C_20
REMARK    5  A    between atoms: C_20  and  C_21
REMARK    6  A    between atoms: C_21  and  C_22
REMARK    7  A    between atoms: C_22  and  N_23
REMARK    8  A    between atoms: N_23  and  S_25
REMARK    9  A    between atoms: S_25  and  C_28
REMARK   10  A    between atoms: C_28  and  C_29
REMARK                            x       y       z     vdW  Elec       q    Type
REMARK                         _______ _______ _______ _____ _____    ______ ____
ROOT
ATOM      1  N   UNL     1      35.534 -18.738 -21.672  0.00  0.00    +0.389 N 
ATOM      2  N   UNL     1      34.419 -16.691 -23.324  0.00  0.00    -0.312 N 
ATOM      3  C   UNL     1      34.766 -17.637 -21.076  0.00  0.00    -0.055 C 
ATOM      4  C   UNL     1      34.991 -19.067 -22.995  0.00  0.00    -0.055 C 
ATOM      5  C   UNL     1      34.833 -16.384 -21.952  0.00  0.00    +0.068 C 
ATOM      6  C   UNL     1      35.065 -17.861 -23.935  0.00  0.00    +0.068 C 
ATOM      7  H   UNL     1      36.504 -18.443 -21.778  0.00  0.00    -0.080 HD
ENDROOT
BRANCH   2   8
ATOM      8  C   UNL     1      33.993 -15.660 -24.169  0.00  0.00    +0.049 C 
ATOM      9  C   UNL     1      33.988 -14.342 -23.714  0.00  0.00    +0.029 C 
ATOM     10  C   UNL     1      33.574 -15.952 -25.467  0.00  0.00    +0.015 C 
ATOM     11  C   UNL     1      33.565 -13.315 -24.557  0.00  0.00    +0.052 C 
ATOM     12  C   UNL     1      33.150 -14.924 -26.310  0.00  0.00    +0.003 C 
ATOM     13  C   UNL     1      33.146 -13.606 -25.855  0.00  0.00    +0.015 C 
BRANCH  11  15
ATOM     14  O   UNL     1      35.021 -10.888 -25.581  0.00  0.00    -0.275 OA
ATOM     15  N   UNL     1      33.559 -11.996 -24.101  0.00  0.00    -0.284 N 
ATOM     16  C   UNL     1      34.262 -10.900 -24.617  0.00  0.00    +0.227 C 
ATOM     17  C   UNL     1      33.984  -9.639 -23.837  0.00  0.00    +0.095 C 
ATOM     18  H   UNL     1      32.991 -11.813 -23.318  0.00  0.00    +0.155 HD
ENDBRANCH  11  15
ENDBRANCH   2   8
BRANCH   1  19
ATOM     19  C   UNL     1      35.508 -19.913 -20.801  0.00  0.00    -0.077 C 
BRANCH  19  20
ATOM     20  C   UNL     1      34.117 -20.157 -20.211  0.00  0.00    -0.021 C 
BRANCH  20  21
ATOM     21  C   UNL     1      33.920 -21.597 -19.717  0.00  0.00    +0.017 C 
BRANCH  21  22
ATOM     22  C   UNL     1      34.970 -22.010 -18.691  0.00  0.00    +0.091 C 
BRANCH  22  23
ATOM     23  N   UNL     1      34.444 -23.075 -17.819  0.00  0.00    -0.183 NA
ATOM     24  H   UNL     1      33.446 -22.903 -17.704  0.00  0.00    +0.148 HD
BRANCH  23  25
ATOM     25  S   UNL     1      35.104 -23.261 -16.251  0.00  0.00    +0.041 S 
ATOM     26  O   UNL     1      36.221 -22.340 -16.087  0.00  0.00    -0.158 OA
ATOM     27  O   UNL     1      35.294 -24.685 -16.009  0.00  0.00    -0.158 OA
BRANCH  25  28
ATOM     28  C   UNL     1      33.769 -22.709 -15.249  0.00  0.00    +0.169 C 
BRANCH  28  29
ATOM     29  C   UNL     1      32.645 -23.743 -15.214  0.00  0.00    +0.025 C 
ATOM     30  C   UNL     1      32.353 -24.176 -13.771  0.00  0.00    +0.002 C 
ATOM     31  C   UNL     1      31.380 -23.193 -15.887  0.00  0.00    +0.002 C 
ATOM     32  C   UNL     1      31.196 -25.171 -13.705  0.00  0.00    +0.000 C 
ATOM     33  C   UNL     1      30.226 -24.190 -15.817  0.00  0.00    +0.000 C 
ATOM     34  C   UNL     1      29.943 -24.624 -14.382  0.00  0.00    +0.000 C 
ENDBRANCH  28  29
ENDBRANCH  25  28
ENDBRANCH  23  25
ENDBRANCH  22  23
ENDBRANCH  21  22
ENDBRANCH  20  21
ENDBRANCH  19  20
ENDBRANCH   1  19
TORSDOF 10
ENDMDL
MODEL 5
REMARK VINA RESULT:     -10.2      4.696      8.825
REMARK  Name = 11430856
REMARK  10 active torsions:
REMARK  status: ('A' for Active; 'I' for Inactive)
REMARK    1  A    between atoms: N_1  and  C_19
REMARK    2  A    between atoms: N_2  and  C_8
REMARK    3  A    between atoms: C_11  and  N_15
REMARK    4  A    between atoms: C_19  and  C_20
REMARK    5  A    between atoms: C_20  and  C_21
REMARK    6  A    between atoms: C_21  and  C_22
REMARK    7  A    between atoms: C_22  and  N_23
REMARK    8  A    between atoms: N_23  and  S_25
REMARK    9  A    between atoms: S_25  and  C_28
REMARK   10  A    between atoms: C_28  and  C_29
REMARK                            x       y       z     vdW  Elec       q    Type
REMARK                         _______ _______ _______ _____ _____    ______ ____
ROOT
ATOM      1  N   UNL     1      32.990 -13.800 -23.876  0.00  0.00    +0.389 N 
ATOM      2  N   UNL     1      33.489 -10.992 -23.729  0.00  0.00    -0.312 N 
ATOM      3  C   UNL     1      34.110 -13.205 -24.615  0.00  0.00    -0.055 C 
ATOM      4  C   UNL     1      32.779 -13.075 -22.618  0.00  0.00    -0.055 C 
ATOM      5  C   UNL     1      33.832 -11.736 -24.944  0.00  0.00    +0.068 C 
ATOM      6  C   UNL     1      32.456 -11.602 -22.881  0.00  0.00    +0.068 C 
ATOM      7  H   UNL     1      32.146 -13.728 -24.444  0.00  0.00    -0.080 HD
ENDROOT
BRANCH   2   8
ATOM      8  C   UNL     1      33.617  -9.599 -23.708  0.00  0.00    +0.049 C 
ATOM      9  C   UNL     1      32.546  -8.805 -23.298  0.00  0.00    +0.029 C 
ATOM     10  C   UNL     1      34.817  -9.004 -24.097  0.00  0.00    +0.015 C 
ATOM     11  C   UNL     1      32.675  -7.417 -23.276  0.00  0.00    +0.052 C 
ATOM     12  C   UNL     1      34.946  -7.615 -24.075  0.00  0.00    +0.003 C 
ATOM     13  C   UNL     1      33.875  -6.821 -23.665  0.00  0.00    +0.015 C 
BRANCH  11  15
ATOM     14  O   UNL     1      32.025  -6.253 -20.576  0.00  0.00    -0.275 OA
ATOM     15  N   UNL     1      31.604  -6.623 -22.866  0.00  0.00    -0.284 N 
ATOM     16  C   UNL     1      31.348  -6.107 -21.589  0.00  0.00    +0.227 C 
ATOM     17  C   UNL     1      30.079  -5.292 -21.558  0.00  0.00    +0.095 C 
ATOM     18  H   UNL     1      30.944  -6.397 -23.561  0.00  0.00    +0.155 HD
ENDBRANCH  11  15
ENDBRANCH   2   8
BRANCH   1  19
ATOM     19  C   UNL     1      33.243 -15.217 -23.615  0.00  0.00    -0.077 C 
BRANCH  19  20
ATOM     20  C   UNL     1      34.429 -15.745 -24.423  0.00  0.00    -0.021 C 
BRANCH  20  21
ATOM     21  C   UNL     1      34.203 -17.164 -24.963  0.00  0.00    +0.017 C 
BRANCH  21  22
ATOM     22  C   UNL     1      34.968 -18.219 -24.169  0.00  0.00    +0.091 C 
BRANCH  22  23
ATOM     23  N   UNL     1      35.831 -17.577 -23.162  0.00  0.00    -0.183 NA
ATOM     24  H   UNL     1      36.773 -17.543 -23.551  0.00  0.00    +0.148 HD
BRANCH  23  25
ATOM     25  S   UNL     1      35.955 -18.283 -21.608  0.00  0.00    +0.041 S 
ATOM     26  O   UNL     1      35.385 -17.376 -20.621  0.00  0.00    -0.158 OA
ATOM     27  O   UNL     1      37.316 -18.774 -21.444  0.00  0.00    -0.158 OA
BRANCH  25  28
ATOM     28  C   UNL     1      34.889 -19.672 -21.777  0.00  0.00    +0.169 C 
BRANCH  28  29
ATOM     29  C   UNL     1      34.557 -20.278 -20.415  0.00  0.00    +0.025 C 
ATOM     30  C   UNL     1      33.116 -20.804 -20.394  0.00  0.00    +0.002 C 
ATOM     31  C   UNL     1      35.552 -21.391 -20.060  0.00  0.00    +0.002 C 
ATOM     32  C   UNL     1      32.777 -21.463 -19.058  0.00  0.00    +0.000 C 
ATOM     33  C   UNL     1      35.208 -22.049 -18.726  0.00  0.00    +0.000 C 
ATOM     34  C   UNL     1      33.772 -22.564 -18.705  0.00  0.00    +0.000 C 
ENDBRANCH  28  29
ENDBRANCH  25  28
ENDBRANCH  23  25
ENDBRANCH  22  23
ENDBRANCH  21  22
ENDBRANCH  20  21
ENDBRANCH  19  20
ENDBRANCH   1  19
TORSDOF 10
ENDMDL
MODEL 6
REMARK VINA RESULT:     -10.2      3.688     10.564
REMARK  Name = 11430856
REMARK  10 active torsions:
REMARK  status: ('A' for Active; 'I' for Inactive)
REMARK    1  A    between atoms: N_1  and  C_19
REMARK    2  A    between atoms: N_2  and  C_8
REMARK    3  A    between atoms: C_11  and  N_15
REMARK    4  A    between atoms: C_19  and  C_20
REMARK    5  A    between atoms: C_20  and  C_21
REMARK    6  A    between atoms: C_21  and  C_22
REMARK    7  A    between atoms: C_22  and  N_23
REMARK    8  A    between atoms: N_23  and  S_25
REMARK    9  A    between atoms: S_25  and  C_28
REMARK   10  A    between atoms: C_28  and  C_29
REMARK                            x       y       z     vdW  Elec       q    Type
REMARK                         _______ _______ _______ _____ _____    ______ ____
ROOT
ATOM      1  N   UNL     1      35.629 -22.421 -18.143  0.00  0.00    +0.389 N 
ATOM      2  N   UNL     1      33.368 -22.972 -16.487  0.00  0.00    -0.312 N 
ATOM      3  C   UNL     1      34.272 -22.124 -18.616  0.00  0.00    -0.055 C 
ATOM      4  C   UNL     1      35.707 -22.221 -16.691  0.00  0.00    -0.055 C 
ATOM      5  C   UNL     1      33.244 -23.039 -17.946  0.00  0.00    +0.068 C 
ATOM      6  C   UNL     1      34.728 -23.140 -15.957  0.00  0.00    +0.068 C 
ATOM      7  H   UNL     1      35.846 -23.394 -18.354  0.00  0.00    -0.080 HD
ENDROOT
BRANCH   2   8
ATOM      8  C   UNL     1      32.295 -23.365 -15.680  0.00  0.00    +0.049 C 
ATOM      9  C   UNL     1      31.026 -22.827 -15.894  0.00  0.00    +0.029 C 
ATOM     10  C   UNL     1      32.495 -24.297 -14.662  0.00  0.00    +0.015 C 
ATOM     11  C   UNL     1      29.957 -23.220 -15.090  0.00  0.00    +0.052 C 
ATOM     12  C   UNL     1      31.425 -24.691 -13.857  0.00  0.00    +0.003 C 
ATOM     13  C   UNL     1      30.156 -24.152 -14.071  0.00  0.00    +0.015 C 
BRANCH  11  15
ATOM     14  O   UNL     1      27.981 -23.694 -17.310  0.00  0.00    -0.275 OA
ATOM     15  N   UNL     1      28.688 -22.681 -15.303  0.00  0.00    -0.284 N 
ATOM     16  C   UNL     1      27.806 -22.936 -16.361  0.00  0.00    +0.227 C 
ATOM     17  C   UNL     1      26.527 -22.150 -16.225  0.00  0.00    +0.095 C 
ATOM     18  H   UNL     1      28.373 -22.040 -14.626  0.00  0.00    +0.155 HD
ENDBRANCH  11  15
ENDBRANCH   2   8
BRANCH   1  19
ATOM     19  C   UNL     1      36.608 -21.577 -18.830  0.00  0.00    -0.077 C 
BRANCH  19  20
ATOM     20  C   UNL     1      35.988 -20.826 -20.009  0.00  0.00    -0.021 C 
BRANCH  20  21
ATOM     21  C   UNL     1      36.884 -19.699 -20.540  0.00  0.00    +0.017 C 
BRANCH  21  22
ATOM     22  C   UNL     1      36.105 -18.665 -21.347  0.00  0.00    +0.091 C 
BRANCH  22  23
ATOM     23  N   UNL     1      35.687 -17.548 -20.482  0.00  0.00    -0.183 NA
ATOM     24  H   UNL     1      35.242 -17.955 -19.659  0.00  0.00    +0.148 HD
BRANCH  23  25
ATOM     25  S   UNL     1      34.607 -16.377 -21.107  0.00  0.00    +0.041 S 
ATOM     26  O   UNL     1      34.864 -15.095 -20.465  0.00  0.00    -0.158 OA
ATOM     27  O   UNL     1      33.266 -16.944 -21.086  0.00  0.00    -0.158 OA
BRANCH  25  28
ATOM     28  C   UNL     1      35.136 -16.283 -22.781  0.00  0.00    +0.169 C 
BRANCH  28  29
ATOM     29  C   UNL     1      34.033 -15.718 -23.675  0.00  0.00    +0.025 C 
ATOM     30  C   UNL     1      34.010 -14.185 -23.604  0.00  0.00    +0.002 C 
ATOM     31  C   UNL     1      34.209 -16.197 -25.122  0.00  0.00    +0.002 C 
ATOM     32  C   UNL     1      32.949 -13.594 -24.530  0.00  0.00    +0.000 C 
ATOM     33  C   UNL     1      33.148 -15.602 -26.045  0.00  0.00    +0.000 C 
ATOM     34  C   UNL     1      33.123 -14.079 -25.966  0.00  0.00    +0.000 C 
ENDBRANCH  28  29
ENDBRANCH  25  28
ENDBRANCH  23  25
ENDBRANCH  22  23
ENDBRANCH  21  22
ENDBRANCH  20  21
ENDBRANCH  19  20
ENDBRANCH   1  19
TORSDOF 10
ENDMDL
MODEL 7
REMARK VINA RESULT:     -10.1      5.963     13.784
REMARK  Name = 11430856
REMARK  10 active torsions:
REMARK  status: ('A' for Active; 'I' for Inactive)
REMARK    1  A    between atoms: N_1  and  C_19
REMARK    2  A    between atoms: N_2  and  C_8
REMARK    3  A    between atoms: C_11  and  N_15
REMARK    4  A    between atoms: C_19  and  C_20
REMARK    5  A    between atoms: C_20  and  C_21
REMARK    6  A    between atoms: C_21  and  C_22
REMARK    7  A    between atoms: C_22  and  N_23
REMARK    8  A    between atoms: N_23  and  S_25
REMARK    9  A    between atoms: S_25  and  C_28
REMARK   10  A    between atoms: C_28  and  C_29
REMARK                            x       y       z     vdW  Elec       q    Type
REMARK                         _______ _______ _______ _____ _____    ______ ____
ROOT
ATOM      1  N   UNL     1      32.578 -13.016 -21.584  0.00  0.00    +0.389 N 
ATOM      2  N   UNL     1      33.538 -15.633 -22.207  0.00  0.00    -0.312 N 
ATOM      3  C   UNL     1      32.390 -13.576 -22.928  0.00  0.00    -0.055 C 
ATOM      4  C   UNL     1      32.514 -14.087 -20.583  0.00  0.00    -0.055 C 
ATOM      5  C   UNL     1      33.476 -14.606 -23.251  0.00  0.00    +0.068 C 
ATOM      6  C   UNL     1      33.604 -15.133 -20.827  0.00  0.00    +0.068 C 
ATOM      7  H   UNL     1      33.496 -12.575 -21.537  0.00  0.00    -0.080 HD
ENDROOT
BRANCH   2   8
ATOM      8  C   UNL     1      34.126 -16.872 -22.485  0.00  0.00    +0.049 C 
ATOM      9  C   UNL     1      34.149 -17.869 -21.510  0.00  0.00    +0.029 C 
ATOM     10  C   UNL     1      34.689 -17.110 -23.739  0.00  0.00    +0.015 C 
ATOM     11  C   UNL     1      34.734 -19.103 -21.788  0.00  0.00    +0.052 C 
ATOM     12  C   UNL     1      35.274 -18.346 -24.017  0.00  0.00    +0.003 C 
ATOM     13  C   UNL     1      35.297 -19.342 -23.042  0.00  0.00    +0.015 C 
BRANCH  11  15
ATOM     14  O   UNL     1      32.486 -20.392 -20.256  0.00  0.00    -0.275 OA
ATOM     15  N   UNL     1      34.758 -20.100 -20.812  0.00  0.00    -0.284 N 
ATOM     16  C   UNL     1      33.675 -20.665 -20.126  0.00  0.00    +0.227 C 
ATOM     17  C   UNL     1      34.122 -21.720 -19.145  0.00  0.00    +0.095 C 
ATOM     18  H   UNL     1      35.647 -20.450 -20.575  0.00  0.00    +0.155 HD
ENDBRANCH  11  15
ENDBRANCH   2   8
BRANCH   1  19
ATOM     19  C   UNL     1      31.567 -11.995 -21.309  0.00  0.00    -0.077 C 
BRANCH  19  20
ATOM     20  C   UNL     1      31.629 -11.506 -19.861  0.00  0.00    -0.021 C 
BRANCH  20  21
ATOM     21  C   UNL     1      31.252 -10.025 -19.711  0.00  0.00    +0.017 C 
BRANCH  21  22
ATOM     22  C   UNL     1      32.391  -9.091 -20.109  0.00  0.00    +0.091 C 
BRANCH  22  23
ATOM     23  N   UNL     1      31.936  -8.135 -21.133  0.00  0.00    -0.183 NA
ATOM     24  H   UNL     1      30.922  -8.065 -21.049  0.00  0.00    +0.148 HD
BRANCH  23  25
ATOM     25  S   UNL     1      32.281  -8.458 -22.778  0.00  0.00    +0.041 S 
ATOM     26  O   UNL     1      31.038  -8.461 -23.539  0.00  0.00    -0.158 OA
ATOM     27  O   UNL     1      33.170  -9.610 -22.834  0.00  0.00    -0.158 OA
BRANCH  25  28
ATOM     28  C   UNL     1      33.207  -7.030 -23.221  0.00  0.00    +0.169 C 
BRANCH  28  29
ATOM     29  C   UNL     1      32.524  -6.261 -24.350  0.00  0.00    +0.025 C 
ATOM     30  C   UNL     1      31.705  -5.091 -23.790  0.00  0.00    +0.002 C 
ATOM     31  C   UNL     1      33.557  -5.768 -25.372  0.00  0.00    +0.002 C 
ATOM     32  C   UNL     1      31.054  -4.274 -24.905  0.00  0.00    +0.000 C 
ATOM     33  C   UNL     1      32.903  -4.950 -26.484  0.00  0.00    +0.000 C 
ATOM     34  C   UNL     1      32.083  -3.792 -25.923  0.00  0.00    +0.000 C 
ENDBRANCH  28  29
ENDBRANCH  25  28
ENDBRANCH  23  25
ENDBRANCH  22  23
ENDBRANCH  21  22
ENDBRANCH  20  21
ENDBRANCH  19  20
ENDBRANCH   1  19
TORSDOF 10
ENDMDL
MODEL 8
REMARK VINA RESULT:     -10.0      1.270      1.682
REMARK  Name = 11430856
REMARK  10 active torsions:
REMARK  status: ('A' for Active; 'I' for Inactive)
REMARK    1  A    between atoms: N_1  and  C_19
REMARK    2  A    between atoms: N_2  and  C_8
REMARK    3  A    between atoms: C_11  and  N_15
REMARK    4  A    between atoms: C_19  and  C_20
REMARK    5  A    between atoms: C_20  and  C_21
REMARK    6  A    between atoms: C_21  and  C_22
REMARK    7  A    between atoms: C_22  and  N_23
REMARK    8  A    between atoms: N_23  and  S_25
REMARK    9  A    between atoms: S_25  and  C_28
REMARK   10  A    between atoms: C_28  and  C_29
REMARK                            x       y       z     vdW  Elec       q    Type
REMARK                         _______ _______ _______ _____ _____    ______ ____
ROOT
ATOM      1  N   UNL     1      35.379 -21.235 -19.827  0.00  0.00    +0.389 N 
ATOM      2  N   UNL     1      34.921 -18.727 -21.115  0.00  0.00    -0.312 N 
ATOM      3  C   UNL     1      36.383 -20.166 -19.751  0.00  0.00    -0.055 C 
ATOM      4  C   UNL     1      34.032 -20.654 -19.861  0.00  0.00    -0.055 C 
ATOM      5  C   UNL     1      36.287 -19.236 -20.962  0.00  0.00    +0.068 C 
ATOM      6  C   UNL     1      33.858 -19.741 -21.077  0.00  0.00    +0.068 C 
ATOM      7  H   UNL     1      35.530 -21.768 -20.683  0.00  0.00    -0.080 HD
ENDROOT
BRANCH   2   8
ATOM      8  C   UNL     1      34.692 -17.563 -21.857  0.00  0.00    +0.049 C 
ATOM      9  C   UNL     1      34.012 -16.490 -21.280  0.00  0.00    +0.029 C 
ATOM     10  C   UNL     1      35.144 -17.476 -23.173  0.00  0.00    +0.015 C 
ATOM     11  C   UNL     1      33.785 -15.330 -22.020  0.00  0.00    +0.052 C 
ATOM     12  C   UNL     1      34.917 -16.315 -23.913  0.00  0.00    +0.003 C 
ATOM     13  C   UNL     1      34.237 -15.242 -23.336  0.00  0.00    +0.015 C 
BRANCH  11  15
ATOM     14  O   UNL     1      32.108 -13.172 -23.283  0.00  0.00    -0.275 OA
ATOM     15  N   UNL     1      33.105 -14.257 -21.443  0.00  0.00    -0.284 N 
ATOM     16  C   UNL     1      32.336 -13.276 -22.082  0.00  0.00    +0.227 C 
ATOM     17  C   UNL     1      31.764 -12.285 -21.100  0.00  0.00    +0.095 C 
ATOM     18  H   UNL     1      33.174 -14.179 -20.464  0.00  0.00    +0.155 HD
ENDBRANCH  11  15
ENDBRANCH   2   8
BRANCH   1  19
ATOM     19  C   UNL     1      35.515 -22.148 -18.692  0.00  0.00    -0.077 C 
BRANCH  19  20
ATOM     20  C   UNL     1      36.795 -21.885 -17.896  0.00  0.00    -0.021 C 
BRANCH  20  21
ATOM     21  C   UNL     1      36.610 -22.073 -16.384  0.00  0.00    +0.017 C 
BRANCH  21  22
ATOM     22  C   UNL     1      37.627 -23.040 -15.788  0.00  0.00    +0.091 C 
BRANCH  22  23
ATOM     23  N   UNL     1      37.241 -23.410 -14.415  0.00  0.00    -0.183 NA
ATOM     24  H   UNL     1      38.101 -23.595 -13.901  0.00  0.00    +0.148 HD
BRANCH  23  25
ATOM     25  S   UNL     1      36.216 -24.760 -14.180  0.00  0.00    +0.041 S 
ATOM     26  O   UNL     1      36.762 -25.600 -13.122  0.00  0.00    -0.158 OA
ATOM     27  O   UNL     1      35.922 -25.336 -15.486  0.00  0.00    -0.158 OA
BRANCH  25  28
ATOM     28  C   UNL     1      34.756 -23.982 -13.584  0.00  0.00    +0.169 C 
BRANCH  28  29
ATOM     29  C   UNL     1      33.557 -24.309 -14.473  0.00  0.00    +0.025 C 
ATOM     30  C   UNL     1      32.337 -24.681 -13.621  0.00  0.00    +0.002 C 
ATOM     31  C   UNL     1      33.237 -23.133 -15.405  0.00  0.00    +0.002 C 
ATOM     32  C   UNL     1      31.110 -24.961 -14.486  0.00  0.00    +0.000 C 
ATOM     33  C   UNL     1      32.009 -23.416 -16.267  0.00  0.00    +0.000 C 
ATOM     34  C   UNL     1      30.800 -23.793 -15.417  0.00  0.00    +0.000 C 
ENDBRANCH  28  29
ENDBRANCH  25  28
ENDBRANCH  23  25
ENDBRANCH  22  23
ENDBRANCH  21  22
ENDBRANCH  20  21
ENDBRANCH  19  20
ENDBRANCH   1  19
TORSDOF 10
ENDMDL
MODEL 9
REMARK VINA RESULT:     -10.0      3.255     11.774
REMARK  Name = 11430856
REMARK  10 active torsions:
REMARK  status: ('A' for Active; 'I' for Inactive)
REMARK    1  A    between atoms: N_1  and  C_19
REMARK    2  A    between atoms: N_2  and  C_8
REMARK    3  A    between atoms: C_11  and  N_15
REMARK    4  A    between atoms: C_19  and  C_20
REMARK    5  A    between atoms: C_20  and  C_21
REMARK    6  A    between atoms: C_21  and  C_22
REMARK    7  A    between atoms: C_22  and  N_23
REMARK    8  A    between atoms: N_23  and  S_25
REMARK    9  A    between atoms: S_25  and  C_28
REMARK   10  A    between atoms: C_28  and  C_29
REMARK                            x       y       z     vdW  Elec       q    Type
REMARK                         _______ _______ _______ _____ _____    ______ ____
ROOT
ATOM      1  N   UNL     1      34.842 -21.963 -18.086  0.00  0.00    +0.389 N 
ATOM      2  N   UNL     1      36.080 -23.164 -15.809  0.00  0.00    -0.312 N 
ATOM      3  C   UNL     1      36.305 -22.040 -17.989  0.00  0.00    -0.055 C 
ATOM      4  C   UNL     1      34.237 -23.137 -17.446  0.00  0.00    -0.055 C 
ATOM      5  C   UNL     1      36.757 -22.081 -16.528  0.00  0.00    +0.068 C 
ATOM      6  C   UNL     1      34.620 -23.214 -15.966  0.00  0.00    +0.068 C 
ATOM      7  H   UNL     1      34.524 -21.123 -17.603  0.00  0.00    -0.080 HD
ENDROOT
BRANCH   2   8
ATOM      8  C   UNL     1      36.630 -23.662 -14.623  0.00  0.00    +0.049 C 
ATOM      9  C   UNL     1      37.667 -24.593 -14.671  0.00  0.00    +0.029 C 
ATOM     10  C   UNL     1      36.142 -23.225 -13.392  0.00  0.00    +0.015 C 
ATOM     11  C   UNL     1      38.216 -25.088 -13.489  0.00  0.00    +0.052 C 
ATOM     12  C   UNL     1      36.692 -23.720 -12.208  0.00  0.00    +0.003 C 
ATOM     13  C   UNL     1      37.729 -24.651 -12.257  0.00  0.00    +0.015 C 
BRANCH  11  15
ATOM     14  O   UNL     1      40.976 -24.882 -14.673  0.00  0.00    -0.275 OA
ATOM     15  N   UNL     1      39.253 -26.021 -13.537  0.00  0.00    -0.284 N 
ATOM     16  C   UNL     1      40.525 -25.872 -14.106  0.00  0.00    +0.227 C 
ATOM     17  C   UNL     1      41.358 -27.119 -13.948  0.00  0.00    +0.095 C 
ATOM     18  H   UNL     1      39.068 -26.893 -13.120  0.00  0.00    +0.155 HD
ENDBRANCH  11  15
ENDBRANCH   2   8
BRANCH   1  19
ATOM     19  C   UNL     1      34.424 -21.869 -19.485  0.00  0.00    -0.077 C 
BRANCH  19  20
ATOM     20  C   UNL     1      35.235 -20.826 -20.255  0.00  0.00    -0.021 C 
BRANCH  20  21
ATOM     21  C   UNL     1      34.363 -19.727 -20.877  0.00  0.00    +0.017 C 
BRANCH  21  22
ATOM     22  C   UNL     1      35.191 -18.613 -21.510  0.00  0.00    +0.091 C 
BRANCH  22  23
ATOM     23  N   UNL     1      35.173 -17.412 -20.656  0.00  0.00    -0.183 NA
ATOM     24  H   UNL     1      34.695 -17.666 -19.792  0.00  0.00    +0.148 HD
BRANCH  23  25
ATOM     25  S   UNL     1      34.425 -15.991 -21.245  0.00  0.00    +0.041 S 
ATOM     26  O   UNL     1      35.025 -14.829 -20.602  0.00  0.00    -0.158 OA
ATOM     27  O   UNL     1      32.982 -16.186 -21.192  0.00  0.00    -0.158 OA
BRANCH  25  28
ATOM     28  C   UNL     1      34.919 -16.017 -22.932  0.00  0.00    +0.169 C 
BRANCH  28  29
ATOM     29  C   UNL     1      33.880 -15.333 -23.820  0.00  0.00    +0.025 C 
ATOM     30  C   UNL     1      34.086 -13.813 -23.821  0.00  0.00    +0.002 C 
ATOM     31  C   UNL     1      33.933 -15.895 -25.247  0.00  0.00    +0.002 C 
ATOM     32  C   UNL     1      33.092 -13.111 -24.744  0.00  0.00    +0.000 C 
ATOM     33  C   UNL     1      32.939 -15.189 -26.166  0.00  0.00    +0.000 C 
ATOM     34  C   UNL     1      33.141 -13.677 -26.160  0.00  0.00    +0.000 C 
ENDBRANCH  28  29
ENDBRANCH  25  28
ENDBRANCH  23  25
ENDBRANCH  22  23
ENDBRANCH  21  22
ENDBRANCH  20  21
ENDBRANCH  19  20
ENDBRANCH   1  19
TORSDOF 10
ENDMDL
