MODEL 1
REMARK VINA RESULT:      -9.7      0.000      0.000
REMARK  Name = 638278
REMARK  6 active torsions:
REMARK  status: ('A' for Active; 'I' for Inactive)
REMARK    1  A    between atoms: C_2  and  C_3
REMARK    2  A    between atoms: C_2  and  C_14
REMARK    3  A    between atoms: C_4  and  O_9
REMARK    4  A    between atoms: C_8  and  O_11
REMARK    5  A    between atoms: C_13  and  C_15
REMARK    6  A    between atoms: C_20  and  O_21
REMARK                            x       y       z     vdW  Elec       q    Type
REMARK                         _______ _______ _______ _____ _____    ______ ____
ROOT
ATOM      1  O   UNL     1      35.692 -16.395 -23.251  0.00  0.00    -0.286 OA
ATOM      2  C   UNL     1      34.911 -16.388 -22.305  0.00  0.00    +0.199 C 
ENDROOT
BRANCH   2   3
ATOM      3  C   UNL     1      33.939 -15.277 -22.163  0.00  0.00    +0.073 C 
ATOM      4  C   UNL     1      33.376 -14.704 -23.287  0.00  0.00    +0.140 C 
ATOM      5  C   UNL     1      33.621 -14.850 -20.888  0.00  0.00    +0.009 C 
ATOM      6  C   UNL     1      32.461 -13.663 -23.131  0.00  0.00    +0.073 C 
ATOM      7  C   UNL     1      32.705 -13.809 -20.732  0.00  0.00    +0.037 C 
ATOM      8  C   UNL     1      32.125 -13.216 -21.853  0.00  0.00    +0.137 C 
BRANCH   4   9
ATOM      9  O   UNL     1      33.689 -15.130 -24.544  0.00  0.00    -0.505 OA
ATOM     10  H   UNL     1      33.043 -15.567 -25.064  0.00  0.00    +0.292 HD
ENDBRANCH   4   9
BRANCH   8  11
ATOM     11  O   UNL     1      31.234 -12.199 -21.701  0.00  0.00    -0.505 OA
ATOM     12  H   UNL     1      31.336 -11.409 -22.194  0.00  0.00    +0.292 HD
ENDBRANCH   8  11
ENDBRANCH   2   3
BRANCH   2  14
ATOM     13  C   UNL     1      34.614 -18.752 -21.668  0.00  0.00    +0.003 C 
ATOM     14  C   UNL     1      34.868 -17.478 -21.291  0.00  0.00    +0.042 C 
BRANCH  13  15
ATOM     15  C   UNL     1      34.530 -19.891 -20.768  0.00  0.00    +0.000 C 
ATOM     16  C   UNL     1      35.694 -20.537 -20.349  0.00  0.00    +0.003 C 
ATOM     17  C   UNL     1      33.286 -20.340 -20.324  0.00  0.00    +0.003 C 
ATOM     18  C   UNL     1      35.613 -21.630 -19.487  0.00  0.00    +0.037 C 
ATOM     19  C   UNL     1      33.205 -21.432 -19.462  0.00  0.00    +0.037 C 
ATOM     20  C   UNL     1      34.369 -22.078 -19.043  0.00  0.00    +0.134 C 
BRANCH  20  21
ATOM     21  O   UNL     1      34.290 -23.144 -18.201  0.00  0.00    -0.506 OA
ATOM     22  H   UNL     1      33.453 -23.491 -17.960  0.00  0.00    +0.292 HD
ENDBRANCH  20  21
ENDBRANCH  13  15
ENDBRANCH   2  14
TORSDOF 6
ENDMDL
MODEL 2
REMARK VINA RESULT:      -9.3      1.529      2.846
REMARK  Name = 638278
REMARK  6 active torsions:
REMARK  status: ('A' for Active; 'I' for Inactive)
REMARK    1  A    between atoms: C_2  and  C_3
REMARK    2  A    between atoms: C_2  and  C_14
REMARK    3  A    between atoms: C_4  and  O_9
REMARK    4  A    between atoms: C_8  and  O_11
REMARK    5  A    between atoms: C_13  and  C_15
REMARK    6  A    between atoms: C_20  and  O_21
REMARK                            x       y       z     vdW  Elec       q    Type
REMARK                         _______ _______ _______ _____ _____    ______ ____
ROOT
ATOM      1  O   UNL     1      35.033 -15.196 -20.938  0.00  0.00    -0.286 OA
ATOM      2  C   UNL     1      34.460 -16.060 -21.594  0.00  0.00    +0.199 C 
ENDROOT
BRANCH   2   3
ATOM      3  C   UNL     1      34.153 -15.814 -23.023  0.00  0.00    +0.073 C 
ATOM      4  C   UNL     1      33.411 -14.706 -23.389  0.00  0.00    +0.140 C 
ATOM      5  C   UNL     1      34.630 -16.713 -23.957  0.00  0.00    +0.009 C 
ATOM      6  C   UNL     1      33.137 -14.490 -24.740  0.00  0.00    +0.073 C 
ATOM      7  C   UNL     1      34.356 -16.498 -25.307  0.00  0.00    +0.037 C 
ATOM      8  C   UNL     1      33.609 -15.387 -25.699  0.00  0.00    +0.137 C 
BRANCH   4   9
ATOM      9  O   UNL     1      32.943 -13.818 -22.467  0.00  0.00    -0.505 OA
ATOM     10  H   UNL     1      32.084 -13.923 -22.110  0.00  0.00    +0.292 HD
ENDBRANCH   4   9
BRANCH   8  11
ATOM     11  O   UNL     1      33.339 -15.178 -27.016  0.00  0.00    -0.505 OA
ATOM     12  H   UNL     1      32.696 -14.544 -27.268  0.00  0.00    +0.292 HD
ENDBRANCH   8  11
ENDBRANCH   2   3
BRANCH   2  14
ATOM     13  C   UNL     1      34.953 -18.414 -21.047  0.00  0.00    +0.003 C 
ATOM     14  C   UNL     1      34.080 -17.381 -21.022  0.00  0.00    +0.042 C 
BRANCH  13  15
ATOM     15  C   UNL     1      34.687 -19.749 -20.537  0.00  0.00    +0.000 C 
ATOM     16  C   UNL     1      33.372 -20.182 -20.365  0.00  0.00    +0.003 C 
ATOM     17  C   UNL     1      35.747 -20.598 -20.219  0.00  0.00    +0.003 C 
ATOM     18  C   UNL     1      33.117 -21.463 -19.874  0.00  0.00    +0.037 C 
ATOM     19  C   UNL     1      35.493 -21.878 -19.729  0.00  0.00    +0.037 C 
ATOM     20  C   UNL     1      34.178 -22.311 -19.556  0.00  0.00    +0.134 C 
BRANCH  20  21
ATOM     21  O   UNL     1      33.929 -23.560 -19.079  0.00  0.00    -0.506 OA
ATOM     22  H   UNL     1      34.203 -24.312 -19.568  0.00  0.00    +0.292 HD
ENDBRANCH  20  21
ENDBRANCH  13  15
ENDBRANCH   2  14
TORSDOF 6
ENDMDL
MODEL 3
REMARK VINA RESULT:      -9.2      1.509      7.414
REMARK  Name = 638278
REMARK  6 active torsions:
REMARK  status: ('A' for Active; 'I' for Inactive)
REMARK    1  A    between atoms: C_2  and  C_3
REMARK    2  A    between atoms: C_2  and  C_14
REMARK    3  A    between atoms: C_4  and  O_9
REMARK    4  A    between atoms: C_8  and  O_11
REMARK    5  A    between atoms: C_13  and  C_15
REMARK    6  A    between atoms: C_20  and  O_21
REMARK                            x       y       z     vdW  Elec       q    Type
REMARK                         _______ _______ _______ _____ _____    ______ ____
ROOT
ATOM      1  O   UNL     1      36.441 -18.328 -22.301  0.00  0.00    -0.286 OA
ATOM      2  C   UNL     1      35.412 -18.166 -21.654  0.00  0.00    +0.199 C 
ENDROOT
BRANCH   2   3
ATOM      3  C   UNL     1      34.798 -19.316 -20.948  0.00  0.00    +0.073 C 
ATOM      4  C   UNL     1      35.602 -20.242 -20.310  0.00  0.00    +0.140 C 
ATOM      5  C   UNL     1      33.421 -19.421 -20.947  0.00  0.00    +0.009 C 
ATOM      6  C   UNL     1      35.005 -21.314 -19.647  0.00  0.00    +0.073 C 
ATOM      7  C   UNL     1      32.823 -20.493 -20.284  0.00  0.00    +0.037 C 
ATOM      8  C   UNL     1      33.615 -21.440 -19.634  0.00  0.00    +0.137 C 
BRANCH   4   9
ATOM      9  O   UNL     1      36.961 -20.135 -20.308  0.00  0.00    -0.505 OA
ATOM     10  H   UNL     1      37.478 -20.751 -19.827  0.00  0.00    +0.292 HD
ENDBRANCH   4   9
BRANCH   8  11
ATOM     11  O   UNL     1      33.033 -22.487 -18.990  0.00  0.00    -0.505 OA
ATOM     12  H   UNL     1      32.995 -23.328 -19.401  0.00  0.00    +0.292 HD
ENDBRANCH   8  11
ENDBRANCH   2   3
BRANCH   2  14
ATOM     13  C   UNL     1      34.337 -16.163 -22.612  0.00  0.00    +0.003 C 
ATOM     14  C   UNL     1      34.752 -16.837 -21.516  0.00  0.00    +0.042 C 
BRANCH  13  15
ATOM     15  C   UNL     1      33.699 -14.857 -22.601  0.00  0.00    +0.000 C 
ATOM     16  C   UNL     1      33.987 -13.930 -23.604  0.00  0.00    +0.003 C 
ATOM     17  C   UNL     1      32.800 -14.528 -21.586  0.00  0.00    +0.003 C 
ATOM     18  C   UNL     1      33.376 -12.677 -23.591  0.00  0.00    +0.037 C 
ATOM     19  C   UNL     1      32.189 -13.275 -21.574  0.00  0.00    +0.037 C 
ATOM     20  C   UNL     1      32.477 -12.349 -22.577  0.00  0.00    +0.134 C 
BRANCH  20  21
ATOM     21  O   UNL     1      31.880 -11.126 -22.566  0.00  0.00    -0.506 OA
ATOM     22  H   UNL     1      31.986 -10.546 -23.295  0.00  0.00    +0.292 HD
ENDBRANCH  20  21
ENDBRANCH  13  15
ENDBRANCH   2  14
TORSDOF 6
ENDMDL
MODEL 4
REMARK VINA RESULT:      -9.2      2.516      8.374
REMARK  Name = 638278
REMARK  6 active torsions:
REMARK  status: ('A' for Active; 'I' for Inactive)
REMARK    1  A    between atoms: C_2  and  C_3
REMARK    2  A    between atoms: C_2  and  C_14
REMARK    3  A    between atoms: C_4  and  O_9
REMARK    4  A    between atoms: C_8  and  O_11
REMARK    5  A    between atoms: C_13  and  C_15
REMARK    6  A    between atoms: C_20  and  O_21
REMARK                            x       y       z     vdW  Elec       q    Type
REMARK                         _______ _______ _______ _____ _____    ______ ____
ROOT
ATOM      1  O   UNL     1      33.594 -22.708 -19.364  0.00  0.00    -0.286 OA
ATOM      2  C   UNL     1      34.568 -22.015 -19.089  0.00  0.00    +0.199 C 
ENDROOT
BRANCH   2   3
ATOM      3  C   UNL     1      35.330 -22.279 -17.844  0.00  0.00    +0.073 C 
ATOM      4  C   UNL     1      34.729 -22.952 -16.797  0.00  0.00    +0.140 C 
ATOM      5  C   UNL     1      36.638 -21.841 -17.775  0.00  0.00    +0.009 C 
ATOM      6  C   UNL     1      35.464 -23.195 -15.637  0.00  0.00    +0.073 C 
ATOM      7  C   UNL     1      37.373 -22.083 -16.615  0.00  0.00    +0.037 C 
ATOM      8  C   UNL     1      36.786 -22.760 -15.546  0.00  0.00    +0.137 C 
BRANCH   4   9
ATOM      9  O   UNL     1      33.439 -23.388 -16.868  0.00  0.00    -0.505 OA
ATOM     10  H   UNL     1      32.886 -23.337 -16.113  0.00  0.00    +0.292 HD
ENDBRANCH   4   9
BRANCH   8  11
ATOM     11  O   UNL     1      37.503 -22.994 -14.413  0.00  0.00    -0.505 OA
ATOM     12  H   UNL     1      37.109 -22.862 -13.574  0.00  0.00    +0.292 HD
ENDBRANCH   8  11
ENDBRANCH   2   3
BRANCH   2  14
ATOM     13  C   UNL     1      34.169 -20.123 -20.619  0.00  0.00    +0.003 C 
ATOM     14  C   UNL     1      35.051 -20.921 -19.976  0.00  0.00    +0.042 C 
BRANCH  13  15
ATOM     15  C   UNL     1      34.522 -19.039 -21.521  0.00  0.00    +0.000 C 
ATOM     16  C   UNL     1      34.784 -19.306 -22.865  0.00  0.00    +0.003 C 
ATOM     17  C   UNL     1      34.600 -17.731 -21.042  0.00  0.00    +0.003 C 
ATOM     18  C   UNL     1      35.124 -18.265 -23.730  0.00  0.00    +0.037 C 
ATOM     19  C   UNL     1      34.940 -16.691 -21.907  0.00  0.00    +0.037 C 
ATOM     20  C   UNL     1      35.202 -16.958 -23.251  0.00  0.00    +0.134 C 
BRANCH  20  21
ATOM     21  O   UNL     1      35.533 -15.943 -24.095  0.00  0.00    -0.506 OA
ATOM     22  H   UNL     1      36.434 -15.742 -24.256  0.00  0.00    +0.292 HD
ENDBRANCH  20  21
ENDBRANCH  13  15
ENDBRANCH   2  14
TORSDOF 6
ENDMDL
MODEL 5
REMARK VINA RESULT:      -9.2      2.166      7.448
REMARK  Name = 638278
REMARK  6 active torsions:
REMARK  status: ('A' for Active; 'I' for Inactive)
REMARK    1  A    between atoms: C_2  and  C_3
REMARK    2  A    between atoms: C_2  and  C_14
REMARK    3  A    between atoms: C_4  and  O_9
REMARK    4  A    between atoms: C_8  and  O_11
REMARK    5  A    between atoms: C_13  and  C_15
REMARK    6  A    between atoms: C_20  and  O_21
REMARK                            x       y       z     vdW  Elec       q    Type
REMARK                         _______ _______ _______ _____ _____    ______ ____
ROOT
ATOM      1  O   UNL     1      36.961 -18.701 -21.451  0.00  0.00    -0.286 OA
ATOM      2  C   UNL     1      35.772 -18.855 -21.709  0.00  0.00    +0.199 C 
ENDROOT
BRANCH   2   3
ATOM      3  C   UNL     1      34.958 -19.788 -20.893  0.00  0.00    +0.073 C 
ATOM      4  C   UNL     1      35.576 -20.785 -20.163  0.00  0.00    +0.140 C 
ATOM      5  C   UNL     1      33.587 -19.621 -20.885  0.00  0.00    +0.009 C 
ATOM      6  C   UNL     1      34.793 -21.649 -19.397  0.00  0.00    +0.073 C 
ATOM      7  C   UNL     1      32.803 -20.484 -20.120  0.00  0.00    +0.037 C 
ATOM      8  C   UNL     1      33.406 -21.499 -19.376  0.00  0.00    +0.137 C 
BRANCH   4   9
ATOM      9  O   UNL     1      36.930 -20.947 -20.168  0.00  0.00    -0.505 OA
ATOM     10  H   UNL     1      37.318 -21.661 -19.701  0.00  0.00    +0.292 HD
ENDBRANCH   4   9
BRANCH   8  11
ATOM     11  O   UNL     1      32.641 -22.343 -18.631  0.00  0.00    -0.505 OA
ATOM     12  H   UNL     1      32.774 -22.401 -17.706  0.00  0.00    +0.292 HD
ENDBRANCH   8  11
ENDBRANCH   2   3
BRANCH   2  14
ATOM     13  C   UNL     1      35.070 -16.761 -22.807  0.00  0.00    +0.003 C 
ATOM     14  C   UNL     1      35.085 -18.114 -22.803  0.00  0.00    +0.042 C 
BRANCH  13  15
ATOM     15  C   UNL     1      34.419 -15.934 -23.810  0.00  0.00    +0.000 C 
ATOM     16  C   UNL     1      34.084 -16.474 -25.051  0.00  0.00    +0.003 C 
ATOM     17  C   UNL     1      34.130 -14.597 -23.530  0.00  0.00    +0.003 C 
ATOM     18  C   UNL     1      33.460 -15.679 -26.012  0.00  0.00    +0.037 C 
ATOM     19  C   UNL     1      33.507 -13.803 -24.491  0.00  0.00    +0.037 C 
ATOM     20  C   UNL     1      33.171 -14.343 -25.732  0.00  0.00    +0.134 C 
BRANCH  20  21
ATOM     21  O   UNL     1      32.561 -13.568 -26.670  0.00  0.00    -0.506 OA
ATOM     22  H   UNL     1      31.659 -13.711 -26.882  0.00  0.00    +0.292 HD
ENDBRANCH  20  21
ENDBRANCH  13  15
ENDBRANCH   2  14
TORSDOF 6
ENDMDL
MODEL 6
REMARK VINA RESULT:      -8.9      1.555      1.851
REMARK  Name = 638278
REMARK  6 active torsions:
REMARK  status: ('A' for Active; 'I' for Inactive)
REMARK    1  A    between atoms: C_2  and  C_3
REMARK    2  A    between atoms: C_2  and  C_14
REMARK    3  A    between atoms: C_4  and  O_9
REMARK    4  A    between atoms: C_8  and  O_11
REMARK    5  A    between atoms: C_13  and  C_15
REMARK    6  A    between atoms: C_20  and  O_21
REMARK                            x       y       z     vdW  Elec       q    Type
REMARK                         _______ _______ _______ _____ _____    ______ ____
ROOT
ATOM      1  O   UNL     1      35.098 -17.434 -25.965  0.00  0.00    -0.286 OA
ATOM      2  C   UNL     1      34.788 -17.331 -24.783  0.00  0.00    +0.199 C 
ENDROOT
BRANCH   2   3
ATOM      3  C   UNL     1      34.299 -16.032 -24.262  0.00  0.00    +0.073 C 
ATOM      4  C   UNL     1      33.434 -15.266 -25.020  0.00  0.00    +0.140 C 
ATOM      5  C   UNL     1      34.728 -15.628 -23.012  0.00  0.00    +0.009 C 
ATOM      6  C   UNL     1      32.982 -14.049 -24.509  0.00  0.00    +0.073 C 
ATOM      7  C   UNL     1      34.276 -14.412 -22.501  0.00  0.00    +0.037 C 
ATOM      8  C   UNL     1      33.403 -13.622 -23.250  0.00  0.00    +0.137 C 
BRANCH   4   9
ATOM      9  O   UNL     1      33.009 -15.667 -26.251  0.00  0.00    -0.505 OA
ATOM     10  H   UNL     1      32.218 -15.316 -26.611  0.00  0.00    +0.292 HD
ENDBRANCH   4   9
BRANCH   8  11
ATOM     11  O   UNL     1      32.964 -12.434 -22.752  0.00  0.00    -0.505 OA
ATOM     12  H   UNL     1      32.330 -12.421 -22.062  0.00  0.00    +0.292 HD
ENDBRANCH   8  11
ENDBRANCH   2   3
BRANCH   2  14
ATOM     13  C   UNL     1      34.528 -18.306 -22.532  0.00  0.00    +0.003 C 
ATOM     14  C   UNL     1      34.851 -18.477 -23.834  0.00  0.00    +0.042 C 
BRANCH  13  15
ATOM     15  C   UNL     1      34.569 -19.343 -21.515  0.00  0.00    +0.000 C 
ATOM     16  C   UNL     1      35.796 -19.829 -21.062  0.00  0.00    +0.003 C 
ATOM     17  C   UNL     1      33.380 -19.854 -20.991  0.00  0.00    +0.003 C 
ATOM     18  C   UNL     1      35.834 -20.826 -20.086  0.00  0.00    +0.037 C 
ATOM     19  C   UNL     1      33.419 -20.849 -20.016  0.00  0.00    +0.037 C 
ATOM     20  C   UNL     1      34.646 -21.335 -19.563  0.00  0.00    +0.134 C 
BRANCH  20  21
ATOM     21  O   UNL     1      34.684 -22.307 -18.611  0.00  0.00    -0.506 OA
ATOM     22  H   UNL     1      34.730 -22.073 -17.704  0.00  0.00    +0.292 HD
ENDBRANCH  20  21
ENDBRANCH  13  15
ENDBRANCH   2  14
TORSDOF 6
ENDMDL
MODEL 7
REMARK VINA RESULT:      -8.9      8.580     12.141
REMARK  Name = 638278
REMARK  6 active torsions:
REMARK  status: ('A' for Active; 'I' for Inactive)
REMARK    1  A    between atoms: C_2  and  C_3
REMARK    2  A    between atoms: C_2  and  C_14
REMARK    3  A    between atoms: C_4  and  O_9
REMARK    4  A    between atoms: C_8  and  O_11
REMARK    5  A    between atoms: C_13  and  C_15
REMARK    6  A    between atoms: C_20  and  O_21
REMARK                            x       y       z     vdW  Elec       q    Type
REMARK                         _______ _______ _______ _____ _____    ______ ____
ROOT
ATOM      1  O   UNL     1      34.981 -24.599 -11.547  0.00  0.00    -0.286 OA
ATOM      2  C   UNL     1      35.220 -24.513 -12.747  0.00  0.00    +0.199 C 
ENDROOT
BRANCH   2   3
ATOM      3  C   UNL     1      36.494 -25.050 -13.284  0.00  0.00    +0.073 C 
ATOM      4  C   UNL     1      37.652 -24.955 -12.536  0.00  0.00    +0.140 C 
ATOM      5  C   UNL     1      36.477 -25.641 -14.532  0.00  0.00    +0.009 C 
ATOM      6  C   UNL     1      38.839 -25.471 -13.056  0.00  0.00    +0.073 C 
ATOM      7  C   UNL     1      37.664 -26.157 -15.053  0.00  0.00    +0.037 C 
ATOM      8  C   UNL     1      38.845 -26.072 -14.315  0.00  0.00    +0.137 C 
BRANCH   4   9
ATOM      9  O   UNL     1      37.666 -24.374 -11.302  0.00  0.00    -0.505 OA
ATOM     10  H   UNL     1      36.873 -24.308 -10.807  0.00  0.00    +0.292 HD
ENDBRANCH   4   9
BRANCH   8  11
ATOM     11  O   UNL     1      40.003 -26.573 -14.824  0.00  0.00    -0.505 OA
ATOM     12  H   UNL     1      40.757 -26.660 -14.275  0.00  0.00    +0.292 HD
ENDBRANCH   8  11
ENDBRANCH   2   3
BRANCH   2  14
ATOM     13  C   UNL     1      32.950 -24.244 -13.675  0.00  0.00    +0.003 C 
ATOM     14  C   UNL     1      34.261 -23.912 -13.715  0.00  0.00    +0.042 C 
BRANCH  13  15
ATOM     15  C   UNL     1      31.929 -23.738 -14.576  0.00  0.00    +0.000 C 
ATOM     16  C   UNL     1      30.608 -23.621 -14.141  0.00  0.00    +0.003 C 
ATOM     17  C   UNL     1      32.268 -23.369 -15.878  0.00  0.00    +0.003 C 
ATOM     18  C   UNL     1      29.628 -23.136 -15.007  0.00  0.00    +0.037 C 
ATOM     19  C   UNL     1      31.289 -22.883 -16.743  0.00  0.00    +0.037 C 
ATOM     20  C   UNL     1      29.969 -22.767 -16.308  0.00  0.00    +0.134 C 
BRANCH  20  21
ATOM     21  O   UNL     1      29.012 -22.293 -17.152  0.00  0.00    -0.506 OA
ATOM     22  H   UNL     1      28.339 -22.864 -17.466  0.00  0.00    +0.292 HD
ENDBRANCH  20  21
ENDBRANCH  13  15
ENDBRANCH   2  14
TORSDOF 6
ENDMDL
MODEL 8
REMARK VINA RESULT:      -8.9      8.899     10.361
REMARK  Name = 638278
REMARK  6 active torsions:
REMARK  status: ('A' for Active; 'I' for Inactive)
REMARK    1  A    between atoms: C_2  and  C_3
REMARK    2  A    between atoms: C_2  and  C_14
REMARK    3  A    between atoms: C_4  and  O_9
REMARK    4  A    between atoms: C_8  and  O_11
REMARK    5  A    between atoms: C_13  and  C_15
REMARK    6  A    between atoms: C_20  and  O_21
REMARK                            x       y       z     vdW  Elec       q    Type
REMARK                         _______ _______ _______ _____ _____    ______ ____
ROOT
ATOM      1  O   UNL     1      30.680 -23.981 -12.463  0.00  0.00    -0.286 OA
ATOM      2  C   UNL     1      31.069 -23.717 -13.596  0.00  0.00    +0.199 C 
ENDROOT
BRANCH   2   3
ATOM      3  C   UNL     1      30.101 -23.701 -14.720  0.00  0.00    +0.073 C 
ATOM      4  C   UNL     1      29.595 -24.888 -15.212  0.00  0.00    +0.140 C 
ATOM      5  C   UNL     1      29.729 -22.477 -15.241  0.00  0.00    +0.009 C 
ATOM      6  C   UNL     1      28.682 -24.851 -16.266  0.00  0.00    +0.073 C 
ATOM      7  C   UNL     1      28.816 -22.439 -16.295  0.00  0.00    +0.037 C 
ATOM      8  C   UNL     1      28.293 -23.626 -16.808  0.00  0.00    +0.137 C 
BRANCH   4   9
ATOM      9  O   UNL     1      29.960 -26.096 -14.693  0.00  0.00    -0.505 OA
ATOM     10  H   UNL     1      30.866 -26.332 -14.651  0.00  0.00    +0.292 HD
ENDBRANCH   4   9
BRANCH   8  11
ATOM     11  O   UNL     1      27.404 -23.589 -17.838  0.00  0.00    -0.505 OA
ATOM     12  H   UNL     1      26.486 -23.662 -17.667  0.00  0.00    +0.292 HD
ENDBRANCH   8  11
ENDBRANCH   2   3
BRANCH   2  14
ATOM     13  C   UNL     1      33.284 -24.267 -14.530  0.00  0.00    +0.003 C 
ATOM     14  C   UNL     1      32.486 -23.375 -13.899  0.00  0.00    +0.042 C 
BRANCH  13  15
ATOM     15  C   UNL     1      34.684 -24.052 -14.860  0.00  0.00    +0.000 C 
ATOM     16  C   UNL     1      35.101 -22.820 -15.365  0.00  0.00    +0.003 C 
ATOM     17  C   UNL     1      35.610 -25.079 -14.675  0.00  0.00    +0.003 C 
ATOM     18  C   UNL     1      36.443 -22.615 -15.683  0.00  0.00    +0.037 C 
ATOM     19  C   UNL     1      36.952 -24.873 -14.992  0.00  0.00    +0.037 C 
ATOM     20  C   UNL     1      37.369 -23.641 -15.497  0.00  0.00    +0.134 C 
BRANCH  20  21
ATOM     21  O   UNL     1      38.678 -23.440 -15.806  0.00  0.00    -0.506 OA
ATOM     22  H   UNL     1      39.284 -24.156 -15.771  0.00  0.00    +0.292 HD
ENDBRANCH  20  21
ENDBRANCH  13  15
ENDBRANCH   2  14
TORSDOF 6
ENDMDL
MODEL 9
REMARK VINA RESULT:      -8.8      4.037      7.324
REMARK  Name = 638278
REMARK  6 active torsions:
REMARK  status: ('A' for Active; 'I' for Inactive)
REMARK    1  A    between atoms: C_2  and  C_3
REMARK    2  A    between atoms: C_2  and  C_14
REMARK    3  A    between atoms: C_4  and  O_9
REMARK    4  A    between atoms: C_8  and  O_11
REMARK    5  A    between atoms: C_13  and  C_15
REMARK    6  A    between atoms: C_20  and  O_21
REMARK                            x       y       z     vdW  Elec       q    Type
REMARK                         _______ _______ _______ _____ _____    ______ ____
ROOT
ATOM      1  O   UNL     1      35.625 -22.709 -17.530  0.00  0.00    -0.286 OA
ATOM      2  C   UNL     1      34.532 -22.481 -18.037  0.00  0.00    +0.199 C 
ENDROOT
BRANCH   2   3
ATOM      3  C   UNL     1      34.429 -21.523 -19.164  0.00  0.00    +0.073 C 
ATOM      4  C   UNL     1      35.575 -21.060 -19.782  0.00  0.00    +0.140 C 
ATOM      5  C   UNL     1      33.170 -21.124 -19.567  0.00  0.00    +0.009 C 
ATOM      6  C   UNL     1      35.457 -20.162 -20.843  0.00  0.00    +0.073 C 
ATOM      7  C   UNL     1      33.051 -20.226 -20.628  0.00  0.00    +0.037 C 
ATOM      8  C   UNL     1      34.195 -19.746 -21.266  0.00  0.00    +0.137 C 
BRANCH   4   9
ATOM      9  O   UNL     1      36.818 -21.458 -19.385  0.00  0.00    -0.505 OA
ATOM     10  H   UNL     1      37.563 -21.270 -19.921  0.00  0.00    +0.292 HD
ENDBRANCH   4   9
BRANCH   8  11
ATOM     11  O   UNL     1      34.080 -18.868 -22.300  0.00  0.00    -0.505 OA
ATOM     12  H   UNL     1      33.282 -18.822 -22.789  0.00  0.00    +0.292 HD
ENDBRANCH   8  11
ENDBRANCH   2   3
BRANCH   2  14
ATOM     13  C   UNL     1      32.901 -23.098 -16.292  0.00  0.00    +0.003 C 
ATOM     14  C   UNL     1      33.283 -23.158 -17.589  0.00  0.00    +0.042 C 
BRANCH  13  15
ATOM     15  C   UNL     1      31.716 -23.732 -15.738  0.00  0.00    +0.000 C 
ATOM     16  C   UNL     1      30.472 -23.533 -16.338  0.00  0.00    +0.003 C 
ATOM     17  C   UNL     1      31.822 -24.538 -14.604  0.00  0.00    +0.003 C 
ATOM     18  C   UNL     1      29.336 -24.140 -15.804  0.00  0.00    +0.037 C 
ATOM     19  C   UNL     1      30.686 -25.145 -14.071  0.00  0.00    +0.037 C 
ATOM     20  C   UNL     1      29.442 -24.946 -14.671  0.00  0.00    +0.134 C 
BRANCH  20  21
ATOM     21  O   UNL     1      28.333 -25.539 -14.151  0.00  0.00    -0.506 OA
ATOM     22  H   UNL     1      27.628 -25.013 -13.827  0.00  0.00    +0.292 HD
ENDBRANCH  20  21
ENDBRANCH  13  15
ENDBRANCH   2  14
TORSDOF 6
ENDMDL
