MODEL 1
REMARK VINA RESULT:     -11.8      0.000      0.000
REMARK  Name = 5288250
REMARK  9 active torsions:
REMARK  status: ('A' for Active; 'I' for Inactive)
REMARK    1  A    between atoms: C_1  and  N_3
REMARK    2  A    between atoms: C_1  and  C_20
REMARK    3  A    between atoms: C_1  and  C_23
REMARK    4  A    between atoms: C_4  and  C_6
REMARK    5  A    between atoms: C_6  and  C_10
REMARK    6  A    between atoms: C_20  and  O_21
REMARK    7  A    between atoms: C_23  and  C_24
REMARK    8  A    between atoms: C_29  and  C_30
REMARK    9  A    between atoms: C_31  and  C_32
REMARK                            x       y       z     vdW  Elec       q    Type
REMARK                         _______ _______ _______ _____ _____    ______ ____
ROOT
ATOM      1  C   UNL     1      34.668 -22.403 -17.590  0.00  0.00    +0.176 C 
ENDROOT
BRANCH   1   3
ATOM      2  O   UNL     1      37.158 -21.031 -17.048  0.00  0.00    -0.275 OA
ATOM      3  N   UNL     1      35.797 -22.903 -16.840  0.00  0.00    -0.297 N 
ATOM      4  C   UNL     1      36.954 -22.168 -16.631  0.00  0.00    +0.223 C 
ATOM      5  H   UNL     1      35.741 -23.809 -16.457  0.00  0.00    +0.150 HD
BRANCH   4   6
ATOM      6  C   UNL     1      37.958 -22.948 -15.808  0.00  0.00    +0.087 C 
BRANCH   6  10
ATOM      7  N   UNL     1      36.622 -24.636 -12.670  0.00  0.00    -0.282 N 
ATOM      8  N   UNL     1      34.648 -23.530 -12.381  0.00  0.00    -0.331 N 
ATOM      9  N   UNL     1      35.376 -25.038 -10.735  0.00  0.00    -0.273 NA
ATOM     10  C   UNL     1      37.293 -24.021 -14.949  0.00  0.00    +0.029 C 
ATOM     11  C   UNL     1      38.054 -25.352 -15.055  0.00  0.00    +0.004 C 
ATOM     12  C   UNL     1      37.200 -23.569 -13.485  0.00  0.00    +0.094 C 
ATOM     13  C   UNL     1      37.431 -26.409 -14.144  0.00  0.00    +0.022 C 
ATOM     14  C   UNL     1      37.332 -25.913 -12.705  0.00  0.00    +0.093 C 
ATOM     15  C   UNL     1      35.546 -24.433 -11.875  0.00  0.00    +0.174 C 
ATOM     16  H   UNL     1      34.820 -23.097 -13.248  0.00  0.00    +0.145 HD
ATOM     17  H   UNL     1      33.831 -23.314 -11.876  0.00  0.00    +0.145 HD
ATOM     18  H   UNL     1      36.050 -25.679 -10.412  0.00  0.00    +0.189 HD
ENDBRANCH   6  10
ENDBRANCH   4   6
ENDBRANCH   1   3
BRANCH   1  20
ATOM     19  O   UNL     1      32.393 -23.141 -17.932  0.00  0.00    -0.248 OA
ATOM     20  C   UNL     1      33.359 -23.062 -17.179  0.00  0.00    +0.335 C 
BRANCH  20  21
ATOM     21  O   UNL     1      33.395 -23.522 -15.897  0.00  0.00    -0.443 OA
ATOM     22  C   UNL     1      32.194 -23.345 -15.140  0.00  0.00    +0.256 C 
ENDBRANCH  20  21
ENDBRANCH   1  20
BRANCH   1  23
ATOM     23  C   UNL     1      34.914 -22.506 -19.103  0.00  0.00    +0.057 C 
BRANCH  23  24
ATOM     24  C   UNL     1      34.732 -21.210 -19.862  0.00  0.00    -0.020 C 
ATOM     25  C   UNL     1      33.450 -20.722 -20.113  0.00  0.00    -0.004 C 
ATOM     26  C   UNL     1      35.848 -20.503 -20.310  0.00  0.00    -0.004 C 
ATOM     27  C   UNL     1      33.283 -19.527 -20.813  0.00  0.00    +0.008 C 
ATOM     28  C   UNL     1      35.682 -19.308 -21.010  0.00  0.00    +0.008 C 
ATOM     29  C   UNL     1      34.399 -18.820 -21.261  0.00  0.00    +0.042 C 
BRANCH  29  30
ATOM     30  C   UNL     1      34.228 -17.596 -21.979  0.00  0.00    -0.060 C 
ATOM     31  C   UNL     1      34.083 -16.569 -22.583  0.00  0.00    -0.060 C 
BRANCH  31  32
ATOM     32  C   UNL     1      33.910 -15.343 -23.302  0.00  0.00    +0.042 C 
ATOM     33  C   UNL     1      34.083 -14.123 -22.651  0.00  0.00    +0.008 C 
ATOM     34  C   UNL     1      33.568 -15.371 -24.655  0.00  0.00    +0.008 C 
ATOM     35  C   UNL     1      33.914 -12.928 -23.351  0.00  0.00    +0.001 C 
ATOM     36  C   UNL     1      33.400 -14.176 -25.355  0.00  0.00    +0.001 C 
ATOM     37  C   UNL     1      33.573 -12.955 -24.702  0.00  0.00    +0.000 C 
ENDBRANCH  31  32
ENDBRANCH  29  30
ENDBRANCH  23  24
ENDBRANCH   1  23
TORSDOF 9
ENDMDL
MODEL 2
REMARK VINA RESULT:     -11.0      2.826      5.364
REMARK  Name = 5288250
REMARK  9 active torsions:
REMARK  status: ('A' for Active; 'I' for Inactive)
REMARK    1  A    between atoms: C_1  and  N_3
REMARK    2  A    between atoms: C_1  and  C_20
REMARK    3  A    between atoms: C_1  and  C_23
REMARK    4  A    between atoms: C_4  and  C_6
REMARK    5  A    between atoms: C_6  and  C_10
REMARK    6  A    between atoms: C_20  and  O_21
REMARK    7  A    between atoms: C_23  and  C_24
REMARK    8  A    between atoms: C_29  and  C_30
REMARK    9  A    between atoms: C_31  and  C_32
REMARK                            x       y       z     vdW  Elec       q    Type
REMARK                         _______ _______ _______ _____ _____    ______ ____
ROOT
ATOM      1  C   UNL     1      35.479 -24.582 -15.781  0.00  0.00    +0.176 C 
ENDROOT
BRANCH   1   3
ATOM      2  O   UNL     1      35.299 -23.552 -13.083  0.00  0.00    -0.275 OA
ATOM      3  N   UNL     1      34.290 -24.461 -14.969  0.00  0.00    -0.297 N 
ATOM      4  C   UNL     1      34.303 -23.951 -13.679  0.00  0.00    +0.223 C 
ATOM      5  H   UNL     1      33.431 -24.752 -15.350  0.00  0.00    +0.150 HD
BRANCH   4   6
ATOM      6  C   UNL     1      32.912 -23.943 -13.080  0.00  0.00    +0.087 C 
BRANCH   6  10
ATOM      7  N   UNL     1      30.030 -23.287 -15.476  0.00  0.00    -0.282 N 
ATOM      8  N   UNL     1      31.133 -22.374 -17.252  0.00  0.00    -0.331 N 
ATOM      9  N   UNL     1      28.785 -22.419 -17.254  0.00  0.00    -0.273 NA
ATOM     10  C   UNL     1      31.832 -24.247 -14.116  0.00  0.00    +0.029 C 
ATOM     11  C   UNL     1      30.836 -25.285 -13.577  0.00  0.00    +0.004 C 
ATOM     12  C   UNL     1      31.101 -22.964 -14.535  0.00  0.00    +0.094 C 
ATOM     13  C   UNL     1      29.717 -25.541 -14.585  0.00  0.00    +0.022 C 
ATOM     14  C   UNL     1      29.033 -24.241 -14.996  0.00  0.00    +0.093 C 
ATOM     15  C   UNL     1      29.926 -22.683 -16.682  0.00  0.00    +0.174 C 
ATOM     16  H   UNL     1      31.970 -22.593 -16.782  0.00  0.00    +0.145 HD
ATOM     17  H   UNL     1      31.163 -21.932 -18.131  0.00  0.00    +0.145 HD
ATOM     18  H   UNL     1      27.943 -22.661 -16.804  0.00  0.00    +0.189 HD
ENDBRANCH   6  10
ENDBRANCH   4   6
ENDBRANCH   1   3
BRANCH   1  20
ATOM     19  O   UNL     1      36.136 -26.904 -15.658  0.00  0.00    -0.248 OA
ATOM     20  C   UNL     1      36.365 -25.740 -15.344  0.00  0.00    +0.335 C 
BRANCH  20  21
ATOM     21  O   UNL     1      37.406 -25.327 -14.567  0.00  0.00    -0.443 OA
ATOM     22  C   UNL     1      37.679 -26.133 -13.417  0.00  0.00    +0.256 C 
ENDBRANCH  20  21
ENDBRANCH   1  20
BRANCH   1  23
ATOM     23  C   UNL     1      36.252 -23.256 -15.841  0.00  0.00    +0.057 C 
BRANCH  23  24
ATOM     24  C   UNL     1      36.026 -22.449 -17.100  0.00  0.00    -0.020 C 
ATOM     25  C   UNL     1      37.014 -21.578 -17.558  0.00  0.00    -0.004 C 
ATOM     26  C   UNL     1      34.829 -22.577 -17.805  0.00  0.00    -0.004 C 
ATOM     27  C   UNL     1      36.805 -20.834 -18.719  0.00  0.00    +0.008 C 
ATOM     28  C   UNL     1      34.620 -21.834 -18.966  0.00  0.00    +0.008 C 
ATOM     29  C   UNL     1      35.608 -20.962 -19.423  0.00  0.00    +0.042 C 
BRANCH  29  30
ATOM     30  C   UNL     1      35.394 -20.199 -20.613  0.00  0.00    -0.060 C 
ATOM     31  C   UNL     1      35.213 -19.558 -21.612  0.00  0.00    -0.060 C 
BRANCH  31  32
ATOM     32  C   UNL     1      34.998 -18.794 -22.802  0.00  0.00    +0.042 C 
ATOM     33  C   UNL     1      34.641 -19.435 -23.988  0.00  0.00    +0.008 C 
ATOM     34  C   UNL     1      35.146 -17.407 -22.776  0.00  0.00    +0.008 C 
ATOM     35  C   UNL     1      34.431 -18.691 -25.149  0.00  0.00    +0.001 C 
ATOM     36  C   UNL     1      34.936 -16.662 -23.937  0.00  0.00    +0.001 C 
ATOM     37  C   UNL     1      34.579 -17.305 -25.123  0.00  0.00    +0.000 C 
ENDBRANCH  31  32
ENDBRANCH  29  30
ENDBRANCH  23  24
ENDBRANCH   1  23
TORSDOF 9
ENDMDL
MODEL 3
REMARK VINA RESULT:     -10.9      4.724     11.501
REMARK  Name = 5288250
REMARK  9 active torsions:
REMARK  status: ('A' for Active; 'I' for Inactive)
REMARK    1  A    between atoms: C_1  and  N_3
REMARK    2  A    between atoms: C_1  and  C_20
REMARK    3  A    between atoms: C_1  and  C_23
REMARK    4  A    between atoms: C_4  and  C_6
REMARK    5  A    between atoms: C_6  and  C_10
REMARK    6  A    between atoms: C_20  and  O_21
REMARK    7  A    between atoms: C_23  and  C_24
REMARK    8  A    between atoms: C_29  and  C_30
REMARK    9  A    between atoms: C_31  and  C_32
REMARK                            x       y       z     vdW  Elec       q    Type
REMARK                         _______ _______ _______ _____ _____    ______ ____
ROOT
ATOM      1  C   UNL     1      35.366 -18.945 -22.134  0.00  0.00    +0.176 C 
ENDROOT
BRANCH   1   3
ATOM      2  O   UNL     1      33.141 -17.347 -21.201  0.00  0.00    -0.275 OA
ATOM      3  N   UNL     1      35.428 -17.665 -21.466  0.00  0.00    -0.297 N 
ATOM      4  C   UNL     1      34.300 -16.971 -21.053  0.00  0.00    +0.223 C 
ATOM      5  H   UNL     1      36.313 -17.268 -21.295  0.00  0.00    +0.150 HD
BRANCH   4   6
ATOM      6  C   UNL     1      34.676 -15.666 -20.382  0.00  0.00    +0.087 C 
BRANCH   6  10
ATOM      7  N   UNL     1      32.154 -13.138 -21.696  0.00  0.00    -0.282 N 
ATOM      8  N   UNL     1      31.868 -11.808 -19.865  0.00  0.00    -0.331 N 
ATOM      9  N   UNL     1      30.510 -11.477 -21.752  0.00  0.00    -0.273 NA
ATOM     10  C   UNL     1      34.152 -14.451 -21.143  0.00  0.00    +0.029 C 
ATOM     11  C   UNL     1      34.451 -14.577 -22.645  0.00  0.00    +0.004 C 
ATOM     12  C   UNL     1      32.646 -14.266 -20.907  0.00  0.00    +0.094 C 
ATOM     13  C   UNL     1      33.869 -13.395 -23.418  0.00  0.00    +0.022 C 
ATOM     14  C   UNL     1      32.378 -13.229 -23.137  0.00  0.00    +0.093 C 
ATOM     15  C   UNL     1      31.466 -12.115 -21.138  0.00  0.00    +0.174 C 
ATOM     16  H   UNL     1      32.595 -12.318 -19.441  0.00  0.00    +0.145 HD
ATOM     17  H   UNL     1      31.428 -11.077 -19.373  0.00  0.00    +0.145 HD
ATOM     18  H   UNL     1      30.257 -11.735 -22.668  0.00  0.00    +0.189 HD
ENDBRANCH   6  10
ENDBRANCH   4   6
ENDBRANCH   1   3
BRANCH   1  20
ATOM     19  O   UNL     1      34.911 -19.759 -24.363  0.00  0.00    -0.248 OA
ATOM     20  C   UNL     1      35.187 -18.807 -23.639  0.00  0.00    +0.335 C 
BRANCH  20  21
ATOM     21  O   UNL     1      35.385 -17.528 -24.066  0.00  0.00    -0.443 OA
ATOM     22  C   UNL     1      34.634 -17.134 -25.218  0.00  0.00    +0.256 C 
ENDBRANCH  20  21
ENDBRANCH   1  20
BRANCH   1  23
ATOM     23  C   UNL     1      34.296 -19.851 -21.507  0.00  0.00    +0.057 C 
BRANCH  23  24
ATOM     24  C   UNL     1      34.751 -20.615 -20.284  0.00  0.00    -0.020 C 
ATOM     25  C   UNL     1      33.836 -21.369 -19.551  0.00  0.00    -0.004 C 
ATOM     26  C   UNL     1      36.089 -20.565 -19.890  0.00  0.00    -0.004 C 
ATOM     27  C   UNL     1      34.257 -22.073 -18.423  0.00  0.00    +0.008 C 
ATOM     28  C   UNL     1      36.510 -21.270 -18.762  0.00  0.00    +0.008 C 
ATOM     29  C   UNL     1      35.594 -22.024 -18.028  0.00  0.00    +0.042 C 
BRANCH  29  30
ATOM     30  C   UNL     1      36.024 -22.745 -16.872  0.00  0.00    -0.060 C 
ATOM     31  C   UNL     1      36.387 -23.351 -15.902  0.00  0.00    -0.060 C 
BRANCH  31  32
ATOM     32  C   UNL     1      36.820 -24.073 -14.744  0.00  0.00    +0.042 C 
ATOM     33  C   UNL     1      36.904 -25.464 -14.781  0.00  0.00    +0.008 C 
ATOM     34  C   UNL     1      37.156 -23.385 -13.578  0.00  0.00    +0.008 C 
ATOM     35  C   UNL     1      37.325 -26.169 -13.654  0.00  0.00    +0.001 C 
ATOM     36  C   UNL     1      37.577 -24.089 -12.450  0.00  0.00    +0.001 C 
ATOM     37  C   UNL     1      37.661 -25.481 -12.488  0.00  0.00    +0.000 C 
ENDBRANCH  31  32
ENDBRANCH  29  30
ENDBRANCH  23  24
ENDBRANCH   1  23
TORSDOF 9
ENDMDL
MODEL 4
REMARK VINA RESULT:     -10.7      4.778     11.927
REMARK  Name = 5288250
REMARK  9 active torsions:
REMARK  status: ('A' for Active; 'I' for Inactive)
REMARK    1  A    between atoms: C_1  and  N_3
REMARK    2  A    between atoms: C_1  and  C_20
REMARK    3  A    between atoms: C_1  and  C_23
REMARK    4  A    between atoms: C_4  and  C_6
REMARK    5  A    between atoms: C_6  and  C_10
REMARK    6  A    between atoms: C_20  and  O_21
REMARK    7  A    between atoms: C_23  and  C_24
REMARK    8  A    between atoms: C_29  and  C_30
REMARK    9  A    between atoms: C_31  and  C_32
REMARK                            x       y       z     vdW  Elec       q    Type
REMARK                         _______ _______ _______ _____ _____    ______ ____
ROOT
ATOM      1  C   UNL     1      34.632 -18.292 -21.584  0.00  0.00    +0.176 C 
ENDROOT
BRANCH   1   3
ATOM      2  O   UNL     1      35.085 -15.647 -20.501  0.00  0.00    -0.275 OA
ATOM      3  N   UNL     1      33.634 -17.310 -21.229  0.00  0.00    -0.297 N 
ATOM      4  C   UNL     1      33.949 -16.061 -20.714  0.00  0.00    +0.223 C 
ATOM      5  H   UNL     1      32.685 -17.538 -21.360  0.00  0.00    +0.150 HD
BRANCH   4   6
ATOM      6  C   UNL     1      32.700 -15.249 -20.442  0.00  0.00    +0.087 C 
BRANCH   6  10
ATOM      7  N   UNL     1      33.272 -13.172 -23.579  0.00  0.00    -0.282 N 
ATOM      8  N   UNL     1      33.035 -14.755 -25.204  0.00  0.00    -0.331 N 
ATOM      9  N   UNL     1      33.743 -12.595 -25.794  0.00  0.00    -0.273 NA
ATOM     10  C   UNL     1      32.385 -14.274 -21.574  0.00  0.00    +0.029 C 
ATOM     11  C   UNL     1      32.008 -12.894 -21.015  0.00  0.00    +0.004 C 
ATOM     12  C   UNL     1      33.571 -14.159 -22.542  0.00  0.00    +0.094 C 
ATOM     13  C   UNL     1      31.757 -11.898 -22.146  0.00  0.00    +0.022 C 
ATOM     14  C   UNL     1      32.947 -11.831 -23.100  0.00  0.00    +0.093 C 
ATOM     15  C   UNL     1      33.369 -13.462 -24.897  0.00  0.00    +0.174 C 
ATOM     16  H   UNL     1      32.758 -15.375 -24.492  0.00  0.00    +0.145 HD
ATOM     17  H   UNL     1      33.073 -15.064 -26.139  0.00  0.00    +0.145 HD
ATOM     18  H   UNL     1      33.973 -11.676 -25.524  0.00  0.00    +0.189 HD
ENDBRANCH   6  10
ENDBRANCH   4   6
ENDBRANCH   1   3
BRANCH   1  20
ATOM     19  O   UNL     1      36.441 -18.273 -23.185  0.00  0.00    -0.248 OA
ATOM     20  C   UNL     1      35.268 -18.011 -22.938  0.00  0.00    +0.335 C 
BRANCH  20  21
ATOM     21  O   UNL     1      34.393 -17.431 -23.807  0.00  0.00    -0.443 OA
ATOM     22  C   UNL     1      34.451 -17.905 -25.156  0.00  0.00    +0.256 C 
ENDBRANCH  20  21
ENDBRANCH   1  20
BRANCH   1  23
ATOM     23  C   UNL     1      34.068 -19.719 -21.498  0.00  0.00    +0.057 C 
BRANCH  23  24
ATOM     24  C   UNL     1      34.548 -20.517 -20.306  0.00  0.00    -0.020 C 
ATOM     25  C   UNL     1      33.641 -21.269 -19.560  0.00  0.00    -0.004 C 
ATOM     26  C   UNL     1      35.898 -20.502 -19.956  0.00  0.00    -0.004 C 
ATOM     27  C   UNL     1      34.084 -22.005 -18.461  0.00  0.00    +0.008 C 
ATOM     28  C   UNL     1      36.341 -21.239 -18.857  0.00  0.00    +0.008 C 
ATOM     29  C   UNL     1      35.434 -21.990 -18.110  0.00  0.00    +0.042 C 
BRANCH  29  30
ATOM     30  C   UNL     1      35.888 -22.744 -16.983  0.00  0.00    -0.060 C 
ATOM     31  C   UNL     1      36.270 -23.378 -16.038  0.00  0.00    -0.060 C 
BRANCH  31  32
ATOM     32  C   UNL     1      36.725 -24.133 -14.911  0.00  0.00    +0.042 C 
ATOM     33  C   UNL     1      36.738 -25.526 -14.964  0.00  0.00    +0.008 C 
ATOM     34  C   UNL     1      37.156 -23.474 -13.759  0.00  0.00    +0.008 C 
ATOM     35  C   UNL     1      37.181 -26.263 -13.865  0.00  0.00    +0.001 C 
ATOM     36  C   UNL     1      37.599 -24.211 -12.660  0.00  0.00    +0.001 C 
ATOM     37  C   UNL     1      37.611 -25.605 -12.714  0.00  0.00    +0.000 C 
ENDBRANCH  31  32
ENDBRANCH  29  30
ENDBRANCH  23  24
ENDBRANCH   1  23
TORSDOF 9
ENDMDL
MODEL 5
REMARK VINA RESULT:     -10.5      2.335      3.572
REMARK  Name = 5288250
REMARK  9 active torsions:
REMARK  status: ('A' for Active; 'I' for Inactive)
REMARK    1  A    between atoms: C_1  and  N_3
REMARK    2  A    between atoms: C_1  and  C_20
REMARK    3  A    between atoms: C_1  and  C_23
REMARK    4  A    between atoms: C_4  and  C_6
REMARK    5  A    between atoms: C_6  and  C_10
REMARK    6  A    between atoms: C_20  and  O_21
REMARK    7  A    between atoms: C_23  and  C_24
REMARK    8  A    between atoms: C_29  and  C_30
REMARK    9  A    between atoms: C_31  and  C_32
REMARK                            x       y       z     vdW  Elec       q    Type
REMARK                         _______ _______ _______ _____ _____    ______ ____
ROOT
ATOM      1  C   UNL     1      32.803 -22.864 -15.402  0.00  0.00    +0.176 C 
ENDROOT
BRANCH   1   3
ATOM      2  O   UNL     1      32.744 -25.278 -13.807  0.00  0.00    -0.275 OA
ATOM      3  N   UNL     1      33.580 -23.148 -14.218  0.00  0.00    -0.297 N 
ATOM      4  C   UNL     1      33.483 -24.342 -13.516  0.00  0.00    +0.223 C 
ATOM      5  H   UNL     1      34.209 -22.464 -13.894  0.00  0.00    +0.150 HD
BRANCH   4   6
ATOM      6  C   UNL     1      34.419 -24.355 -12.326  0.00  0.00    +0.087 C 
BRANCH   6  10
ATOM      7  N   UNL     1      37.970 -25.356 -13.256  0.00  0.00    -0.282 N 
ATOM      8  N   UNL     1      37.693 -25.998 -15.427  0.00  0.00    -0.331 N 
ATOM      9  N   UNL     1      39.770 -26.331 -14.384  0.00  0.00    -0.273 NA
ATOM     10  C   UNL     1      35.880 -24.182 -12.735  0.00  0.00    +0.029 C 
ATOM     11  C   UNL     1      36.641 -23.344 -11.697  0.00  0.00    +0.004 C 
ATOM     12  C   UNL     1      36.558 -25.545 -12.930  0.00  0.00    +0.094 C 
ATOM     13  C   UNL     1      38.118 -23.225 -12.069  0.00  0.00    +0.022 C 
ATOM     14  C   UNL     1      38.749 -24.599 -12.279  0.00  0.00    +0.093 C 
ATOM     15  C   UNL     1      38.537 -25.913 -14.351  0.00  0.00    +0.174 C 
ATOM     16  H   UNL     1      36.768 -25.669 -15.355  0.00  0.00    +0.145 HD
ATOM     17  H   UNL     1      38.012 -26.389 -16.273  0.00  0.00    +0.145 HD
ATOM     18  H   UNL     1      40.339 -26.249 -13.584  0.00  0.00    +0.189 HD
ENDBRANCH   6  10
ENDBRANCH   4   6
ENDBRANCH   1   3
BRANCH   1  20
ATOM     19  O   UNL     1      30.634 -22.783 -14.341  0.00  0.00    -0.248 OA
ATOM     20  C   UNL     1      31.337 -23.238 -15.238  0.00  0.00    +0.335 C 
BRANCH  20  21
ATOM     21  O   UNL     1      30.925 -24.133 -16.180  0.00  0.00    -0.443 OA
ATOM     22  C   UNL     1      29.912 -25.052 -15.762  0.00  0.00    +0.256 C 
ENDBRANCH  20  21
ENDBRANCH   1  20
BRANCH   1  23
ATOM     23  C   UNL     1      33.426 -23.510 -16.648  0.00  0.00    +0.057 C 
BRANCH  23  24
ATOM     24  C   UNL     1      33.632 -22.567 -17.813  0.00  0.00    -0.020 C 
ATOM     25  C   UNL     1      32.534 -21.961 -18.423  0.00  0.00    -0.004 C 
ATOM     26  C   UNL     1      34.921 -22.303 -18.277  0.00  0.00    -0.004 C 
ATOM     27  C   UNL     1      32.724 -21.092 -19.497  0.00  0.00    +0.008 C 
ATOM     28  C   UNL     1      35.111 -21.434 -19.350  0.00  0.00    +0.008 C 
ATOM     29  C   UNL     1      34.013 -20.828 -19.961  0.00  0.00    +0.042 C 
BRANCH  29  30
ATOM     30  C   UNL     1      34.207 -19.938 -21.062  0.00  0.00    -0.060 C 
ATOM     31  C   UNL     1      34.369 -19.190 -21.987  0.00  0.00    -0.060 C 
BRANCH  31  32
ATOM     32  C   UNL     1      34.563 -18.298 -23.089  0.00  0.00    +0.042 C 
ATOM     33  C   UNL     1      34.850 -16.954 -22.856  0.00  0.00    +0.008 C 
ATOM     34  C   UNL     1      34.463 -18.774 -24.397  0.00  0.00    +0.008 C 
ATOM     35  C   UNL     1      35.039 -16.084 -23.930  0.00  0.00    +0.001 C 
ATOM     36  C   UNL     1      34.653 -17.904 -25.471  0.00  0.00    +0.001 C 
ATOM     37  C   UNL     1      34.940 -16.559 -25.237  0.00  0.00    +0.000 C 
ENDBRANCH  31  32
ENDBRANCH  29  30
ENDBRANCH  23  24
ENDBRANCH   1  23
TORSDOF 9
ENDMDL
MODEL 6
REMARK VINA RESULT:     -10.5      8.627     15.184
REMARK  Name = 5288250
REMARK  9 active torsions:
REMARK  status: ('A' for Active; 'I' for Inactive)
REMARK    1  A    between atoms: C_1  and  N_3
REMARK    2  A    between atoms: C_1  and  C_20
REMARK    3  A    between atoms: C_1  and  C_23
REMARK    4  A    between atoms: C_4  and  C_6
REMARK    5  A    between atoms: C_6  and  C_10
REMARK    6  A    between atoms: C_20  and  O_21
REMARK    7  A    between atoms: C_23  and  C_24
REMARK    8  A    between atoms: C_29  and  C_30
REMARK    9  A    between atoms: C_31  and  C_32
REMARK                            x       y       z     vdW  Elec       q    Type
REMARK                         _______ _______ _______ _____ _____    ______ ____
ROOT
ATOM      1  C   UNL     1      34.335 -11.450 -24.242  0.00  0.00    +0.176 C 
ENDROOT
BRANCH   1   3
ATOM      2  O   UNL     1      32.376  -9.337 -23.974  0.00  0.00    -0.275 OA
ATOM      3  N   UNL     1      34.515 -10.167 -23.604  0.00  0.00    -0.297 N 
ATOM      4  C   UNL     1      33.511  -9.212 -23.524  0.00  0.00    +0.223 C 
ATOM      5  H   UNL     1      35.392  -9.961 -23.206  0.00  0.00    +0.150 HD
BRANCH   4   6
ATOM      6  C   UNL     1      33.991  -7.974 -22.797  0.00  0.00    +0.087 C 
BRANCH   6  10
ATOM      7  N   UNL     1      31.967  -5.222 -24.473  0.00  0.00    -0.282 N 
ATOM      8  N   UNL     1      31.387  -3.944 -22.675  0.00  0.00    -0.331 N 
ATOM      9  N   UNL     1      30.480  -3.445 -24.782  0.00  0.00    -0.273 NA
ATOM     10  C   UNL     1      33.716  -6.696 -23.587  0.00  0.00    +0.029 C 
ATOM     11  C   UNL     1      34.315  -6.788 -24.998  0.00  0.00    +0.004 C 
ATOM     12  C   UNL     1      32.210  -6.411 -23.658  0.00  0.00    +0.094 C 
ATOM     13  C   UNL     1      33.985  -5.539 -25.813  0.00  0.00    +0.022 C 
ATOM     14  C   UNL     1      32.482  -5.275 -25.839  0.00  0.00    +0.093 C 
ATOM     15  C   UNL     1      31.243  -4.173 -24.017  0.00  0.00    +0.174 C 
ATOM     16  H   UNL     1      31.976  -4.520 -22.137  0.00  0.00    +0.145 HD
ATOM     17  H   UNL     1      30.901  -3.201 -22.247  0.00  0.00    +0.145 HD
ATOM     18  H   UNL     1      30.408  -3.649 -25.743  0.00  0.00    +0.189 HD
ENDBRANCH   6  10
ENDBRANCH   4   6
ENDBRANCH   1   3
BRANCH   1  20
ATOM     19  O   UNL     1      35.225 -10.754 -26.378  0.00  0.00    -0.248 OA
ATOM     20  C   UNL     1      34.347 -11.350 -25.761  0.00  0.00    +0.335 C 
BRANCH  20  21
ATOM     21  O   UNL     1      33.277 -11.976 -26.327  0.00  0.00    -0.443 OA
ATOM     22  C   UNL     1      33.588 -13.048 -27.223  0.00  0.00    +0.256 C 
ENDBRANCH  20  21
ENDBRANCH   1  20
BRANCH   1  23
ATOM     23  C   UNL     1      33.076 -12.161 -23.723  0.00  0.00    +0.057 C 
BRANCH  23  24
ATOM     24  C   UNL     1      33.320 -13.537 -23.144  0.00  0.00    -0.020 C 
ATOM     25  C   UNL     1      34.220 -14.404 -23.762  0.00  0.00    -0.004 C 
ATOM     26  C   UNL     1      32.645 -13.937 -21.991  0.00  0.00    -0.004 C 
ATOM     27  C   UNL     1      34.445 -15.673 -23.228  0.00  0.00    +0.008 C 
ATOM     28  C   UNL     1      32.870 -15.206 -21.456  0.00  0.00    +0.008 C 
ATOM     29  C   UNL     1      33.770 -16.074 -22.075  0.00  0.00    +0.042 C 
BRANCH  29  30
ATOM     30  C   UNL     1      34.000 -17.374 -21.528  0.00  0.00    -0.060 C 
ATOM     31  C   UNL     1      34.194 -18.467 -21.071  0.00  0.00    -0.060 C 
BRANCH  31  32
ATOM     32  C   UNL     1      34.426 -19.769 -20.523  0.00  0.00    +0.042 C 
ATOM     33  C   UNL     1      35.727 -20.258 -20.415  0.00  0.00    +0.008 C 
ATOM     34  C   UNL     1      33.349 -20.548 -20.100  0.00  0.00    +0.008 C 
ATOM     35  C   UNL     1      35.954 -21.527 -19.882  0.00  0.00    +0.001 C 
ATOM     36  C   UNL     1      33.576 -21.818 -19.567  0.00  0.00    +0.001 C 
ATOM     37  C   UNL     1      34.878 -22.306 -19.458  0.00  0.00    +0.000 C 
ENDBRANCH  31  32
ENDBRANCH  29  30
ENDBRANCH  23  24
ENDBRANCH   1  23
TORSDOF 9
ENDMDL
MODEL 7
REMARK VINA RESULT:     -10.1      1.993      3.316
REMARK  Name = 5288250
REMARK  9 active torsions:
REMARK  status: ('A' for Active; 'I' for Inactive)
REMARK    1  A    between atoms: C_1  and  N_3
REMARK    2  A    between atoms: C_1  and  C_20
REMARK    3  A    between atoms: C_1  and  C_23
REMARK    4  A    between atoms: C_4  and  C_6
REMARK    5  A    between atoms: C_6  and  C_10
REMARK    6  A    between atoms: C_20  and  O_21
REMARK    7  A    between atoms: C_23  and  C_24
REMARK    8  A    between atoms: C_29  and  C_30
REMARK    9  A    between atoms: C_31  and  C_32
REMARK                            x       y       z     vdW  Elec       q    Type
REMARK                         _______ _______ _______ _____ _____    ______ ____
ROOT
ATOM      1  C   UNL     1      33.347 -23.130 -15.504  0.00  0.00    +0.176 C 
ENDROOT
BRANCH   1   3
ATOM      2  O   UNL     1      35.980 -21.997 -15.110  0.00  0.00    -0.275 OA
ATOM      3  N   UNL     1      34.251 -23.380 -14.406  0.00  0.00    -0.297 N 
ATOM      4  C   UNL     1      35.501 -22.787 -14.302  0.00  0.00    +0.223 C 
ATOM      5  H   UNL     1      33.966 -24.001 -13.696  0.00  0.00    +0.150 HD
BRANCH   4   6
ATOM      6  C   UNL     1      36.218 -23.236 -13.046  0.00  0.00    +0.087 C 
BRANCH   6  10
ATOM      7  N   UNL     1      38.715 -25.477 -14.839  0.00  0.00    -0.282 N 
ATOM      8  N   UNL     1      40.681 -24.432 -14.343  0.00  0.00    -0.331 N 
ATOM      9  N   UNL     1      40.682 -26.229 -15.854  0.00  0.00    -0.273 NA
ATOM     10  C   UNL     1      37.114 -24.447 -13.292  0.00  0.00    +0.029 C 
ATOM     11  C   UNL     1      36.284 -25.739 -13.334  0.00  0.00    +0.004 C 
ATOM     12  C   UNL     1      37.916 -24.279 -14.589  0.00  0.00    +0.094 C 
ATOM     13  C   UNL     1      37.168 -26.945 -13.646  0.00  0.00    +0.022 C 
ATOM     14  C   UNL     1      37.967 -26.729 -14.928  0.00  0.00    +0.093 C 
ATOM     15  C   UNL     1      40.050 -25.420 -15.051  0.00  0.00    +0.174 C 
ATOM     16  H   UNL     1      40.162 -23.844 -13.748  0.00  0.00    +0.145 HD
ATOM     17  H   UNL     1      41.654 -24.309 -14.429  0.00  0.00    +0.145 HD
ATOM     18  H   UNL     1      40.184 -26.925 -16.342  0.00  0.00    +0.189 HD
ENDBRANCH   6  10
ENDBRANCH   4   6
ENDBRANCH   1   3
BRANCH   1  20
ATOM     19  O   UNL     1      31.114 -23.832 -16.104  0.00  0.00    -0.248 OA
ATOM     20  C   UNL     1      31.934 -23.618 -15.216  0.00  0.00    +0.335 C 
BRANCH  20  21
ATOM     21  O   UNL     1      31.702 -23.764 -13.881  0.00  0.00    -0.443 OA
ATOM     22  C   UNL     1      31.099 -25.001 -13.487  0.00  0.00    +0.256 C 
ENDBRANCH  20  21
ENDBRANCH   1  20
BRANCH   1  23
ATOM     23  C   UNL     1      33.895 -23.700 -16.821  0.00  0.00    +0.057 C 
BRANCH  23  24
ATOM     24  C   UNL     1      34.023 -22.693 -17.941  0.00  0.00    -0.020 C 
ATOM     25  C   UNL     1      35.285 -22.305 -18.391  0.00  0.00    -0.004 C 
ATOM     26  C   UNL     1      32.878 -22.151 -18.526  0.00  0.00    -0.004 C 
ATOM     27  C   UNL     1      35.403 -21.375 -19.424  0.00  0.00    +0.008 C 
ATOM     28  C   UNL     1      32.995 -21.222 -19.559  0.00  0.00    +0.008 C 
ATOM     29  C   UNL     1      34.257 -20.834 -20.008  0.00  0.00    +0.042 C 
BRANCH  29  30
ATOM     30  C   UNL     1      34.378 -19.881 -21.066  0.00  0.00    -0.060 C 
ATOM     31  C   UNL     1      34.478 -19.081 -21.956  0.00  0.00    -0.060 C 
BRANCH  31  32
ATOM     32  C   UNL     1      34.597 -18.126 -23.016  0.00  0.00    +0.042 C 
ATOM     33  C   UNL     1      34.776 -16.776 -22.720  0.00  0.00    +0.008 C 
ATOM     34  C   UNL     1      34.534 -18.548 -24.344  0.00  0.00    +0.008 C 
ATOM     35  C   UNL     1      34.893 -15.844 -23.752  0.00  0.00    +0.001 C 
ATOM     36  C   UNL     1      34.651 -17.616 -25.376  0.00  0.00    +0.001 C 
ATOM     37  C   UNL     1      34.830 -16.265 -25.079  0.00  0.00    +0.000 C 
ENDBRANCH  31  32
ENDBRANCH  29  30
ENDBRANCH  23  24
ENDBRANCH   1  23
TORSDOF 9
ENDMDL
MODEL 8
REMARK VINA RESULT:     -10.0      4.281      7.852
REMARK  Name = 5288250
REMARK  9 active torsions:
REMARK  status: ('A' for Active; 'I' for Inactive)
REMARK    1  A    between atoms: C_1  and  N_3
REMARK    2  A    between atoms: C_1  and  C_20
REMARK    3  A    between atoms: C_1  and  C_23
REMARK    4  A    between atoms: C_4  and  C_6
REMARK    5  A    between atoms: C_6  and  C_10
REMARK    6  A    between atoms: C_20  and  O_21
REMARK    7  A    between atoms: C_23  and  C_24
REMARK    8  A    between atoms: C_29  and  C_30
REMARK    9  A    between atoms: C_31  and  C_32
REMARK                            x       y       z     vdW  Elec       q    Type
REMARK                         _______ _______ _______ _____ _____    ______ ____
ROOT
ATOM      1  C   UNL     1      34.549 -16.123 -22.424  0.00  0.00    +0.176 C 
ENDROOT
BRANCH   1   3
ATOM      2  O   UNL     1      36.007 -17.865 -20.630  0.00  0.00    -0.275 OA
ATOM      3  N   UNL     1      34.428 -17.558 -22.307  0.00  0.00    -0.297 N 
ATOM      4  C   UNL     1      35.173 -18.312 -21.412  0.00  0.00    +0.223 C 
ATOM      5  H   UNL     1      33.784 -18.023 -22.890  0.00  0.00    +0.150 HD
BRANCH   4   6
ATOM      6  C   UNL     1      34.828 -19.782 -21.514  0.00  0.00    +0.087 C 
BRANCH   6  10
ATOM      7  N   UNL     1      35.603 -21.989 -18.513  0.00  0.00    -0.282 N 
ATOM      8  N   UNL     1      37.166 -20.729 -17.431  0.00  0.00    -0.331 N 
ATOM      9  N   UNL     1      36.699 -22.896 -16.659  0.00  0.00    -0.273 NA
ATOM     10  C   UNL     1      34.640 -20.430 -20.144  0.00  0.00    +0.029 C 
ATOM     11  C   UNL     1      33.329 -21.230 -20.095  0.00  0.00    +0.004 C 
ATOM     12  C   UNL     1      35.834 -21.329 -19.797  0.00  0.00    +0.094 C 
ATOM     13  C   UNL     1      33.172 -21.935 -18.748  0.00  0.00    +0.022 C 
ATOM     14  C   UNL     1      34.388 -22.797 -18.427  0.00  0.00    +0.093 C 
ATOM     15  C   UNL     1      36.495 -21.921 -17.498  0.00  0.00    +0.174 C 
ATOM     16  H   UNL     1      36.978 -20.020 -18.088  0.00  0.00    +0.145 HD
ATOM     17  H   UNL     1      37.837 -20.581 -16.725  0.00  0.00    +0.145 HD
ATOM     18  H   UNL     1      36.191 -23.736 -16.747  0.00  0.00    +0.189 HD
ENDBRANCH   6  10
ENDBRANCH   4   6
ENDBRANCH   1   3
BRANCH   1  20
ATOM     19  O   UNL     1      34.964 -14.544 -20.642  0.00  0.00    -0.248 OA
ATOM     20  C   UNL     1      34.231 -15.405 -21.119  0.00  0.00    +0.335 C 
BRANCH  20  21
ATOM     21  O   UNL     1      33.070 -15.846 -20.560  0.00  0.00    -0.443 OA
ATOM     22  C   UNL     1      32.355 -14.886 -19.775  0.00  0.00    +0.256 C 
ENDBRANCH  20  21
ENDBRANCH   1  20
BRANCH   1  23
ATOM     23  C   UNL     1      33.714 -15.585 -23.595  0.00  0.00    +0.057 C 
BRANCH  23  24
ATOM     24  C   UNL     1      33.385 -14.111 -23.512  0.00  0.00    -0.020 C 
ATOM     25  C   UNL     1      34.149 -13.184 -24.220  0.00  0.00    -0.004 C 
ATOM     26  C   UNL     1      32.316 -13.679 -22.726  0.00  0.00    -0.004 C 
ATOM     27  C   UNL     1      33.846 -11.825 -24.143  0.00  0.00    +0.008 C 
ATOM     28  C   UNL     1      32.012 -12.320 -22.649  0.00  0.00    +0.008 C 
ATOM     29  C   UNL     1      32.777 -11.393 -23.357  0.00  0.00    +0.042 C 
BRANCH  29  30
ATOM     30  C   UNL     1      32.466 -10.000 -23.278  0.00  0.00    -0.060 C 
ATOM     31  C   UNL     1      32.207  -8.830 -23.210  0.00  0.00    -0.060 C 
BRANCH  31  32
ATOM     32  C   UNL     1      31.897  -7.435 -23.130  0.00  0.00    +0.042 C 
ATOM     33  C   UNL     1      31.964  -6.775 -21.904  0.00  0.00    +0.008 C 
ATOM     34  C   UNL     1      31.528  -6.736 -24.280  0.00  0.00    +0.008 C 
ATOM     35  C   UNL     1      31.662  -5.415 -21.825  0.00  0.00    +0.001 C 
ATOM     36  C   UNL     1      31.226  -5.376 -24.202  0.00  0.00    +0.001 C 
ATOM     37  C   UNL     1      31.293  -4.716 -22.974  0.00  0.00    +0.000 C 
ENDBRANCH  31  32
ENDBRANCH  29  30
ENDBRANCH  23  24
ENDBRANCH   1  23
TORSDOF 9
ENDMDL
MODEL 9
REMARK VINA RESULT:     -10.0      1.324      1.903
REMARK  Name = 5288250
REMARK  9 active torsions:
REMARK  status: ('A' for Active; 'I' for Inactive)
REMARK    1  A    between atoms: C_1  and  N_3
REMARK    2  A    between atoms: C_1  and  C_20
REMARK    3  A    between atoms: C_1  and  C_23
REMARK    4  A    between atoms: C_4  and  C_6
REMARK    5  A    between atoms: C_6  and  C_10
REMARK    6  A    between atoms: C_20  and  O_21
REMARK    7  A    between atoms: C_23  and  C_24
REMARK    8  A    between atoms: C_29  and  C_30
REMARK    9  A    between atoms: C_31  and  C_32
REMARK                            x       y       z     vdW  Elec       q    Type
REMARK                         _______ _______ _______ _____ _____    ______ ____
ROOT
ATOM      1  C   UNL     1      35.156 -22.126 -18.621  0.00  0.00    +0.176 C 
ENDROOT
BRANCH   1   3
ATOM      2  O   UNL     1      35.881 -21.513 -15.887  0.00  0.00    -0.275 OA
ATOM      3  N   UNL     1      36.410 -22.412 -17.964  0.00  0.00    -0.297 N 
ATOM      4  C   UNL     1      36.666 -22.079 -16.642  0.00  0.00    +0.223 C 
ATOM      5  H   UNL     1      37.116 -22.867 -18.478  0.00  0.00    +0.150 HD
BRANCH   4   6
ATOM      6  C   UNL     1      38.059 -22.506 -16.229  0.00  0.00    +0.087 C 
BRANCH   6  10
ATOM      7  N   UNL     1      37.585 -24.863 -13.280  0.00  0.00    -0.282 N 
ATOM      8  N   UNL     1      35.323 -25.161 -13.314  0.00  0.00    -0.331 N 
ATOM      9  N   UNL     1      36.576 -26.052 -11.539  0.00  0.00    -0.273 NA
ATOM     10  C   UNL     1      38.056 -23.819 -15.450  0.00  0.00    +0.029 C 
ATOM     11  C   UNL     1      39.464 -24.431 -15.408  0.00  0.00    +0.004 C 
ATOM     12  C   UNL     1      37.517 -23.609 -14.028  0.00  0.00    +0.094 C 
ATOM     13  C   UNL     1      39.478 -25.710 -14.572  0.00  0.00    +0.022 C 
ATOM     14  C   UNL     1      38.911 -25.466 -13.176  0.00  0.00    +0.093 C 
ATOM     15  C   UNL     1      36.504 -25.389 -12.658  0.00  0.00    +0.174 C 
ATOM     16  H   UNL     1      35.318 -24.653 -14.157  0.00  0.00    +0.145 HD
ATOM     17  H   UNL     1      34.479 -25.504 -12.940  0.00  0.00    +0.145 HD
ATOM     18  H   UNL     1      37.450 -26.191 -11.105  0.00  0.00    +0.189 HD
ENDBRANCH   6  10
ENDBRANCH   4   6
ENDBRANCH   1   3
BRANCH   1  20
ATOM     19  O   UNL     1      33.794 -24.001 -19.304  0.00  0.00    -0.248 OA
ATOM     20  C   UNL     1      34.126 -23.227 -18.412  0.00  0.00    +0.335 C 
BRANCH  20  21
ATOM     21  O   UNL     1      33.624 -23.229 -17.145  0.00  0.00    -0.443 OA
ATOM     22  C   UNL     1      32.217 -22.992 -17.035  0.00  0.00    +0.256 C 
ENDBRANCH  20  21
ENDBRANCH   1  20
BRANCH   1  23
ATOM     23  C   UNL     1      35.364 -21.808 -20.109  0.00  0.00    +0.057 C 
BRANCH  23  24
ATOM     24  C   UNL     1      34.984 -20.402 -20.514  0.00  0.00    -0.020 C 
ATOM     25  C   UNL     1      35.973 -19.438 -20.704  0.00  0.00    -0.004 C 
ATOM     26  C   UNL     1      33.642 -20.069 -20.699  0.00  0.00    -0.004 C 
ATOM     27  C   UNL     1      35.622 -18.141 -21.077  0.00  0.00    +0.008 C 
ATOM     28  C   UNL     1      33.290 -18.772 -21.073  0.00  0.00    +0.008 C 
ATOM     29  C   UNL     1      34.280 -17.808 -21.262  0.00  0.00    +0.042 C 
BRANCH  29  30
ATOM     30  C   UNL     1      33.920 -16.478 -21.644  0.00  0.00    -0.060 C 
ATOM     31  C   UNL     1      33.617 -15.362 -21.964  0.00  0.00    -0.060 C 
BRANCH  31  32
ATOM     32  C   UNL     1      33.256 -14.030 -22.345  0.00  0.00    +0.042 C 
ATOM     33  C   UNL     1      33.964 -13.379 -23.354  0.00  0.00    +0.008 C 
ATOM     34  C   UNL     1      32.197 -13.385 -21.706  0.00  0.00    +0.008 C 
ATOM     35  C   UNL     1      33.613 -12.081 -23.726  0.00  0.00    +0.001 C 
ATOM     36  C   UNL     1      31.846 -12.087 -22.078  0.00  0.00    +0.001 C 
ATOM     37  C   UNL     1      32.555 -11.435 -23.088  0.00  0.00    +0.000 C 
ENDBRANCH  31  32
ENDBRANCH  29  30
ENDBRANCH  23  24
ENDBRANCH   1  23
TORSDOF 9
ENDMDL
