MODEL 1
REMARK VINA RESULT:      -9.1      0.000      0.000
REMARK  Name = 3955
REMARK  8 active torsions:
REMARK  status: ('A' for Active; 'I' for Inactive)
REMARK    1  A    between atoms: C_1  and  C_2
REMARK    2  A    between atoms: C_1  and  C_19
REMARK    3  A    between atoms: C_2  and  N_3
REMARK    4  A    between atoms: C_4  and  C_11
REMARK    5  A    between atoms: C_4  and  O_17
REMARK    6  A    between atoms: C_19  and  C_20
REMARK    7  A    between atoms: C_19  and  C_26
REMARK    8  A    between atoms: C_19  and  C_34
REMARK                            x       y       z     vdW  Elec       q    Type
REMARK                         _______ _______ _______ _____ _____    ______ ____
ROOT
ATOM      1  C   UNL     1      35.584 -22.580 -15.391  0.00  0.00    -0.006 C 
ENDROOT
BRANCH   1   2
ATOM      2  C   UNL     1      36.326 -22.840 -16.713  0.00  0.00    -0.076 C 
BRANCH   2   3
ATOM      3  N   UNL     1      36.017 -21.783 -17.675  0.00  0.00    +0.387 N 
ATOM      4  C   UNL     1      35.755 -20.561 -20.370  0.00  0.00    +0.103 C 
ATOM      5  C   UNL     1      34.553 -21.088 -19.554  0.00  0.00    +0.008 C 
ATOM      6  C   UNL     1      36.916 -20.257 -19.396  0.00  0.00    +0.008 C 
ATOM      7  C   UNL     1      34.930 -22.200 -18.567  0.00  0.00    -0.075 C 
ATOM      8  C   UNL     1      37.215 -21.415 -18.438  0.00  0.00    -0.075 C 
ATOM      9  H   UNL     1      35.705 -20.958 -17.163  0.00  0.00    -0.080 HD
BRANCH   4  11
ATOM     10 CL   UNL     1      34.084 -15.929 -23.865  0.00  0.00    -0.082 Cl
ATOM     11  C   UNL     1      35.331 -19.388 -21.255  0.00  0.00    +0.002 C 
ATOM     12  C   UNL     1      35.393 -18.086 -20.762  0.00  0.00    -0.001 C 
ATOM     13  C   UNL     1      34.883 -19.623 -22.554  0.00  0.00    -0.001 C 
ATOM     14  C   UNL     1      35.007 -17.016 -21.569  0.00  0.00    +0.011 C 
ATOM     15  C   UNL     1      34.497 -18.553 -23.361  0.00  0.00    +0.011 C 
ATOM     16  C   UNL     1      34.560 -17.249 -22.868  0.00  0.00    +0.058 C 
ENDBRANCH   4  11
BRANCH   4  17
ATOM     17  O   UNL     1      36.200 -21.581 -21.277  0.00  0.00    -0.383 OA
ATOM     18  H   UNL     1      36.271 -21.212 -22.171  0.00  0.00    +0.211 HD
ENDBRANCH   4  17
ENDBRANCH   2   3
ENDBRANCH   1   2
BRANCH   1  19
ATOM     19  C   UNL     1      35.073 -23.848 -14.609  0.00  0.00    +0.104 C 
BRANCH  19  20
ATOM     20  C   UNL     1      35.689 -23.701 -13.167  0.00  0.00    -0.011 C 
ATOM     21  C   UNL     1      36.731 -22.846 -13.029  0.00  0.00    -0.004 C 
ATOM     22  C   UNL     1      35.129 -24.443 -12.182  0.00  0.00    -0.004 C 
ATOM     23  C   UNL     1      37.278 -22.717 -11.753  0.00  0.00    -0.000 C 
ATOM     24  C   UNL     1      35.676 -24.313 -10.905  0.00  0.00    -0.000 C 
ATOM     25  C   UNL     1      36.751 -23.451 -10.690  0.00  0.00    -0.000 C 
ENDBRANCH  19  20
BRANCH  19  26
ATOM     26  C   UNL     1      33.519 -23.923 -14.500  0.00  0.00    -0.011 C 
ATOM     27  C   UNL     1      32.989 -24.927 -13.749  0.00  0.00    -0.004 C 
ATOM     28  C   UNL     1      32.795 -22.979 -15.164  0.00  0.00    -0.004 C 
ATOM     29  C   UNL     1      31.599 -24.995 -13.652  0.00  0.00    -0.000 C 
ATOM     30  C   UNL     1      31.406 -23.046 -15.067  0.00  0.00    -0.000 C 
ATOM     31  C   UNL     1      30.807 -24.054 -14.311  0.00  0.00    -0.000 C 
ENDBRANCH  19  26
BRANCH  19  34
ATOM     32  O   UNL     1      34.808 -25.734 -16.147  0.00  0.00    -0.274 OA
ATOM     33  N   UNL     1      36.780 -25.769 -14.991  0.00  0.00    -0.276 N 
ATOM     34  C   UNL     1      35.539 -25.201 -15.298  0.00  0.00    +0.232 C 
ATOM     35  C   UNL     1      38.004 -25.066 -14.630  0.00  0.00    +0.115 C 
ATOM     36  C   UNL     1      36.936 -27.215 -15.116  0.00  0.00    +0.115 C 
ENDBRANCH  19  34
ENDBRANCH   1  19
TORSDOF 8
ENDMDL
MODEL 2
REMARK VINA RESULT:      -7.3      8.891     15.557
REMARK  Name = 3955
REMARK  8 active torsions:
REMARK  status: ('A' for Active; 'I' for Inactive)
REMARK    1  A    between atoms: C_1  and  C_2
REMARK    2  A    between atoms: C_1  and  C_19
REMARK    3  A    between atoms: C_2  and  N_3
REMARK    4  A    between atoms: C_4  and  C_11
REMARK    5  A    between atoms: C_4  and  O_17
REMARK    6  A    between atoms: C_19  and  C_20
REMARK    7  A    between atoms: C_19  and  C_26
REMARK    8  A    between atoms: C_19  and  C_34
REMARK                            x       y       z     vdW  Elec       q    Type
REMARK                         _______ _______ _______ _____ _____    ______ ____
ROOT
ATOM      1  C   UNL     1      31.260  -9.307 -23.005  0.00  0.00    -0.006 C 
ENDROOT
BRANCH   1   2
ATOM      2  C   UNL     1      31.222 -10.081 -21.677  0.00  0.00    -0.076 C 
BRANCH   2   3
ATOM      3  N   UNL     1      32.086 -11.258 -21.759  0.00  0.00    +0.387 N 
ATOM      4  C   UNL     1      32.729 -14.158 -21.703  0.00  0.00    +0.103 C 
ATOM      5  C   UNL     1      32.593 -13.341 -23.009  0.00  0.00    +0.008 C 
ATOM      6  C   UNL     1      33.040 -13.185 -20.544  0.00  0.00    +0.008 C 
ATOM      7  C   UNL     1      31.672 -12.123 -22.869  0.00  0.00    -0.075 C 
ATOM      8  C   UNL     1      32.080 -11.991 -20.488  0.00  0.00    -0.075 C 
ATOM      9  H   UNL     1      33.041 -10.949 -21.940  0.00  0.00    -0.080 HD
BRANCH   4  11
ATOM     10 CL   UNL     1      36.714 -18.639 -22.414  0.00  0.00    -0.082 Cl
ATOM     11  C   UNL     1      33.739 -15.292 -21.883  0.00  0.00    +0.002 C 
ATOM     12  C   UNL     1      34.053 -16.122 -20.808  0.00  0.00    -0.001 C 
ATOM     13  C   UNL     1      34.345 -15.494 -23.122  0.00  0.00    -0.001 C 
ATOM     14  C   UNL     1      34.973 -17.157 -20.972  0.00  0.00    +0.011 C 
ATOM     15  C   UNL     1      35.266 -16.529 -23.286  0.00  0.00    +0.011 C 
ATOM     16  C   UNL     1      35.579 -17.361 -22.211  0.00  0.00    +0.058 C 
ENDBRANCH   4  11
BRANCH   4  17
ATOM     17  O   UNL     1      31.480 -14.802 -21.412  0.00  0.00    -0.383 OA
ATOM     18  H   UNL     1      31.189 -15.310 -22.185  0.00  0.00    +0.211 HD
ENDBRANCH   4  17
ENDBRANCH   2   3
ENDBRANCH   1   2
BRANCH   1  19
ATOM     19  C   UNL     1      32.501  -8.366 -23.237  0.00  0.00    +0.104 C 
BRANCH  19  20
ATOM     20  C   UNL     1      33.502  -9.230 -24.091  0.00  0.00    -0.011 C 
ATOM     21  C   UNL     1      34.806  -8.861 -24.069  0.00  0.00    -0.004 C 
ATOM     22  C   UNL     1      32.980 -10.272 -24.782  0.00  0.00    -0.004 C 
ATOM     23  C   UNL     1      35.693  -9.626 -24.826  0.00  0.00    -0.000 C 
ATOM     24  C   UNL     1      33.867 -11.037 -25.539  0.00  0.00    -0.000 C 
ATOM     25  C   UNL     1      35.223 -10.714 -25.562  0.00  0.00    -0.000 C 
ENDBRANCH  19  20
BRANCH  19  26
ATOM     26  C   UNL     1      32.151  -7.062 -24.018  0.00  0.00    -0.011 C 
ATOM     27  C   UNL     1      33.187  -6.309 -24.482  0.00  0.00    -0.004 C 
ATOM     28  C   UNL     1      30.832  -6.761 -24.182  0.00  0.00    -0.004 C 
ATOM     29  C   UNL     1      32.873  -5.142 -25.180  0.00  0.00    -0.000 C 
ATOM     30  C   UNL     1      30.519  -5.596 -24.880  0.00  0.00    -0.000 C 
ATOM     31  C   UNL     1      31.540  -4.785 -25.378  0.00  0.00    -0.000 C 
ENDBRANCH  19  26
BRANCH  19  34
ATOM     32  O   UNL     1      34.353  -8.176 -21.648  0.00  0.00    -0.274 OA
ATOM     33  N   UNL     1      32.433  -7.159 -20.937  0.00  0.00    -0.276 N 
ATOM     34  C   UNL     1      33.163  -7.904 -21.869  0.00  0.00    +0.232 C 
ATOM     35  C   UNL     1      31.382  -6.189 -21.215  0.00  0.00    +0.115 C 
ATOM     36  C   UNL     1      32.787  -7.268 -19.526  0.00  0.00    +0.115 C 
ENDBRANCH  19  34
ENDBRANCH   1  19
TORSDOF 8
ENDMDL
MODEL 3
REMARK VINA RESULT:      -7.1      5.835     12.592
REMARK  Name = 3955
REMARK  8 active torsions:
REMARK  status: ('A' for Active; 'I' for Inactive)
REMARK    1  A    between atoms: C_1  and  C_2
REMARK    2  A    between atoms: C_1  and  C_19
REMARK    3  A    between atoms: C_2  and  N_3
REMARK    4  A    between atoms: C_4  and  C_11
REMARK    5  A    between atoms: C_4  and  O_17
REMARK    6  A    between atoms: C_19  and  C_20
REMARK    7  A    between atoms: C_19  and  C_26
REMARK    8  A    between atoms: C_19  and  C_34
REMARK                            x       y       z     vdW  Elec       q    Type
REMARK                         _______ _______ _______ _____ _____    ______ ____
ROOT
ATOM      1  C   UNL     1      34.621 -13.797 -23.301  0.00  0.00    -0.006 C 
ENDROOT
BRANCH   1   2
ATOM      2  C   UNL     1      34.672 -15.063 -24.173  0.00  0.00    -0.076 C 
BRANCH   2   3
ATOM      3  N   UNL     1      34.429 -16.247 -23.349  0.00  0.00    +0.387 N 
ATOM      4  C   UNL     1      35.176 -18.596 -21.692  0.00  0.00    +0.103 C 
ATOM      5  C   UNL     1      34.675 -17.260 -21.098  0.00  0.00    +0.008 C 
ATOM      6  C   UNL     1      34.694 -18.694 -23.157  0.00  0.00    +0.008 C 
ATOM      7  C   UNL     1      34.961 -16.051 -21.997  0.00  0.00    -0.075 C 
ATOM      8  C   UNL     1      35.008 -17.439 -23.978  0.00  0.00    -0.075 C 
ATOM      9  H   UNL     1      33.422 -16.389 -23.273  0.00  0.00    -0.080 HD
BRANCH   4  11
ATOM     10 CL   UNL     1      33.558 -23.218 -18.157  0.00  0.00    -0.082 Cl
ATOM     11  C   UNL     1      34.766 -19.768 -20.798  0.00  0.00    +0.002 C 
ATOM     12  C   UNL     1      35.742 -20.593 -20.241  0.00  0.00    -0.001 C 
ATOM     13  C   UNL     1      33.417 -20.008 -20.540  0.00  0.00    -0.001 C 
ATOM     14  C   UNL     1      35.368 -21.661 -19.425  0.00  0.00    +0.011 C 
ATOM     15  C   UNL     1      33.043 -21.075 -19.724  0.00  0.00    +0.011 C 
ATOM     16  C   UNL     1      34.020 -21.901 -19.166  0.00  0.00    +0.058 C 
ENDBRANCH   4  11
BRANCH   4  17
ATOM     17  O   UNL     1      36.610 -18.607 -21.701  0.00  0.00    -0.383 OA
ATOM     18  H   UNL     1      36.931 -19.421 -21.283  0.00  0.00    +0.211 HD
ENDBRANCH   4  17
ENDBRANCH   2   3
ENDBRANCH   1   2
BRANCH   1  19
ATOM     19  C   UNL     1      33.425 -12.808 -23.564  0.00  0.00    +0.104 C 
BRANCH  19  20
ATOM     20  C   UNL     1      32.708 -12.672 -22.168  0.00  0.00    -0.011 C 
ATOM     21  C   UNL     1      31.863 -11.624 -22.012  0.00  0.00    -0.004 C 
ATOM     22  C   UNL     1      32.995 -13.612 -21.236  0.00  0.00    -0.004 C 
ATOM     23  C   UNL     1      31.228 -11.502 -20.776  0.00  0.00    -0.000 C 
ATOM     24  C   UNL     1      32.360 -13.490 -20.000  0.00  0.00    -0.000 C 
ATOM     25  C   UNL     1      31.477 -12.435 -19.770  0.00  0.00    -0.000 C 
ENDBRANCH  19  20
BRANCH  19  26
ATOM     26  C   UNL     1      33.883 -11.397 -24.047  0.00  0.00    -0.011 C 
ATOM     27  C   UNL     1      35.035 -11.322 -24.768  0.00  0.00    -0.004 C 
ATOM     28  C   UNL     1      33.099 -10.334 -23.714  0.00  0.00    -0.004 C 
ATOM     29  C   UNL     1      35.444 -10.059 -25.199  0.00  0.00    -0.000 C 
ATOM     30  C   UNL     1      33.507  -9.072 -24.145  0.00  0.00    -0.000 C 
ATOM     31  C   UNL     1      34.680  -8.935 -24.887  0.00  0.00    -0.000 C 
ENDBRANCH  19  26
BRANCH  19  34
ATOM     32  O   UNL     1      31.262 -13.635 -24.354  0.00  0.00    -0.274 OA
ATOM     33  N   UNL     1      32.839 -13.490 -26.002  0.00  0.00    -0.276 N 
ATOM     34  C   UNL     1      32.428 -13.359 -24.671  0.00  0.00    +0.232 C 
ATOM     35  C   UNL     1      33.799 -12.654 -26.712  0.00  0.00    +0.115 C 
ATOM     36  C   UNL     1      32.202 -14.506 -26.832  0.00  0.00    +0.115 C 
ENDBRANCH  19  34
ENDBRANCH   1  19
TORSDOF 8
ENDMDL
MODEL 4
REMARK VINA RESULT:      -7.0      1.360      3.658
REMARK  Name = 3955
REMARK  8 active torsions:
REMARK  status: ('A' for Active; 'I' for Inactive)
REMARK    1  A    between atoms: C_1  and  C_2
REMARK    2  A    between atoms: C_1  and  C_19
REMARK    3  A    between atoms: C_2  and  N_3
REMARK    4  A    between atoms: C_4  and  C_11
REMARK    5  A    between atoms: C_4  and  O_17
REMARK    6  A    between atoms: C_19  and  C_20
REMARK    7  A    between atoms: C_19  and  C_26
REMARK    8  A    between atoms: C_19  and  C_34
REMARK                            x       y       z     vdW  Elec       q    Type
REMARK                         _______ _______ _______ _____ _____    ______ ____
ROOT
ATOM      1  C   UNL     1      36.083 -22.689 -16.055  0.00  0.00    -0.006 C 
ENDROOT
BRANCH   1   2
ATOM      2  C   UNL     1      35.082 -22.965 -17.190  0.00  0.00    -0.076 C 
BRANCH   2   3
ATOM      3  N   UNL     1      35.037 -21.826 -18.105  0.00  0.00    +0.387 N 
ATOM      4  C   UNL     1      35.219 -20.448 -20.730  0.00  0.00    +0.103 C 
ATOM      5  C   UNL     1      33.879 -20.804 -20.047  0.00  0.00    +0.008 C 
ATOM      6  C   UNL     1      36.323 -20.391 -19.650  0.00  0.00    +0.008 C 
ATOM      7  C   UNL     1      33.980 -22.009 -19.104  0.00  0.00    -0.075 C 
ATOM      8  C   UNL     1      36.342 -21.628 -18.746  0.00  0.00    -0.075 C 
ATOM      9  H   UNL     1      34.820 -20.986 -17.568  0.00  0.00    -0.080 HD
BRANCH   4  11
ATOM     10 CL   UNL     1      34.633 -15.435 -24.045  0.00  0.00    -0.082 Cl
ATOM     11  C   UNL     1      35.072 -19.178 -21.570  0.00  0.00    +0.002 C 
ATOM     12  C   UNL     1      34.928 -19.271 -22.954  0.00  0.00    -0.001 C 
ATOM     13  C   UNL     1      35.082 -17.929 -20.951  0.00  0.00    -0.001 C 
ATOM     14  C   UNL     1      34.792 -18.113 -23.720  0.00  0.00    +0.011 C 
ATOM     15  C   UNL     1      34.947 -16.771 -21.717  0.00  0.00    +0.011 C 
ATOM     16  C   UNL     1      34.801 -16.864 -23.101  0.00  0.00    +0.058 C 
ENDBRANCH   4  11
BRANCH   4  17
ATOM     17  O   UNL     1      35.570 -21.482 -21.661  0.00  0.00    -0.383 OA
ATOM     18  H   UNL     1      34.764 -21.925 -21.972  0.00  0.00    +0.211 HD
ENDBRANCH   4  17
ENDBRANCH   2   3
ENDBRANCH   1   2
BRANCH   1  19
ATOM     19  C   UNL     1      35.923 -23.554 -14.750  0.00  0.00    +0.104 C 
BRANCH  19  20
ATOM     20  C   UNL     1      34.368 -23.717 -14.568  0.00  0.00    -0.011 C 
ATOM     21  C   UNL     1      33.603 -22.625 -14.811  0.00  0.00    -0.004 C 
ATOM     22  C   UNL     1      33.919 -24.936 -14.182  0.00  0.00    -0.004 C 
ATOM     23  C   UNL     1      32.225 -22.770 -14.650  0.00  0.00    -0.000 C 
ATOM     24  C   UNL     1      32.541 -25.080 -14.020  0.00  0.00    -0.000 C 
ATOM     25  C   UNL     1      31.694 -23.997 -14.253  0.00  0.00    -0.000 C 
ENDBRANCH  19  20
BRANCH  19  26
ATOM     26  C   UNL     1      36.580 -24.964 -14.856  0.00  0.00    -0.011 C 
ATOM     27  C   UNL     1      37.795 -25.140 -14.267  0.00  0.00    -0.004 C 
ATOM     28  C   UNL     1      35.895 -25.927 -15.534  0.00  0.00    -0.004 C 
ATOM     29  C   UNL     1      38.382 -26.402 -14.363  0.00  0.00    -0.000 C 
ATOM     30  C   UNL     1      36.481 -27.189 -15.630  0.00  0.00    -0.000 C 
ATOM     31  C   UNL     1      37.725 -27.426 -15.045  0.00  0.00    -0.000 C 
ENDBRANCH  19  26
BRANCH  19  34
ATOM     32  O   UNL     1      37.287 -21.845 -13.648  0.00  0.00    -0.274 OA
ATOM     33  N   UNL     1      36.326 -23.323 -12.193  0.00  0.00    -0.276 N 
ATOM     34  C   UNL     1      36.578 -22.850 -13.485  0.00  0.00    +0.232 C 
ATOM     35  C   UNL     1      35.102 -23.950 -11.709  0.00  0.00    +0.115 C 
ATOM     36  C   UNL     1      37.337 -23.111 -11.162  0.00  0.00    +0.115 C 
ENDBRANCH  19  34
ENDBRANCH   1  19
TORSDOF 8
ENDMDL
MODEL 5
REMARK VINA RESULT:      -6.5      5.846     12.839
REMARK  Name = 3955
REMARK  8 active torsions:
REMARK  status: ('A' for Active; 'I' for Inactive)
REMARK    1  A    between atoms: C_1  and  C_2
REMARK    2  A    between atoms: C_1  and  C_19
REMARK    3  A    between atoms: C_2  and  N_3
REMARK    4  A    between atoms: C_4  and  C_11
REMARK    5  A    between atoms: C_4  and  O_17
REMARK    6  A    between atoms: C_19  and  C_20
REMARK    7  A    between atoms: C_19  and  C_26
REMARK    8  A    between atoms: C_19  and  C_34
REMARK                            x       y       z     vdW  Elec       q    Type
REMARK                         _______ _______ _______ _____ _____    ______ ____
ROOT
ATOM      1  C   UNL     1      34.425 -13.491 -22.995  0.00  0.00    -0.006 C 
ENDROOT
BRANCH   1   2
ATOM      2  C   UNL     1      35.000 -14.715 -23.725  0.00  0.00    -0.076 C 
BRANCH   2   3
ATOM      3  N   UNL     1      34.681 -15.935 -22.985  0.00  0.00    +0.387 N 
ATOM      4  C   UNL     1      35.270 -18.461 -21.537  0.00  0.00    +0.103 C 
ATOM      5  C   UNL     1      34.906 -17.138 -20.826  0.00  0.00    +0.008 C 
ATOM      6  C   UNL     1      34.738 -18.404 -22.987  0.00  0.00    +0.008 C 
ATOM      7  C   UNL     1      35.268 -15.891 -21.642  0.00  0.00    -0.075 C 
ATOM      8  C   UNL     1      35.135 -17.119 -23.722  0.00  0.00    -0.075 C 
ATOM      9  H   UNL     1      33.668 -15.998 -22.882  0.00  0.00    -0.080 HD
BRANCH   4  11
ATOM     10 CL   UNL     1      33.366 -23.199 -18.313  0.00  0.00    -0.082 Cl
ATOM     11  C   UNL     1      34.788 -19.660 -20.720  0.00  0.00    +0.002 C 
ATOM     12  C   UNL     1      33.422 -19.902 -20.577  0.00  0.00    -0.001 C 
ATOM     13  C   UNL     1      35.715 -20.511 -20.118  0.00  0.00    -0.001 C 
ATOM     14  C   UNL     1      32.982 -20.997 -19.833  0.00  0.00    +0.011 C 
ATOM     15  C   UNL     1      35.275 -21.605 -19.373  0.00  0.00    +0.011 C 
ATOM     16  C   UNL     1      33.908 -21.848 -19.231  0.00  0.00    +0.058 C 
ENDBRANCH   4  11
BRANCH   4  17
ATOM     17  O   UNL     1      36.698 -18.592 -21.600  0.00  0.00    -0.383 OA
ATOM     18  H   UNL     1      36.931 -19.508 -21.819  0.00  0.00    +0.211 HD
ENDBRANCH   4  17
ENDBRANCH   2   3
ENDBRANCH   1   2
BRANCH   1  19
ATOM     19  C   UNL     1      33.313 -12.675 -23.754  0.00  0.00    +0.104 C 
BRANCH  19  20
ATOM     20  C   UNL     1      33.914 -11.228 -23.905  0.00  0.00    -0.011 C 
ATOM     21  C   UNL     1      33.336 -10.244 -23.173  0.00  0.00    -0.004 C 
ATOM     22  C   UNL     1      34.959 -11.081 -24.754  0.00  0.00    -0.004 C 
ATOM     23  C   UNL     1      33.868  -8.961 -23.307  0.00  0.00    -0.000 C 
ATOM     24  C   UNL     1      35.491  -9.799 -24.888  0.00  0.00    -0.000 C 
ATOM     25  C   UNL     1      34.945  -8.738 -24.165  0.00  0.00    -0.000 C 
ENDBRANCH  19  20
BRANCH  19  26
ATOM     26  C   UNL     1      32.984 -13.245 -25.168  0.00  0.00    -0.011 C 
ATOM     27  C   UNL     1      32.709 -14.575 -25.263  0.00  0.00    -0.004 C 
ATOM     28  C   UNL     1      32.995 -12.374 -26.216  0.00  0.00    -0.004 C 
ATOM     29  C   UNL     1      32.415 -15.084 -26.528  0.00  0.00    -0.000 C 
ATOM     30  C   UNL     1      32.701 -12.882 -27.480  0.00  0.00    -0.000 C 
ATOM     31  C   UNL     1      32.412 -14.238 -27.637  0.00  0.00    -0.000 C 
ENDBRANCH  19  26
BRANCH  19  34
ATOM     32  O   UNL     1      30.873 -12.587 -23.579  0.00  0.00    -0.274 OA
ATOM     33  N   UNL     1      31.927 -12.736 -21.557  0.00  0.00    -0.276 N 
ATOM     34  C   UNL     1      31.942 -12.647 -22.953  0.00  0.00    +0.232 C 
ATOM     35  C   UNL     1      32.866 -13.464 -20.712  0.00  0.00    +0.115 C 
ATOM     36  C   UNL     1      30.823 -12.120 -20.830  0.00  0.00    +0.115 C 
ENDBRANCH  19  34
ENDBRANCH   1  19
TORSDOF 8
ENDMDL
