MODEL 1
REMARK VINA RESULT:     -10.5      0.000      0.000
REMARK  Name = 5005498
REMARK  1 active torsions:
REMARK  status: ('A' for Active; 'I' for Inactive)
REMARK    1  A    between atoms: C_15  and  N_24
REMARK                            x       y       z     vdW  Elec       q    Type
REMARK                         _______ _______ _______ _____ _____    ______ ____
ROOT
ATOM      1  O   UNL     1      35.439 -22.877 -17.578  0.00  0.00    -0.274 OA
ATOM      2  N   UNL     1      32.684 -25.001 -13.594  0.00  0.00    -0.353 N 
ATOM      3  N   UNL     1      36.249 -23.609 -15.582  0.00  0.00    -0.284 N 
ATOM      4  C   UNL     1      33.260 -23.391 -15.005  0.00  0.00    +0.004 A 
ATOM      5  C   UNL     1      33.735 -24.208 -13.996  0.00  0.00    +0.054 A 
ATOM      6  C   UNL     1      31.883 -23.702 -15.216  0.00  0.00    +0.015 A 
ATOM      7  C   UNL     1      31.551 -24.714 -14.317  0.00  0.00    +0.056 A 
ATOM      8  C   UNL     1      34.089 -22.378 -15.688  0.00  0.00    +0.113 C 
ATOM      9  C   UNL     1      35.089 -24.285 -13.446  0.00  0.00    +0.029 C 
ATOM     10  C   UNL     1      36.236 -24.022 -14.225  0.00  0.00    +0.052 C 
ATOM     11  C   UNL     1      30.882 -23.219 -16.085  0.00  0.00    +0.025 C 
ATOM     12  C   UNL     1      35.287 -23.002 -16.359  0.00  0.00    +0.231 C 
ATOM     13  C   UNL     1      30.270 -25.273 -14.243  0.00  0.00    +0.019 C 
ATOM     14  C   UNL     1      35.258 -24.697 -12.109  0.00  0.00    +0.003 C 
ATOM     15  C   UNL     1      29.596 -23.767 -16.023  0.00  0.00    +0.143 C 
ATOM     16  C   UNL     1      29.296 -24.779 -15.115  0.00  0.00    +0.026 C 
ATOM     17  C   UNL     1      37.507 -24.244 -13.661  0.00  0.00    +0.015 C 
ATOM     18  C   UNL     1      36.527 -24.876 -11.559  0.00  0.00    +0.000 C 
ATOM     19  C   UNL     1      37.653 -24.660 -12.338  0.00  0.00    +0.001 C 
ATOM     20  H   UNL     1      32.738 -25.680 -12.884  0.00  0.00    +0.166 HD
ATOM     21  H   UNL     1      37.096 -23.787 -16.051  0.00  0.00    +0.155 HD
ENDROOT
BRANCH  15  24
ATOM     22  O   UNL     1      27.815 -24.105 -17.449  0.00  0.00    -0.126 OA
ATOM     23  O   UNL     1      28.490 -22.047 -17.091  0.00  0.00    -0.126 OA
ATOM     24  N   UNL     1      28.584 -23.284 -16.896  0.00  0.00    +0.058 N 
ENDBRANCH  15  24
TORSDOF 1
ENDMDL
MODEL 2
REMARK VINA RESULT:     -10.3     12.583     14.378
REMARK  Name = 5005498
REMARK  1 active torsions:
REMARK  status: ('A' for Active; 'I' for Inactive)
REMARK    1  A    between atoms: C_15  and  N_24
REMARK                            x       y       z     vdW  Elec       q    Type
REMARK                         _______ _______ _______ _____ _____    ______ ____
ROOT
ATOM      1  O   UNL     1      32.750 -13.188 -27.206  0.00  0.00    -0.274 OA
ATOM      2  N   UNL     1      32.748 -13.953 -21.974  0.00  0.00    -0.353 N 
ATOM      3  N   UNL     1      33.445 -15.043 -26.087  0.00  0.00    -0.284 N 
ATOM      4  C   UNL     1      33.359 -12.959 -23.859  0.00  0.00    +0.004 A 
ATOM      5  C   UNL     1      33.365 -14.166 -23.186  0.00  0.00    +0.054 A 
ATOM      6  C   UNL     1      32.721 -11.990 -23.027  0.00  0.00    +0.015 A 
ATOM      7  C   UNL     1      32.349 -12.643 -21.852  0.00  0.00    +0.056 A 
ATOM      8  C   UNL     1      33.951 -12.773 -25.198  0.00  0.00    +0.113 C 
ATOM      9  C   UNL     1      33.878 -15.461 -23.637  0.00  0.00    +0.029 C 
ATOM     10  C   UNL     1      33.876 -15.840 -24.996  0.00  0.00    +0.052 C 
ATOM     11  C   UNL     1      32.422 -10.618 -23.157  0.00  0.00    +0.025 C 
ATOM     12  C   UNL     1      33.306 -13.678 -26.219  0.00  0.00    +0.231 C 
ATOM     13  C   UNL     1      31.691 -11.996 -20.800  0.00  0.00    +0.019 C 
ATOM     14  C   UNL     1      34.333 -16.385 -22.676  0.00  0.00    +0.003 C 
ATOM     15  C   UNL     1      31.766  -9.956 -22.113  0.00  0.00    +0.143 C 
ATOM     16  C   UNL     1      31.406 -10.636 -20.953  0.00  0.00    +0.026 C 
ATOM     17  C   UNL     1      34.264 -17.151 -25.337  0.00  0.00    +0.015 C 
ATOM     18  C   UNL     1      34.748 -17.666 -23.039  0.00  0.00    +0.000 C 
ATOM     19  C   UNL     1      34.704 -18.053 -24.370  0.00  0.00    +0.001 C 
ATOM     20  H   UNL     1      32.613 -14.645 -21.286  0.00  0.00    +0.166 HD
ATOM     21  H   UNL     1      33.204 -15.554 -26.893  0.00  0.00    +0.155 HD
ENDROOT
BRANCH  15  24
ATOM     22  O   UNL     1      31.761  -7.797 -21.301  0.00  0.00    -0.126 OA
ATOM     23  O   UNL     1      30.906  -8.167 -23.289  0.00  0.00    -0.126 OA
ATOM     24  N   UNL     1      31.463  -8.573 -22.240  0.00  0.00    +0.058 N 
ENDBRANCH  15  24
TORSDOF 1
ENDMDL
MODEL 3
REMARK VINA RESULT:     -10.0     10.984     12.698
REMARK  Name = 5005498
REMARK  1 active torsions:
REMARK  status: ('A' for Active; 'I' for Inactive)
REMARK    1  A    between atoms: C_15  and  N_24
REMARK                            x       y       z     vdW  Elec       q    Type
REMARK                         _______ _______ _______ _____ _____    ______ ____
ROOT
ATOM      1  O   UNL     1      33.569 -15.827 -26.408  0.00  0.00    -0.274 OA
ATOM      2  N   UNL     1      33.127 -15.146 -21.182  0.00  0.00    -0.353 N 
ATOM      3  N   UNL     1      34.156 -17.298 -24.774  0.00  0.00    -0.284 N 
ATOM      4  C   UNL     1      33.899 -14.691 -23.209  0.00  0.00    +0.004 A 
ATOM      5  C   UNL     1      33.840 -15.670 -22.236  0.00  0.00    +0.054 A 
ATOM      6  C   UNL     1      33.200 -13.544 -22.727  0.00  0.00    +0.015 A 
ATOM      7  C   UNL     1      32.727 -13.859 -21.454  0.00  0.00    +0.056 A 
ATOM      8  C   UNL     1      34.601 -14.865 -24.496  0.00  0.00    +0.113 C 
ATOM      9  C   UNL     1      34.380 -17.030 -22.275  0.00  0.00    +0.029 C 
ATOM     10  C   UNL     1      34.489 -17.764 -23.476  0.00  0.00    +0.052 C 
ATOM     11  C   UNL     1      32.923 -12.262 -23.248  0.00  0.00    +0.025 C 
ATOM     12  C   UNL     1      34.038 -16.023 -25.282  0.00  0.00    +0.231 C 
ATOM     13  C   UNL     1      31.989 -12.962 -20.674  0.00  0.00    +0.019 C 
ATOM     14  C   UNL     1      34.747 -17.653 -21.066  0.00  0.00    +0.003 C 
ATOM     15  C   UNL     1      32.187 -11.353 -22.480  0.00  0.00    +0.143 C 
ATOM     16  C   UNL     1      31.727 -11.700 -21.213  0.00  0.00    +0.026 C 
ATOM     17  C   UNL     1      34.895 -19.111 -23.416  0.00  0.00    +0.015 C 
ATOM     18  C   UNL     1      35.182 -18.977 -21.033  0.00  0.00    +0.000 C 
ATOM     19  C   UNL     1      35.246 -19.711 -22.208  0.00  0.00    +0.001 C 
ATOM     20  H   UNL     1      32.930 -15.629 -20.346  0.00  0.00    +0.166 HD
ATOM     21  H   UNL     1      33.979 -18.013 -25.428  0.00  0.00    +0.155 HD
ENDROOT
BRANCH  15  24
ATOM     22  O   UNL     1      30.907  -9.436 -22.572  0.00  0.00    -0.126 OA
ATOM     23  O   UNL     1      32.665  -9.582 -23.879  0.00  0.00    -0.126 OA
ATOM     24  N   UNL     1      31.906 -10.061 -23.002  0.00  0.00    +0.058 N 
ENDBRANCH  15  24
TORSDOF 1
ENDMDL
MODEL 4
REMARK VINA RESULT:     -10.0      3.015      5.115
REMARK  Name = 5005498
REMARK  1 active torsions:
REMARK  status: ('A' for Active; 'I' for Inactive)
REMARK    1  A    between atoms: C_15  and  N_24
REMARK                            x       y       z     vdW  Elec       q    Type
REMARK                         _______ _______ _______ _____ _____    ______ ____
ROOT
ATOM      1  O   UNL     1      32.266 -22.774 -14.538  0.00  0.00    -0.274 OA
ATOM      2  N   UNL     1      36.977 -22.464 -16.920  0.00  0.00    -0.353 N 
ATOM      3  N   UNL     1      34.238 -23.637 -13.803  0.00  0.00    -0.284 N 
ATOM      4  C   UNL     1      34.853 -23.073 -16.739  0.00  0.00    +0.004 A 
ATOM      5  C   UNL     1      36.100 -23.199 -16.156  0.00  0.00    +0.054 A 
ATOM      6  C   UNL     1      34.984 -22.237 -17.888  0.00  0.00    +0.015 A 
ATOM      7  C   UNL     1      36.326 -21.871 -17.976  0.00  0.00    +0.056 A 
ATOM      8  C   UNL     1      33.642 -23.737 -16.218  0.00  0.00    +0.113 C 
ATOM      9  C   UNL     1      36.471 -23.928 -14.942  0.00  0.00    +0.029 C 
ATOM     10  C   UNL     1      35.582 -24.090 -13.858  0.00  0.00    +0.052 C 
ATOM     11  C   UNL     1      34.090 -21.755 -18.868  0.00  0.00    +0.025 C 
ATOM     12  C   UNL     1      33.345 -23.314 -14.801  0.00  0.00    +0.231 C 
ATOM     13  C   UNL     1      36.823 -21.044 -18.990  0.00  0.00    +0.019 C 
ATOM     14  C   UNL     1      37.781 -24.434 -14.824  0.00  0.00    +0.003 C 
ATOM     15  C   UNL     1      34.571 -20.928 -19.889  0.00  0.00    +0.143 C 
ATOM     16  C   UNL     1      35.917 -20.579 -19.947  0.00  0.00    +0.026 C 
ATOM     17  C   UNL     1      36.053 -24.690 -12.674  0.00  0.00    +0.015 C 
ATOM     18  C   UNL     1      38.217 -25.057 -13.656  0.00  0.00    +0.000 C 
ATOM     19  C   UNL     1      37.356 -25.176 -12.575  0.00  0.00    +0.001 C 
ATOM     20  H   UNL     1      37.940 -22.376 -16.735  0.00  0.00    +0.166 HD
ATOM     21  H   UNL     1      33.881 -23.538 -12.891  0.00  0.00    +0.155 HD
ENDROOT
BRANCH  15  24
ATOM     22  O   UNL     1      34.134 -19.799 -21.852  0.00  0.00    -0.126 OA
ATOM     23  O   UNL     1      32.446 -20.665 -20.747  0.00  0.00    -0.126 OA
ATOM     24  N   UNL     1      33.674 -20.441 -20.878  0.00  0.00    +0.058 N 
ENDBRANCH  15  24
TORSDOF 1
ENDMDL
MODEL 5
REMARK VINA RESULT:      -9.9      3.323      6.649
REMARK  Name = 5005498
REMARK  1 active torsions:
REMARK  status: ('A' for Active; 'I' for Inactive)
REMARK    1  A    between atoms: C_15  and  N_24
REMARK                            x       y       z     vdW  Elec       q    Type
REMARK                         _______ _______ _______ _____ _____    ______ ____
ROOT
ATOM      1  O   UNL     1      31.797 -24.074 -16.058  0.00  0.00    -0.274 OA
ATOM      2  N   UNL     1      36.991 -23.146 -15.710  0.00  0.00    -0.353 N 
ATOM      3  N   UNL     1      33.139 -23.153 -17.647  0.00  0.00    -0.284 N 
ATOM      4  C   UNL     1      34.863 -22.896 -15.143  0.00  0.00    +0.004 A 
ATOM      5  C   UNL     1      35.762 -22.746 -16.182  0.00  0.00    +0.054 A 
ATOM      6  C   UNL     1      35.573 -23.402 -14.012  0.00  0.00    +0.015 A 
ATOM      7  C   UNL     1      36.904 -23.548 -14.398  0.00  0.00    +0.056 A 
ATOM      8  C   UNL     1      33.432 -22.552 -15.250  0.00  0.00    +0.113 C 
ATOM      9  C   UNL     1      35.508 -22.290 -17.549  0.00  0.00    +0.029 C 
ATOM     10  C   UNL     1      34.280 -22.520 -18.205  0.00  0.00    +0.052 C 
ATOM     11  C   UNL     1      35.214 -23.749 -12.692  0.00  0.00    +0.025 C 
ATOM     12  C   UNL     1      32.752 -23.344 -16.339  0.00  0.00    +0.231 C 
ATOM     13  C   UNL     1      37.897 -24.027 -13.536  0.00  0.00    +0.019 C 
ATOM     14  C   UNL     1      36.545 -21.654 -18.259  0.00  0.00    +0.003 C 
ATOM     15  C   UNL     1      36.195 -24.229 -11.818  0.00  0.00    +0.143 C 
ATOM     16  C   UNL     1      37.516 -24.365 -12.235  0.00  0.00    +0.026 C 
ATOM     17  C   UNL     1      34.157 -22.168 -19.564  0.00  0.00    +0.015 C 
ATOM     18  C   UNL     1      36.390 -21.279 -19.593  0.00  0.00    +0.000 C 
ATOM     19  C   UNL     1      35.198 -21.546 -20.250  0.00  0.00    +0.001 C 
ATOM     20  H   UNL     1      37.820 -23.143 -16.241  0.00  0.00    +0.166 HD
ATOM     21  H   UNL     1      32.512 -23.519 -18.313  0.00  0.00    +0.155 HD
ENDROOT
BRANCH  15  24
ATOM     22  O   UNL     1      35.053 -25.540 -10.303  0.00  0.00    -0.126 OA
ATOM     23  O   UNL     1      36.317 -23.918  -9.535  0.00  0.00    -0.126 OA
ATOM     24  N   UNL     1      35.838 -24.580 -10.488  0.00  0.00    +0.058 N 
ENDBRANCH  15  24
TORSDOF 1
ENDMDL
MODEL 6
REMARK VINA RESULT:      -9.9     11.734     13.741
REMARK  Name = 5005498
REMARK  1 active torsions:
REMARK  status: ('A' for Active; 'I' for Inactive)
REMARK    1  A    between atoms: C_15  and  N_24
REMARK                            x       y       z     vdW  Elec       q    Type
REMARK                         _______ _______ _______ _____ _____    ______ ____
ROOT
ATOM      1  O   UNL     1      34.927 -15.173 -19.861  0.00  0.00    -0.274 OA
ATOM      2  N   UNL     1      34.098 -14.357 -25.020  0.00  0.00    -0.353 N 
ATOM      3  N   UNL     1      34.978 -16.724 -21.525  0.00  0.00    -0.284 N 
ATOM      4  C   UNL     1      33.535 -14.400 -22.877  0.00  0.00    +0.004 A 
ATOM      5  C   UNL     1      33.958 -15.187 -23.931  0.00  0.00    +0.054 A 
ATOM      6  C   UNL     1      33.417 -13.057 -23.345  0.00  0.00    +0.015 A 
ATOM      7  C   UNL     1      33.776 -13.061 -24.692  0.00  0.00    +0.056 A 
ATOM      8  C   UNL     1      33.252 -14.931 -21.529  0.00  0.00    +0.113 C 
ATOM      9  C   UNL     1      34.252 -16.620 -23.939  0.00  0.00    +0.029 C 
ATOM     10  C   UNL     1      34.749 -17.295 -22.803  0.00  0.00    +0.052 C 
ATOM     11  C   UNL     1      33.036 -11.832 -22.756  0.00  0.00    +0.025 C 
ATOM     12  C   UNL     1      34.467 -15.593 -20.928  0.00  0.00    +0.231 C 
ATOM     13  C   UNL     1      33.780 -11.906 -25.482  0.00  0.00    +0.019 C 
ATOM     14  C   UNL     1      34.093 -17.342 -25.139  0.00  0.00    +0.003 C 
ATOM     15  C   UNL     1      33.033 -10.668 -23.532  0.00  0.00    +0.143 C 
ATOM     16  C   UNL     1      33.400 -10.706 -24.874  0.00  0.00    +0.026 C 
ATOM     17  C   UNL     1      35.131 -18.645 -22.926  0.00  0.00    +0.015 C 
ATOM     18  C   UNL     1      34.444 -18.688 -25.230  0.00  0.00    +0.000 C 
ATOM     19  C   UNL     1      34.973 -19.339 -24.125  0.00  0.00    +0.001 C 
ATOM     20  H   UNL     1      34.389 -14.653 -25.913  0.00  0.00    +0.166 HD
ATOM     21  H   UNL     1      35.613 -17.226 -20.965  0.00  0.00    +0.155 HD
ENDROOT
BRANCH  15  24
ATOM     22  O   UNL     1      33.516  -8.539 -22.788  0.00  0.00    -0.126 OA
ATOM     23  O   UNL     1      31.456  -9.272 -22.589  0.00  0.00    -0.126 OA
ATOM     24  N   UNL     1      32.650  -9.433 -22.941  0.00  0.00    +0.058 N 
ENDBRANCH  15  24
TORSDOF 1
ENDMDL
MODEL 7
REMARK VINA RESULT:      -9.9     11.415     13.451
REMARK  Name = 5005498
REMARK  1 active torsions:
REMARK  status: ('A' for Active; 'I' for Inactive)
REMARK    1  A    between atoms: C_15  and  N_24
REMARK                            x       y       z     vdW  Elec       q    Type
REMARK                         _______ _______ _______ _____ _____    ______ ____
ROOT
ATOM      1  O   UNL     1      34.930 -15.762 -19.612  0.00  0.00    -0.274 OA
ATOM      2  N   UNL     1      32.996 -13.045 -23.716  0.00  0.00    -0.353 N 
ATOM      3  N   UNL     1      34.877 -16.413 -21.791  0.00  0.00    -0.284 N 
ATOM      4  C   UNL     1      32.876 -14.110 -21.776  0.00  0.00    +0.004 A 
ATOM      5  C   UNL     1      33.194 -14.266 -23.112  0.00  0.00    +0.054 A 
ATOM      6  C   UNL     1      32.475 -12.756 -21.570  0.00  0.00    +0.015 A 
ATOM      7  C   UNL     1      32.560 -12.113 -22.804  0.00  0.00    +0.056 A 
ATOM      8  C   UNL     1      32.943 -15.208 -20.791  0.00  0.00    +0.113 C 
ATOM      9  C   UNL     1      33.686 -15.460 -23.800  0.00  0.00    +0.029 C 
ATOM     10  C   UNL     1      34.487 -16.426 -23.155  0.00  0.00    +0.052 C 
ATOM     11  C   UNL     1      32.044 -12.009 -20.453  0.00  0.00    +0.025 C 
ATOM     12  C   UNL     1      34.335 -15.780 -20.694  0.00  0.00    +0.231 C 
ATOM     13  C   UNL     1      32.241 -10.762 -22.981  0.00  0.00    +0.019 C 
ATOM     14  C   UNL     1      33.401 -15.622 -25.170  0.00  0.00    +0.003 C 
ATOM     15  C   UNL     1      31.720 -10.658 -20.613  0.00  0.00    +0.143 C 
ATOM     16  C   UNL     1      31.818 -10.045 -21.858  0.00  0.00    +0.026 C 
ATOM     17  C   UNL     1      35.030 -17.479 -23.917  0.00  0.00    +0.015 C 
ATOM     18  C   UNL     1      33.918 -16.693 -25.898  0.00  0.00    +0.000 C 
ATOM     19  C   UNL     1      34.742 -17.618 -25.273  0.00  0.00    +0.001 C 
ATOM     20  H   UNL     1      33.146 -12.865 -24.673  0.00  0.00    +0.166 HD
ATOM     21  H   UNL     1      35.676 -16.954 -21.593  0.00  0.00    +0.155 HD
ENDROOT
BRANCH  15  24
ATOM     22  O   UNL     1      30.405 -10.385 -18.738  0.00  0.00    -0.126 OA
ATOM     23  O   UNL     1      31.796  -8.775 -19.281  0.00  0.00    -0.126 OA
ATOM     24  N   UNL     1      31.286  -9.903 -19.489  0.00  0.00    +0.058 N 
ENDBRANCH  15  24
TORSDOF 1
ENDMDL
MODEL 8
REMARK VINA RESULT:      -9.8     14.027     16.120
REMARK  Name = 5005498
REMARK  1 active torsions:
REMARK  status: ('A' for Active; 'I' for Inactive)
REMARK    1  A    between atoms: C_15  and  N_24
REMARK                            x       y       z     vdW  Elec       q    Type
REMARK                         _______ _______ _______ _____ _____    ______ ____
ROOT
ATOM      1  O   UNL     1      32.688 -13.743 -20.362  0.00  0.00    -0.274 OA
ATOM      2  N   UNL     1      33.749 -10.574 -24.461  0.00  0.00    -0.353 N 
ATOM      3  N   UNL     1      33.073 -14.363 -22.517  0.00  0.00    -0.284 N 
ATOM      4  C   UNL     1      32.503 -11.380 -22.814  0.00  0.00    +0.004 A 
ATOM      5  C   UNL     1      33.139 -11.717 -23.994  0.00  0.00    +0.054 A 
ATOM      6  C   UNL     1      32.737  -9.995 -22.563  0.00  0.00    +0.015 A 
ATOM      7  C   UNL     1      33.521  -9.517 -23.612  0.00  0.00    +0.056 A 
ATOM      8  C   UNL     1      31.716 -12.339 -22.014  0.00  0.00    +0.113 C 
ATOM      9  C   UNL     1      33.216 -13.023 -24.650  0.00  0.00    +0.029 C 
ATOM     10  C   UNL     1      33.206 -14.233 -23.923  0.00  0.00    +0.052 C 
ATOM     11  C   UNL     1      32.357  -9.095 -21.545  0.00  0.00    +0.025 C 
ATOM     12  C   UNL     1      32.556 -13.510 -21.568  0.00  0.00    +0.231 C 
ATOM     13  C   UNL     1      33.948  -8.187 -23.696  0.00  0.00    +0.019 C 
ATOM     14  C   UNL     1      33.367 -13.075 -26.050  0.00  0.00    +0.003 C 
ATOM     15  C   UNL     1      32.775  -7.762 -21.615  0.00  0.00    +0.143 C 
ATOM     16  C   UNL     1      33.559  -7.316 -22.675  0.00  0.00    +0.026 C 
ATOM     17  C   UNL     1      33.414 -15.443 -24.614  0.00  0.00    +0.015 C 
ATOM     18  C   UNL     1      33.536 -14.286 -26.718  0.00  0.00    +0.000 C 
ATOM     19  C   UNL     1      33.570 -15.472 -25.998  0.00  0.00    +0.001 C 
ATOM     20  H   UNL     1      34.277 -10.523 -25.291  0.00  0.00    +0.166 HD
ATOM     21  H   UNL     1      33.408 -15.216 -22.156  0.00  0.00    +0.155 HD
ENDROOT
BRANCH  15  24
ATOM     22  O   UNL     1      31.536  -5.975 -20.846  0.00  0.00    -0.126 OA
ATOM     23  O   UNL     1      32.928  -6.954 -19.459  0.00  0.00    -0.126 OA
ATOM     24  N   UNL     1      32.394  -6.853 -20.591  0.00  0.00    +0.058 N 
ENDBRANCH  15  24
TORSDOF 1
ENDMDL
MODEL 9
REMARK VINA RESULT:      -9.8      2.634      6.881
REMARK  Name = 5005498
REMARK  1 active torsions:
REMARK  status: ('A' for Active; 'I' for Inactive)
REMARK    1  A    between atoms: C_15  and  N_24
REMARK                            x       y       z     vdW  Elec       q    Type
REMARK                         _______ _______ _______ _____ _____    ______ ____
ROOT
ATOM      1  O   UNL     1      34.973 -22.481 -17.719  0.00  0.00    -0.274 OA
ATOM      2  N   UNL     1      34.720 -24.676 -12.914  0.00  0.00    -0.353 N 
ATOM      3  N   UNL     1      33.106 -22.858 -16.475  0.00  0.00    -0.284 N 
ATOM      4  C   UNL     1      35.156 -24.643 -15.088  0.00  0.00    +0.004 A 
ATOM      5  C   UNL     1      34.146 -24.507 -14.154  0.00  0.00    +0.054 A 
ATOM      6  C   UNL     1      36.374 -24.901 -14.390  0.00  0.00    +0.015 A 
ATOM      7  C   UNL     1      36.069 -24.916 -13.029  0.00  0.00    +0.056 A 
ATOM      8  C   UNL     1      34.934 -24.546 -16.544  0.00  0.00    +0.113 C 
ATOM      9  C   UNL     1      32.731 -24.207 -14.376  0.00  0.00    +0.029 C 
ATOM     10  C   UNL     1      32.289 -23.415 -15.457  0.00  0.00    +0.052 C 
ATOM     11  C   UNL     1      37.711 -25.125 -14.781  0.00  0.00    +0.025 C 
ATOM     12  C   UNL     1      34.360 -23.205 -16.928  0.00  0.00    +0.231 C 
ATOM     13  C   UNL     1      37.031 -25.141 -12.038  0.00  0.00    +0.019 C 
ATOM     14  C   UNL     1      31.781 -24.672 -13.445  0.00  0.00    +0.003 C 
ATOM     15  C   UNL     1      38.684 -25.353 -13.802  0.00  0.00    +0.143 C 
ATOM     16  C   UNL     1      38.348 -25.360 -12.452  0.00  0.00    +0.026 C 
ATOM     17  C   UNL     1      30.928 -23.061 -15.530  0.00  0.00    +0.015 C 
ATOM     18  C   UNL     1      30.431 -24.341 -13.557  0.00  0.00    +0.000 C 
ATOM     19  C   UNL     1      30.005 -23.526 -14.595  0.00  0.00    +0.001 C 
ATOM     20  H   UNL     1      34.230 -24.632 -12.061  0.00  0.00    +0.166 HD
ATOM     21  H   UNL     1      32.705 -22.089 -16.941  0.00  0.00    +0.155 HD
ENDROOT
BRANCH  15  24
ATOM     22  O   UNL     1      40.844 -24.625 -14.158  0.00  0.00    -0.126 OA
ATOM     23  O   UNL     1      40.372 -26.730 -14.564  0.00  0.00    -0.126 OA
ATOM     24  N   UNL     1      40.032 -25.580 -14.193  0.00  0.00    +0.058 N 
ENDBRANCH  15  24
TORSDOF 1
ENDMDL
