MODEL 1
REMARK VINA RESULT:      -9.8      0.000      0.000
REMARK  Name = 443884
REMARK  4 active torsions:
REMARK  status: ('A' for Active; 'I' for Inactive)
REMARK    1  A    between atoms: C_6  and  C_22
REMARK    2  A    between atoms: N_21  and  CA_24
REMARK    3  A    between atoms: CA_24  and  C_26
REMARK    4  A    between atoms: C_26  and  O_27
REMARK                            x       y       z     vdW  Elec       q    Type
REMARK                         _______ _______ _______ _____ _____    ______ ____
ROOT
ATOM      1  N   UNL     1      36.068 -22.375 -17.582  0.00  0.00    +0.390 N 
ATOM      2  N   UNL     1      32.754 -24.937 -13.286  0.00  0.00    -0.312 N 
ATOM      3  C   UNL     1      34.981 -22.569 -16.581  0.00  0.00    -0.031 C 
ATOM      4  C   UNL     1      33.575 -22.734 -17.231  0.00  0.00    -0.045 C 
ATOM      5  C   UNL     1      35.361 -23.759 -15.625  0.00  0.00    +0.011 C 
ATOM      6  C   UNL     1      34.474 -21.981 -19.421  0.00  0.00    +0.077 C 
ATOM      7  C   UNL     1      35.659 -21.425 -18.626  0.00  0.00    -0.063 C 
ATOM      8  C   UNL     1      34.201 -24.160 -14.784  0.00  0.00    -0.008 C 
ATOM      9  C   UNL     1      32.467 -23.190 -16.364  0.00  0.00    -0.005 C 
ATOM     10  C   UNL     1      32.891 -23.859 -15.209  0.00  0.00    +0.010 C 
ATOM     11  C   UNL     1      33.378 -22.493 -18.540  0.00  0.00    -0.026 C 
ATOM     12  C   UNL     1      31.995 -24.349 -14.274  0.00  0.00    +0.048 C 
ATOM     13  C   UNL     1      37.316 -21.910 -16.965  0.00  0.00    -0.100 C 
ATOM     14  C   UNL     1      34.095 -24.830 -13.588  0.00  0.00    +0.058 C 
ATOM     15  C   UNL     1      31.087 -23.033 -16.541  0.00  0.00    -0.000 C 
ATOM     16  C   UNL     1      30.616 -24.201 -14.436  0.00  0.00    +0.015 C 
ATOM     17  C   UNL     1      30.183 -23.532 -15.591  0.00  0.00    +0.001 C 
ATOM     18  H   UNL     1      36.241 -23.289 -18.001  0.00  0.00    -0.079 HD
ATOM     19  H   UNL     1      32.392 -25.371 -12.481  0.00  0.00    +0.152 HD
ENDROOT
BRANCH   6  22
ATOM     20  O   UNL     1      32.676 -20.829 -20.487  0.00  0.00    -0.275 OA
ATOM     21  N   UNL     1      34.846 -20.033 -20.763  0.00  0.00    -0.303 N 
ATOM     22  C   ACE A   0      33.883 -20.895 -20.269  0.00  0.00    +0.224 C 
ATOM     23  H   UNL     1      35.786 -20.189 -20.515  0.00  0.00    +0.149 HD
BRANCH  21  24
ATOM     24  CA  UNL     1      34.539 -18.915 -21.626  0.00  0.00    +0.101 C 
ATOM     25  CB  UNL     1      35.216 -17.655 -21.103  0.00  0.00    +0.024 C 
BRANCH  24  26
ATOM     26  C   UNL     1      34.962 -19.213 -23.063  0.00  0.00    +0.157 C 
BRANCH  26  27
ATOM     27  O   UNL     1      35.985 -18.303 -23.452  0.00  0.00    -0.380 OA
ATOM     28  H   UNL     1      35.588 -17.445 -23.672  0.00  0.00    +0.211 HD
ENDBRANCH  26  27
ENDBRANCH  24  26
ENDBRANCH  21  24
ENDBRANCH   6  22
TORSDOF 4
ENDMDL
MODEL 2
REMARK VINA RESULT:      -9.8      4.046      9.324
REMARK  Name = 443884
REMARK  4 active torsions:
REMARK  status: ('A' for Active; 'I' for Inactive)
REMARK    1  A    between atoms: C_6  and  C_22
REMARK    2  A    between atoms: N_21  and  CA_24
REMARK    3  A    between atoms: CA_24  and  C_26
REMARK    4  A    between atoms: C_26  and  O_27
REMARK                            x       y       z     vdW  Elec       q    Type
REMARK                         _______ _______ _______ _____ _____    ______ ____
ROOT
ATOM      1  N   UNL     1      35.175 -18.385 -23.972  0.00  0.00    +0.390 N 
ATOM      2  N   UNL     1      32.401 -13.066 -23.866  0.00  0.00    -0.312 N 
ATOM      3  C   UNL     1      34.213 -17.316 -23.583  0.00  0.00    -0.031 C 
ATOM      4  C   UNL     1      34.426 -16.804 -22.128  0.00  0.00    -0.045 C 
ATOM      5  C   UNL     1      34.255 -16.164 -24.654  0.00  0.00    +0.011 C 
ATOM      6  C   UNL     1      35.938 -18.716 -21.651  0.00  0.00    +0.077 C 
ATOM      7  C   UNL     1      35.331 -19.372 -22.894  0.00  0.00    -0.063 C 
ATOM      8  C   UNL     1      33.515 -14.964 -24.177  0.00  0.00    -0.008 C 
ATOM      9  C   UNL     1      33.710 -15.574 -21.721  0.00  0.00    -0.005 C 
ATOM     10  C   UNL     1      33.313 -14.769 -22.795  0.00  0.00    +0.010 C 
ATOM     11  C   UNL     1      35.248 -17.442 -21.275  0.00  0.00    -0.026 C 
ATOM     12  C   UNL     1      32.623 -13.583 -22.609  0.00  0.00    +0.048 C 
ATOM     13  C   UNL     1      34.774 -19.073 -25.204  0.00  0.00    -0.100 C 
ATOM     14  C   UNL     1      32.942 -13.896 -24.825  0.00  0.00    +0.058 C 
ATOM     15  C   UNL     1      33.380 -15.131 -20.434  0.00  0.00    -0.000 C 
ATOM     16  C   UNL     1      32.287 -13.127 -21.332  0.00  0.00    +0.015 C 
ATOM     17  C   UNL     1      32.681 -13.929 -20.250  0.00  0.00    +0.001 C 
ATOM     18  H   UNL     1      36.068 -17.922 -24.142  0.00  0.00    -0.079 HD
ATOM     19  H   UNL     1      31.926 -12.225 -24.053  0.00  0.00    +0.152 HD
ENDROOT
BRANCH   6  22
ATOM     20  O   UNL     1      36.736 -19.811 -19.686  0.00  0.00    -0.275 OA
ATOM     21  N   UNL     1      34.580 -20.268 -20.436  0.00  0.00    -0.303 N 
ATOM     22  C   ACE A   0      35.814 -19.643 -20.480  0.00  0.00    +0.224 C 
ATOM     23  H   UNL     1      33.918 -20.049 -21.132  0.00  0.00    +0.149 HD
BRANCH  21  24
ATOM     24  CA  UNL     1      34.216 -21.228 -19.418  0.00  0.00    +0.101 C 
ATOM     25  CB  UNL     1      32.699 -21.330 -19.321  0.00  0.00    +0.024 C 
BRANCH  24  26
ATOM     26  C   UNL     1      34.842 -22.589 -19.713  0.00  0.00    +0.157 C 
BRANCH  26  27
ATOM     27  O   UNL     1      33.911 -23.617 -19.395  0.00  0.00    -0.380 OA
ATOM     28  H   UNL     1      33.671 -24.097 -20.202  0.00  0.00    +0.211 HD
ENDBRANCH  26  27
ENDBRANCH  24  26
ENDBRANCH  21  24
ENDBRANCH   6  22
TORSDOF 4
ENDMDL
MODEL 3
REMARK VINA RESULT:      -9.6      7.849     11.537
REMARK  Name = 443884
REMARK  4 active torsions:
REMARK  status: ('A' for Active; 'I' for Inactive)
REMARK    1  A    between atoms: C_6  and  C_22
REMARK    2  A    between atoms: N_21  and  CA_24
REMARK    3  A    between atoms: CA_24  and  C_26
REMARK    4  A    between atoms: C_26  and  O_27
REMARK                            x       y       z     vdW  Elec       q    Type
REMARK                         _______ _______ _______ _____ _____    ______ ____
ROOT
ATOM      1  N   UNL     1      33.408 -13.180 -26.093  0.00  0.00    +0.390 N 
ATOM      2  N   UNL     1      34.688 -18.431 -23.488  0.00  0.00    -0.312 N 
ATOM      3  C   UNL     1      34.079 -14.180 -25.216  0.00  0.00    -0.031 C 
ATOM      4  C   UNL     1      33.834 -13.923 -23.699  0.00  0.00    -0.045 C 
ATOM      5  C   UNL     1      33.666 -15.629 -25.669  0.00  0.00    +0.011 C 
ATOM      6  C   UNL     1      32.910 -11.674 -24.205  0.00  0.00    +0.077 C 
ATOM      7  C   UNL     1      33.587 -11.818 -25.571  0.00  0.00    -0.063 C 
ATOM      8  C   UNL     1      34.095 -16.644 -24.670  0.00  0.00    -0.008 C 
ATOM      9  C   UNL     1      34.226 -14.989 -22.750  0.00  0.00    -0.005 C 
ATOM     10  C   UNL     1      34.327 -16.257 -23.334  0.00  0.00    +0.010 C 
ATOM     11  C   UNL     1      33.265 -12.784 -23.266  0.00  0.00    -0.026 C 
ATOM     12  C   UNL     1      34.692 -17.375 -22.603  0.00  0.00    +0.048 C 
ATOM     13  C   UNL     1      33.895 -13.237 -27.476  0.00  0.00    -0.100 C 
ATOM     14  C   UNL     1      34.324 -17.998 -24.745  0.00  0.00    +0.058 C 
ATOM     15  C   UNL     1      34.511 -14.890 -21.382  0.00  0.00    -0.000 C 
ATOM     16  C   UNL     1      34.979 -17.294 -21.239  0.00  0.00    +0.015 C 
ATOM     17  C   UNL     1      34.879 -16.025 -20.646  0.00  0.00    +0.001 C 
ATOM     18  H   UNL     1      32.416 -13.417 -26.095  0.00  0.00    -0.079 HD
ATOM     19  H   UNL     1      34.913 -19.360 -23.257  0.00  0.00    +0.152 HD
ENDROOT
BRANCH   6  22
ATOM     20  O   UNL     1      34.493  -9.965 -23.684  0.00  0.00    -0.275 OA
ATOM     21  N   UNL     1      32.339  -9.810 -22.814  0.00  0.00    -0.303 N 
ATOM     22  C   ACE A   0      33.350 -10.395 -23.557  0.00  0.00    +0.224 C 
ATOM     23  H   UNL     1      31.459 -10.253 -22.790  0.00  0.00    +0.149 HD
BRANCH  21  24
ATOM     24  CA  UNL     1      32.513  -8.583 -22.072  0.00  0.00    +0.101 C 
ATOM     25  CB  UNL     1      31.545  -7.525 -22.586  0.00  0.00    +0.024 C 
BRANCH  24  26
ATOM     26  C   UNL     1      32.321  -8.826 -20.576  0.00  0.00    +0.157 C 
BRANCH  26  27
ATOM     27  O   UNL     1      33.074  -7.868 -19.841  0.00  0.00    -0.380 OA
ATOM     28  H   UNL     1      33.556  -8.313 -19.127  0.00  0.00    +0.211 HD
ENDBRANCH  26  27
ENDBRANCH  24  26
ENDBRANCH  21  24
ENDBRANCH   6  22
TORSDOF 4
ENDMDL
MODEL 4
REMARK VINA RESULT:      -9.5      3.288      5.850
REMARK  Name = 443884
REMARK  4 active torsions:
REMARK  status: ('A' for Active; 'I' for Inactive)
REMARK    1  A    between atoms: C_6  and  C_22
REMARK    2  A    between atoms: N_21  and  CA_24
REMARK    3  A    between atoms: CA_24  and  C_26
REMARK    4  A    between atoms: C_26  and  O_27
REMARK                            x       y       z     vdW  Elec       q    Type
REMARK                         _______ _______ _______ _____ _____    ______ ____
ROOT
ATOM      1  N   UNL     1      34.388 -22.186 -17.944  0.00  0.00    +0.390 N 
ATOM      2  N   UNL     1      29.052 -23.705 -15.661  0.00  0.00    -0.312 N 
ATOM      3  C   UNL     1      33.325 -23.004 -17.296  0.00  0.00    -0.031 C 
ATOM      4  C   UNL     1      33.626 -23.322 -15.801  0.00  0.00    -0.045 C 
ATOM      5  C   UNL     1      31.930 -22.308 -17.509  0.00  0.00    +0.011 C 
ATOM      6  C   UNL     1      35.964 -22.529 -16.079  0.00  0.00    +0.077 C 
ATOM      7  C   UNL     1      35.725 -22.679 -17.584  0.00  0.00    -0.063 C 
ATOM      8  C   UNL     1      30.883 -22.940 -16.662  0.00  0.00    -0.008 C 
ATOM      9  C   UNL     1      32.532 -23.897 -14.987  0.00  0.00    -0.005 C 
ATOM     10  C   UNL     1      31.254 -23.655 -15.505  0.00  0.00    +0.010 C 
ATOM     11  C   UNL     1      34.830 -23.061 -15.260  0.00  0.00    -0.026 C 
ATOM     12  C   UNL     1      30.109 -24.125 -14.885  0.00  0.00    +0.048 C 
ATOM     13  C   UNL     1      34.258 -22.162 -19.406  0.00  0.00    -0.100 C 
ATOM     14  C   UNL     1      29.511 -22.982 -16.741  0.00  0.00    +0.058 C 
ATOM     15  C   UNL     1      32.612 -24.641 -13.803  0.00  0.00    -0.000 C 
ATOM     16  C   UNL     1      30.171 -24.867 -13.704  0.00  0.00    +0.015 C 
ATOM     17  C   UNL     1      31.449 -25.114 -13.178  0.00  0.00    +0.001 C 
ATOM     18  H   UNL     1      34.271 -21.234 -17.598  0.00  0.00    -0.079 HD
ATOM     19  H   UNL     1      28.105 -23.893 -15.472  0.00  0.00    +0.152 HD
ENDROOT
BRANCH   6  22
ATOM     20  O   UNL     1      38.319 -22.861 -15.879  0.00  0.00    -0.275 OA
ATOM     21  N   UNL     1      36.877 -24.522 -15.117  0.00  0.00    -0.303 N 
ATOM     22  C   ACE A   0      37.188 -23.299 -15.684  0.00  0.00    +0.224 C 
ATOM     23  H   UNL     1      35.928 -24.762 -15.011  0.00  0.00    +0.149 HD
BRANCH  21  24
ATOM     24  CA  UNL     1      37.879 -25.464 -14.672  0.00  0.00    +0.101 C 
ATOM     25  CB  UNL     1      38.287 -25.149 -13.238  0.00  0.00    +0.024 C 
BRANCH  24  26
ATOM     26  C   UNL     1      37.363 -26.897 -14.796  0.00  0.00    +0.157 C 
BRANCH  26  27
ATOM     27  O   UNL     1      36.821 -27.093 -16.097  0.00  0.00    -0.380 OA
ATOM     28  H   UNL     1      36.025 -27.643 -16.036  0.00  0.00    +0.211 HD
ENDBRANCH  26  27
ENDBRANCH  24  26
ENDBRANCH  21  24
ENDBRANCH   6  22
TORSDOF 4
ENDMDL
MODEL 5
REMARK VINA RESULT:      -9.4      3.284      6.575
REMARK  Name = 443884
REMARK  4 active torsions:
REMARK  status: ('A' for Active; 'I' for Inactive)
REMARK    1  A    between atoms: C_6  and  C_22
REMARK    2  A    between atoms: N_21  and  CA_24
REMARK    3  A    between atoms: CA_24  and  C_26
REMARK    4  A    between atoms: C_26  and  O_27
REMARK                            x       y       z     vdW  Elec       q    Type
REMARK                         _______ _______ _______ _____ _____    ______ ____
ROOT
ATOM      1  N   UNL     1      33.930 -23.783 -13.472  0.00  0.00    +0.390 N 
ATOM      2  N   UNL     1      37.338 -21.890 -18.033  0.00  0.00    -0.312 N 
ATOM      3  C   UNL     1      34.473 -23.654 -14.854  0.00  0.00    -0.031 C 
ATOM      4  C   UNL     1      33.458 -23.020 -15.851  0.00  0.00    -0.045 C 
ATOM      5  C   UNL     1      35.846 -22.886 -14.803  0.00  0.00    +0.011 C 
ATOM      6  C   UNL     1      31.624 -23.301 -14.200  0.00  0.00    +0.077 C 
ATOM      7  C   UNL     1      32.552 -24.293 -13.494  0.00  0.00    -0.063 C 
ATOM      8  C   UNL     1      36.295 -22.502 -16.168  0.00  0.00    -0.008 C 
ATOM      9  C   UNL     1      33.967 -22.603 -17.177  0.00  0.00    -0.005 C 
ATOM     10  C   UNL     1      35.350 -22.389 -17.210  0.00  0.00    +0.010 C 
ATOM     11  C   UNL     1      32.169 -22.838 -15.515  0.00  0.00    -0.026 C 
ATOM     12  C   UNL     1      36.007 -22.004 -18.367  0.00  0.00    +0.048 C 
ATOM     13  C   UNL     1      34.756 -24.655 -12.629  0.00  0.00    -0.100 C 
ATOM     14  C   UNL     1      37.523 -22.188 -16.699  0.00  0.00    +0.058 C 
ATOM     15  C   UNL     1      33.262 -22.410 -18.371  0.00  0.00    -0.000 C 
ATOM     16  C   UNL     1      35.318 -21.806 -19.565  0.00  0.00    +0.015 C 
ATOM     17  C   UNL     1      33.931 -22.018 -19.540  0.00  0.00    +0.001 C 
ATOM     18  H   UNL     1      33.941 -22.846 -13.069  0.00  0.00    -0.079 HD
ATOM     19  H   UNL     1      38.055 -21.633 -18.656  0.00  0.00    +0.152 HD
ENDROOT
BRANCH   6  22
ATOM     20  O   UNL     1      30.051 -25.092 -14.089  0.00  0.00    -0.275 OA
ATOM     21  N   UNL     1      29.464 -23.145 -15.221  0.00  0.00    -0.303 N 
ATOM     22  C   ACE A   0      30.305 -23.956 -14.479  0.00  0.00    +0.224 C 
ATOM     23  H   UNL     1      29.782 -22.247 -15.475  0.00  0.00    +0.149 HD
BRANCH  21  24
ATOM     24  CA  UNL     1      28.143 -23.551 -15.643  0.00  0.00    +0.101 C 
ATOM     25  CB  UNL     1      27.220 -22.340 -15.695  0.00  0.00    +0.024 C 
BRANCH  24  26
ATOM     26  C   UNL     1      28.203 -24.256 -16.996  0.00  0.00    +0.157 C 
BRANCH  26  27
ATOM     27  O   UNL     1      27.453 -23.513 -17.950  0.00  0.00    -0.380 OA
ATOM     28  H   UNL     1      27.973 -23.411 -18.762  0.00  0.00    +0.211 HD
ENDBRANCH  26  27
ENDBRANCH  24  26
ENDBRANCH  21  24
ENDBRANCH   6  22
TORSDOF 4
ENDMDL
MODEL 6
REMARK VINA RESULT:      -9.1      1.545      2.030
REMARK  Name = 443884
REMARK  4 active torsions:
REMARK  status: ('A' for Active; 'I' for Inactive)
REMARK    1  A    between atoms: C_6  and  C_22
REMARK    2  A    between atoms: N_21  and  CA_24
REMARK    3  A    between atoms: CA_24  and  C_26
REMARK    4  A    between atoms: C_26  and  O_27
REMARK                            x       y       z     vdW  Elec       q    Type
REMARK                         _______ _______ _______ _____ _____    ______ ____
ROOT
ATOM      1  N   UNL     1      35.591 -23.362 -15.859  0.00  0.00    +0.390 N 
ATOM      2  N   UNL     1      30.280 -24.838 -13.489  0.00  0.00    -0.312 N 
ATOM      3  C   UNL     1      34.175 -23.238 -15.411  0.00  0.00    -0.031 C 
ATOM      4  C   UNL     1      33.173 -23.080 -16.593  0.00  0.00    -0.045 C 
ATOM      5  C   UNL     1      33.823 -24.442 -14.461  0.00  0.00    +0.011 C 
ATOM      6  C   UNL     1      35.053 -22.668 -18.163  0.00  0.00    +0.077 C 
ATOM      7  C   UNL     1      35.896 -22.387 -16.916  0.00  0.00    -0.063 C 
ATOM      8  C   UNL     1      32.359 -24.508 -14.203  0.00  0.00    -0.008 C 
ATOM      9  C   UNL     1      31.730 -23.211 -16.292  0.00  0.00    -0.005 C 
ATOM     10  C   UNL     1      31.460 -23.912 -15.111  0.00  0.00    +0.010 C 
ATOM     11  C   UNL     1      33.602 -22.855 -17.848  0.00  0.00    -0.026 C 
ATOM     12  C   UNL     1      30.167 -24.125 -14.662  0.00  0.00    +0.048 C 
ATOM     13  C   UNL     1      36.541 -23.191 -14.754  0.00  0.00    -0.100 C 
ATOM     14  C   UNL     1      31.607 -25.078 -13.203  0.00  0.00    +0.058 C 
ATOM     15  C   UNL     1      30.631 -22.726 -17.013  0.00  0.00    -0.000 C 
ATOM     16  C   UNL     1      29.061 -23.649 -15.370  0.00  0.00    +0.015 C 
ATOM     17  C   UNL     1      29.324 -22.945 -16.556  0.00  0.00    +0.001 C 
ATOM     18  H   UNL     1      35.696 -24.308 -16.226  0.00  0.00    -0.079 HD
ATOM     19  H   UNL     1      29.523 -25.134 -12.935  0.00  0.00    +0.152 HD
ENDROOT
BRANCH   6  22
ATOM     20  O   UNL     1      36.102 -20.733 -19.086  0.00  0.00    -0.275 OA
ATOM     21  N   UNL     1      34.055 -21.427 -19.951  0.00  0.00    -0.303 N 
ATOM     22  C   ACE A   0      35.149 -21.508 -19.108  0.00  0.00    +0.224 C 
ATOM     23  H   UNL     1      33.352 -22.112 -19.873  0.00  0.00    +0.149 HD
BRANCH  21  24
ATOM     24  CA  UNL     1      33.894 -20.385 -20.940  0.00  0.00    +0.101 C 
ATOM     25  CB  UNL     1      32.812 -19.410 -20.493  0.00  0.00    +0.024 C 
BRANCH  24  26
ATOM     26  C   UNL     1      35.219 -19.665 -21.183  0.00  0.00    +0.157 C 
BRANCH  26  27
ATOM     27  O   UNL     1      35.122 -18.325 -20.713  0.00  0.00    -0.380 OA
ATOM     28  H   UNL     1      35.626 -18.234 -19.889  0.00  0.00    +0.211 HD
ENDBRANCH  26  27
ENDBRANCH  24  26
ENDBRANCH  21  24
ENDBRANCH   6  22
TORSDOF 4
ENDMDL
MODEL 7
REMARK VINA RESULT:      -8.9      7.839     11.570
REMARK  Name = 443884
REMARK  4 active torsions:
REMARK  status: ('A' for Active; 'I' for Inactive)
REMARK    1  A    between atoms: C_6  and  C_22
REMARK    2  A    between atoms: N_21  and  CA_24
REMARK    3  A    between atoms: CA_24  and  C_26
REMARK    4  A    between atoms: C_26  and  O_27
REMARK                            x       y       z     vdW  Elec       q    Type
REMARK                         _______ _______ _______ _____ _____    ______ ____
ROOT
ATOM      1  N   UNL     1      33.193 -12.776 -25.536  0.00  0.00    +0.390 N 
ATOM      2  N   UNL     1      35.050 -18.096 -23.476  0.00  0.00    -0.312 N 
ATOM      3  C   UNL     1      33.946 -13.780 -24.733  0.00  0.00    -0.031 C 
ATOM      4  C   UNL     1      33.575 -13.754 -23.221  0.00  0.00    -0.045 C 
ATOM      5  C   UNL     1      33.772 -15.202 -25.385  0.00  0.00    +0.011 C 
ATOM      6  C   UNL     1      32.372 -11.603 -23.529  0.00  0.00    +0.077 C 
ATOM      7  C   UNL     1      33.144 -11.480 -24.845  0.00  0.00    -0.063 C 
ATOM      8  C   UNL     1      34.280 -16.269 -24.481  0.00  0.00    -0.008 C 
ATOM      9  C   UNL     1      34.056 -14.869 -22.376  0.00  0.00    -0.005 C 
ATOM     10  C   UNL     1      34.373 -16.028 -23.095  0.00  0.00    +0.010 C 
ATOM     11  C   UNL     1      32.824 -12.766 -22.703  0.00  0.00    -0.026 C 
ATOM     12  C   UNL     1      34.849 -17.171 -22.475  0.00  0.00    +0.048 C 
ATOM     13  C   UNL     1      33.767 -12.590 -26.874  0.00  0.00    -0.100 C 
ATOM     14  C   UNL     1      34.704 -17.559 -24.698  0.00  0.00    +0.058 C 
ATOM     15  C   UNL     1      34.241 -14.909 -20.988  0.00  0.00    -0.000 C 
ATOM     16  C   UNL     1      35.037 -17.226 -21.092  0.00  0.00    +0.015 C 
ATOM     17  C   UNL     1      34.722 -16.068 -20.364  0.00  0.00    +0.001 C 
ATOM     18  H   UNL     1      32.247 -13.142 -25.643  0.00  0.00    -0.079 HD
ATOM     19  H   UNL     1      35.390 -19.009 -23.338  0.00  0.00    +0.152 HD
ENDROOT
BRANCH   6  22
ATOM     20  O   UNL     1      32.125 -10.264 -21.568  0.00  0.00    -0.275 OA
ATOM     21  N   UNL     1      33.315  -9.407 -23.377  0.00  0.00    -0.303 N 
ATOM     22  C   ACE A   0      32.584 -10.370 -22.703  0.00  0.00    +0.224 C 
ATOM     23  H   UNL     1      33.630  -9.611 -24.288  0.00  0.00    +0.149 HD
BRANCH  21  24
ATOM     24  CA  UNL     1      33.636  -8.117 -22.809  0.00  0.00    +0.101 C 
ATOM     25  CB  UNL     1      34.862  -7.537 -23.503  0.00  0.00    +0.024 C 
BRANCH  24  26
ATOM     26  C   UNL     1      32.442  -7.170 -22.915  0.00  0.00    +0.157 C 
BRANCH  26  27
ATOM     27  O   UNL     1      31.739  -7.157 -21.678  0.00  0.00    -0.380 OA
ATOM     28  H   UNL     1      30.800  -6.977 -21.841  0.00  0.00    +0.211 HD
ENDBRANCH  26  27
ENDBRANCH  24  26
ENDBRANCH  21  24
ENDBRANCH   6  22
TORSDOF 4
ENDMDL
MODEL 8
REMARK VINA RESULT:      -8.9      3.787      7.621
REMARK  Name = 443884
REMARK  4 active torsions:
REMARK  status: ('A' for Active; 'I' for Inactive)
REMARK    1  A    between atoms: C_6  and  C_22
REMARK    2  A    between atoms: N_21  and  CA_24
REMARK    3  A    between atoms: CA_24  and  C_26
REMARK    4  A    between atoms: C_26  and  O_27
REMARK                            x       y       z     vdW  Elec       q    Type
REMARK                         _______ _______ _______ _____ _____    ______ ____
ROOT
ATOM      1  N   UNL     1      32.227 -23.828 -15.239  0.00  0.00    +0.390 N 
ATOM      2  N   UNL     1      34.069 -21.077 -20.242  0.00  0.00    -0.312 N 
ATOM      3  C   UNL     1      32.966 -22.888 -16.128  0.00  0.00    -0.031 C 
ATOM      4  C   UNL     1      34.497 -23.170 -16.177  0.00  0.00    -0.045 C 
ATOM      5  C   UNL     1      32.295 -22.883 -17.552  0.00  0.00    +0.011 C 
ATOM      6  C   UNL     1      34.302 -24.698 -14.228  0.00  0.00    +0.077 C 
ATOM      7  C   UNL     1      32.947 -24.031 -13.974  0.00  0.00    -0.063 C 
ATOM      8  C   UNL     1      33.146 -22.170 -18.541  0.00  0.00    -0.008 C 
ATOM      9  C   UNL     1      35.290 -22.478 -17.217  0.00  0.00    -0.005 C 
ATOM     10  C   UNL     1      34.530 -22.033 -18.306  0.00  0.00    +0.010 C 
ATOM     11  C   UNL     1      35.077 -24.029 -15.320  0.00  0.00    -0.026 C 
ATOM     12  C   UNL     1      35.099 -21.355 -19.371  0.00  0.00    +0.048 C 
ATOM     13  C   UNL     1      30.864 -23.368 -14.953  0.00  0.00    -0.100 C 
ATOM     14  C   UNL     1      32.880 -21.570 -19.749  0.00  0.00    +0.058 C 
ATOM     15  C   UNL     1      36.664 -22.209 -17.245  0.00  0.00    -0.000 C 
ATOM     16  C   UNL     1      36.467 -21.081 -19.414  0.00  0.00    +0.015 C 
ATOM     17  C   UNL     1      37.236 -21.523 -18.326  0.00  0.00    +0.001 C 
ATOM     18  H   UNL     1      32.166 -24.713 -15.742  0.00  0.00    -0.079 HD
ATOM     19  H   UNL     1      34.168 -20.596 -21.095  0.00  0.00    +0.152 HD
ENDROOT
BRANCH   6  22
ATOM     20  O   UNL     1      34.647 -24.401 -11.885  0.00  0.00    -0.275 OA
ATOM     21  N   UNL     1      36.485 -24.815 -13.253  0.00  0.00    -0.303 N 
ATOM     22  C   ACE A   0      35.140 -24.625 -12.988  0.00  0.00    +0.224 C 
ATOM     23  H   UNL     1      36.760 -24.989 -14.183  0.00  0.00    +0.149 HD
BRANCH  21  24
ATOM     24  CA  UNL     1      37.506 -24.770 -12.231  0.00  0.00    +0.101 C 
ATOM     25  CB  UNL     1      38.718 -25.581 -12.673  0.00  0.00    +0.024 C 
BRANCH  24  26
ATOM     26  C   UNL     1      37.894 -23.325 -11.921  0.00  0.00    +0.157 C 
BRANCH  26  27
ATOM     27  O   UNL     1      37.194 -22.887 -10.762  0.00  0.00    -0.380 OA
ATOM     28  H   UNL     1      37.831 -22.598 -10.090  0.00  0.00    +0.211 HD
ENDBRANCH  26  27
ENDBRANCH  24  26
ENDBRANCH  21  24
ENDBRANCH   6  22
TORSDOF 4
ENDMDL
MODEL 9
REMARK VINA RESULT:      -8.6      8.145     12.223
REMARK  Name = 443884
REMARK  4 active torsions:
REMARK  status: ('A' for Active; 'I' for Inactive)
REMARK    1  A    between atoms: C_6  and  C_22
REMARK    2  A    between atoms: N_21  and  CA_24
REMARK    3  A    between atoms: CA_24  and  C_26
REMARK    4  A    between atoms: C_26  and  O_27
REMARK                            x       y       z     vdW  Elec       q    Type
REMARK                         _______ _______ _______ _____ _____    ______ ____
ROOT
ATOM      1  N   UNL     1      33.435 -11.177 -24.519  0.00  0.00    +0.390 N 
ATOM      2  N   UNL     1      34.417 -16.971 -23.310  0.00  0.00    -0.312 N 
ATOM      3  C   UNL     1      33.824 -12.403 -23.767  0.00  0.00    -0.031 C 
ATOM      4  C   UNL     1      32.880 -12.708 -22.566  0.00  0.00    -0.045 C 
ATOM      5  C   UNL     1      33.953 -13.609 -24.770  0.00  0.00    +0.011 C 
ATOM      6  C   UNL     1      31.860 -10.452 -22.767  0.00  0.00    +0.077 C 
ATOM      7  C   UNL     1      33.090 -10.083 -23.599  0.00  0.00    -0.063 C 
ATOM      8  C   UNL     1      34.078 -14.900 -24.041  0.00  0.00    -0.008 C 
ATOM      9  C   UNL     1      33.006 -14.029 -21.911  0.00  0.00    -0.005 C 
ATOM     10  C   UNL     1      33.606 -15.004 -22.716  0.00  0.00    +0.010 C 
ATOM     11  C   UNL     1      31.966 -11.812 -22.151  0.00  0.00    -0.026 C 
ATOM     12  C   UNL     1      33.817 -16.298 -22.269  0.00  0.00    +0.048 C 
ATOM     13  C   UNL     1      34.492 -10.726 -25.433  0.00  0.00    -0.100 C 
ATOM     14  C   UNL     1      34.578 -16.132 -24.392  0.00  0.00    +0.058 C 
ATOM     15  C   UNL     1      32.623 -14.413 -20.620  0.00  0.00    -0.000 C 
ATOM     16  C   UNL     1      33.439 -16.697 -20.985  0.00  0.00    +0.015 C 
ATOM     17  C   UNL     1      32.837 -15.724 -20.172  0.00  0.00    +0.001 C 
ATOM     18  H   UNL     1      32.618 -11.426 -25.075  0.00  0.00    -0.079 HD
ATOM     19  H   UNL     1      34.692 -17.915 -23.286  0.00  0.00    +0.152 HD
ENDROOT
BRANCH   6  22
ATOM     20  O   UNL     1      31.414  -9.837 -20.504  0.00  0.00    -0.275 OA
ATOM     21  N   UNL     1      31.893  -8.167 -22.054  0.00  0.00    -0.303 N 
ATOM     22  C   ACE A   0      31.701  -9.474 -21.642  0.00  0.00    +0.224 C 
ATOM     23  H   UNL     1      32.121  -8.001 -22.997  0.00  0.00    +0.149 HD
BRANCH  21  24
ATOM     24  CA  UNL     1      31.773  -7.033 -21.165  0.00  0.00    +0.101 C 
ATOM     25  CB  UNL     1      32.936  -7.020 -20.181  0.00  0.00    +0.024 C 
BRANCH  24  26
ATOM     26  C   UNL     1      31.710  -5.730 -21.961  0.00  0.00    +0.157 C 
BRANCH  26  27
ATOM     27  O   UNL     1      30.605  -4.954 -21.510  0.00  0.00    -0.380 OA
ATOM     28  H   UNL     1      30.923  -4.098 -21.184  0.00  0.00    +0.211 HD
ENDBRANCH  26  27
ENDBRANCH  24  26
ENDBRANCH  21  24
ENDBRANCH   6  22
TORSDOF 4
ENDMDL
