MODEL 1
REMARK VINA RESULT:      -4.2      0.000      0.000
REMARK  Name = 4068592
REMARK  3 active torsions:
REMARK  status: ('A' for Active; 'I' for Inactive)
REMARK    1  A    between atoms: C_1  and  S_2
REMARK    2  A    between atoms: C_1  and  C_6
REMARK    3  A    between atoms: C_6  and  N_7
REMARK                            x       y       z     vdW  Elec       q    Type
REMARK                         _______ _______ _______ _____ _____    ______ ____
ROOT
ATOM      1  C   UNL     1      28.826 -24.295 -15.735  0.00  0.00    +0.134 C 
ENDROOT
BRANCH   1   2
ATOM      2  S   UNL     1      28.390 -22.869 -16.681  0.00  0.00    +0.020 S 
ATOM      3  O   UNL     1      29.680 -22.386 -17.170  0.00  0.00    -0.070 OA
ATOM      4  O   UNL     1      27.504 -23.409 -17.710  0.00  0.00    -0.070 OA
ATOM      5  O   UNL     1      27.739 -22.003 -15.699  0.00  0.00    -0.070 OA
ENDBRANCH   1   2
BRANCH   1   6
ATOM      6  C   UNL     1      30.253 -24.252 -15.231  0.00  0.00    -0.060 C 
BRANCH   6   7
ATOM      7  N   UNL     1      30.470 -23.037 -14.409  0.00  0.00    +0.382 N 
ATOM      8  H   UNL     1      29.959 -23.126 -13.531  0.00  0.00    -0.089 HD
ATOM      9  H   UNL     1      30.136 -22.219 -14.917  0.00  0.00    -0.089 HD
ATOM     10  H   UNL     1      31.466 -22.933 -14.214  0.00  0.00    -0.089 HD
ENDBRANCH   6   7
ENDBRANCH   1   6
TORSDOF 3
ENDMDL
MODEL 2
REMARK VINA RESULT:      -4.2      0.037      1.611
REMARK  Name = 4068592
REMARK  3 active torsions:
REMARK  status: ('A' for Active; 'I' for Inactive)
REMARK    1  A    between atoms: C_1  and  S_2
REMARK    2  A    between atoms: C_1  and  C_6
REMARK    3  A    between atoms: C_6  and  N_7
REMARK                            x       y       z     vdW  Elec       q    Type
REMARK                         _______ _______ _______ _____ _____    ______ ____
ROOT
ATOM      1  C   UNL     1      28.803 -24.278 -15.692  0.00  0.00    +0.134 C 
ENDROOT
BRANCH   1   2
ATOM      2  S   UNL     1      28.366 -22.878 -16.676  0.00  0.00    +0.020 S 
ATOM      3  O   UNL     1      27.495 -23.449 -17.701  0.00  0.00    -0.070 OA
ATOM      4  O   UNL     1      27.699 -21.994 -15.722  0.00  0.00    -0.070 OA
ATOM      5  O   UNL     1      29.659 -22.397 -17.163  0.00  0.00    -0.070 OA
ENDBRANCH   1   2
BRANCH   1   6
ATOM      6  C   UNL     1      30.240 -24.238 -15.218  0.00  0.00    -0.060 C 
BRANCH   6   7
ATOM      7  N   UNL     1      30.483 -23.011 -14.422  0.00  0.00    +0.382 N 
ATOM      8  H   UNL     1      31.179 -22.432 -14.892  0.00  0.00    -0.089 HD
ATOM      9  H   UNL     1      30.824 -23.268 -13.496  0.00  0.00    -0.089 HD
ATOM     10  H   UNL     1      29.612 -22.488 -14.330  0.00  0.00    -0.089 HD
ENDBRANCH   6   7
ENDBRANCH   1   6
TORSDOF 3
ENDMDL
MODEL 3
REMARK VINA RESULT:      -4.2      0.042      1.605
REMARK  Name = 4068592
REMARK  3 active torsions:
REMARK  status: ('A' for Active; 'I' for Inactive)
REMARK    1  A    between atoms: C_1  and  S_2
REMARK    2  A    between atoms: C_1  and  C_6
REMARK    3  A    between atoms: C_6  and  N_7
REMARK                            x       y       z     vdW  Elec       q    Type
REMARK                         _______ _______ _______ _____ _____    ______ ____
ROOT
ATOM      1  C   UNL     1      28.792 -24.285 -15.711  0.00  0.00    +0.134 C 
ENDROOT
BRANCH   1   2
ATOM      2  S   UNL     1      28.387 -22.859 -16.669  0.00  0.00    +0.020 S 
ATOM      3  O   UNL     1      27.764 -21.967 -15.693  0.00  0.00    -0.070 OA
ATOM      4  O   UNL     1      29.686 -22.413 -17.170  0.00  0.00    -0.070 OA
ATOM      5  O   UNL     1      27.481 -23.387 -17.688  0.00  0.00    -0.070 OA
ENDBRANCH   1   2
BRANCH   1   6
ATOM      6  C   UNL     1      30.211 -24.255 -15.182  0.00  0.00    -0.060 C 
BRANCH   6   7
ATOM      7  N   UNL     1      30.436 -23.020 -14.391  0.00  0.00    +0.382 N 
ATOM      8  H   UNL     1      31.418 -22.752 -14.454  0.00  0.00    -0.089 HD
ATOM      9  H   UNL     1      30.192 -23.192 -13.417  0.00  0.00    -0.089 HD
ATOM     10  H   UNL     1      29.854 -22.269 -14.762  0.00  0.00    -0.089 HD
ENDBRANCH   6   7
ENDBRANCH   1   6
TORSDOF 3
ENDMDL
MODEL 4
REMARK VINA RESULT:      -4.2      9.711     10.413
REMARK  Name = 4068592
REMARK  3 active torsions:
REMARK  status: ('A' for Active; 'I' for Inactive)
REMARK    1  A    between atoms: C_1  and  S_2
REMARK    2  A    between atoms: C_1  and  C_6
REMARK    3  A    between atoms: C_6  and  N_7
REMARK                            x       y       z     vdW  Elec       q    Type
REMARK                         _______ _______ _______ _____ _____    ______ ____
ROOT
ATOM      1  C   UNL     1      38.524 -25.232 -12.776  0.00  0.00    +0.134 C 
ENDROOT
BRANCH   1   2
ATOM      2  S   UNL     1      39.313 -25.280 -14.354  0.00  0.00    +0.020 S 
ATOM      3  O   UNL     1      39.046 -26.639 -14.820  0.00  0.00    -0.070 OA
ATOM      4  O   UNL     1      38.630 -24.226 -15.101  0.00  0.00    -0.070 OA
ATOM      5  O   UNL     1      40.713 -25.001 -14.036  0.00  0.00    -0.070 OA
ENDBRANCH   1   2
BRANCH   1   6
ATOM      6  C   UNL     1      37.309 -26.133 -12.698  0.00  0.00    -0.060 C 
BRANCH   6   7
ATOM      7  N   UNL     1      36.336 -25.772 -13.759  0.00  0.00    +0.382 N 
ATOM      8  H   UNL     1      36.819 -25.704 -14.654  0.00  0.00    -0.089 HD
ATOM      9  H   UNL     1      35.907 -24.875 -13.535  0.00  0.00    -0.089 HD
ATOM     10  H   UNL     1      35.614 -26.490 -13.815  0.00  0.00    -0.089 HD
ENDBRANCH   6   7
ENDBRANCH   1   6
TORSDOF 3
ENDMDL
MODEL 5
REMARK VINA RESULT:      -4.1      9.315      9.821
REMARK  Name = 4068592
REMARK  3 active torsions:
REMARK  status: ('A' for Active; 'I' for Inactive)
REMARK    1  A    between atoms: C_1  and  S_2
REMARK    2  A    between atoms: C_1  and  C_6
REMARK    3  A    between atoms: C_6  and  N_7
REMARK                            x       y       z     vdW  Elec       q    Type
REMARK                         _______ _______ _______ _____ _____    ______ ____
ROOT
ATOM      1  C   UNL     1      37.418 -24.816 -14.862  0.00  0.00    +0.134 C 
ENDROOT
BRANCH   1   2
ATOM      2  S   UNL     1      38.482 -25.691 -13.759  0.00  0.00    +0.020 S 
ATOM      3  O   UNL     1      37.570 -26.164 -12.719  0.00  0.00    -0.070 OA
ATOM      4  O   UNL     1      39.051 -26.740 -14.603  0.00  0.00    -0.070 OA
ATOM      5  O   UNL     1      39.431 -24.665 -13.326  0.00  0.00    -0.070 OA
ENDBRANCH   1   2
BRANCH   1   6
ATOM      6  C   UNL     1      36.032 -25.420 -14.944  0.00  0.00    -0.060 C 
BRANCH   6   7
ATOM      7  N   UNL     1      36.121 -26.869 -15.248  0.00  0.00    +0.382 N 
ATOM      8  H   UNL     1      35.323 -27.146 -15.819  0.00  0.00    -0.089 HD
ATOM      9  H   UNL     1      36.118 -27.399 -14.378  0.00  0.00    -0.089 HD
ATOM     10  H   UNL     1      36.985 -27.056 -15.757  0.00  0.00    -0.089 HD
ENDBRANCH   6   7
ENDBRANCH   1   6
TORSDOF 3
ENDMDL
MODEL 6
REMARK VINA RESULT:      -4.1      9.304      9.814
REMARK  Name = 4068592
REMARK  3 active torsions:
REMARK  status: ('A' for Active; 'I' for Inactive)
REMARK    1  A    between atoms: C_1  and  S_2
REMARK    2  A    between atoms: C_1  and  C_6
REMARK    3  A    between atoms: C_6  and  N_7
REMARK                            x       y       z     vdW  Elec       q    Type
REMARK                         _______ _______ _______ _____ _____    ______ ____
ROOT
ATOM      1  C   UNL     1      37.405 -24.800 -14.852  0.00  0.00    +0.134 C 
ENDROOT
BRANCH   1   2
ATOM      2  S   UNL     1      38.470 -25.685 -13.757  0.00  0.00    +0.020 S 
ATOM      3  O   UNL     1      39.422 -24.665 -13.320  0.00  0.00    -0.070 OA
ATOM      4  O   UNL     1      37.560 -26.164 -12.719  0.00  0.00    -0.070 OA
ATOM      5  O   UNL     1      39.035 -26.729 -14.612  0.00  0.00    -0.070 OA
ENDBRANCH   1   2
BRANCH   1   6
ATOM      6  C   UNL     1      36.020 -25.407 -14.943  0.00  0.00    -0.060 C 
BRANCH   6   7
ATOM      7  N   UNL     1      36.115 -26.855 -15.249  0.00  0.00    +0.382 N 
ATOM      8  H   UNL     1      35.178 -27.254 -15.298  0.00  0.00    -0.089 HD
ATOM      9  H   UNL     1      36.647 -27.323 -14.516  0.00  0.00    -0.089 HD
ATOM     10  H   UNL     1      36.586 -26.982 -16.145  0.00  0.00    -0.089 HD
ENDBRANCH   6   7
ENDBRANCH   1   6
TORSDOF 3
ENDMDL
MODEL 7
REMARK VINA RESULT:      -4.0      8.435      9.093
REMARK  Name = 4068592
REMARK  3 active torsions:
REMARK  status: ('A' for Active; 'I' for Inactive)
REMARK    1  A    between atoms: C_1  and  S_2
REMARK    2  A    between atoms: C_1  and  C_6
REMARK    3  A    between atoms: C_6  and  N_7
REMARK                            x       y       z     vdW  Elec       q    Type
REMARK                         _______ _______ _______ _____ _____    ______ ____
ROOT
ATOM      1  C   UNL     1      37.344 -24.869 -14.740  0.00  0.00    +0.134 C 
ENDROOT
BRANCH   1   2
ATOM      2  S   UNL     1      37.623 -26.612 -14.731  0.00  0.00    +0.020 S 
ATOM      3  O   UNL     1      39.068 -26.721 -14.919  0.00  0.00    -0.070 OA
ATOM      4  O   UNL     1      37.141 -27.021 -13.413  0.00  0.00    -0.070 OA
ATOM      5  O   UNL     1      36.817 -27.085 -15.856  0.00  0.00    -0.070 OA
ENDBRANCH   1   2
BRANCH   1   6
ATOM      6  C   UNL     1      35.946 -24.500 -15.190  0.00  0.00    -0.060 C 
BRANCH   6   7
ATOM      7  N   UNL     1      34.938 -25.219 -14.372  0.00  0.00    +0.382 N 
ATOM      8  H   UNL     1      35.344 -25.461 -13.469  0.00  0.00    -0.089 HD
ATOM      9  H   UNL     1      34.653 -26.070 -14.856  0.00  0.00    -0.089 HD
ATOM     10  H   UNL     1      34.126 -24.619 -14.231  0.00  0.00    -0.089 HD
ENDBRANCH   6   7
ENDBRANCH   1   6
TORSDOF 3
ENDMDL
MODEL 8
REMARK VINA RESULT:      -4.0      8.188      8.835
REMARK  Name = 4068592
REMARK  3 active torsions:
REMARK  status: ('A' for Active; 'I' for Inactive)
REMARK    1  A    between atoms: C_1  and  S_2
REMARK    2  A    between atoms: C_1  and  C_6
REMARK    3  A    between atoms: C_6  and  N_7
REMARK                            x       y       z     vdW  Elec       q    Type
REMARK                         _______ _______ _______ _____ _____    ______ ____
ROOT
ATOM      1  C   UNL     1      36.851 -24.125 -13.330  0.00  0.00    +0.134 C 
ENDROOT
BRANCH   1   2
ATOM      2  S   UNL     1      36.359 -24.890 -11.818  0.00  0.00    +0.020 S 
ATOM      3  O   UNL     1      36.903 -26.242 -11.935  0.00  0.00    -0.070 OA
ATOM      4  O   UNL     1      36.994 -24.056 -10.799  0.00  0.00    -0.070 OA
ATOM      5  O   UNL     1      34.899 -24.807 -11.861  0.00  0.00    -0.070 OA
ENDBRANCH   1   2
BRANCH   1   6
ATOM      6  C   UNL     1      36.885 -25.093 -14.495  0.00  0.00    -0.060 C 
BRANCH   6   7
ATOM      7  N   UNL     1      35.554 -25.719 -14.680  0.00  0.00    +0.382 N 
ATOM      8  H   UNL     1      35.091 -25.302 -15.487  0.00  0.00    -0.089 HD
ATOM      9  H   UNL     1      34.988 -25.566 -13.846  0.00  0.00    -0.089 HD
ATOM     10  H   UNL     1      35.669 -26.721 -14.833  0.00  0.00    -0.089 HD
ENDBRANCH   6   7
ENDBRANCH   1   6
TORSDOF 3
ENDMDL
MODEL 9
REMARK VINA RESULT:      -4.0      8.740      9.282
REMARK  Name = 4068592
REMARK  3 active torsions:
REMARK  status: ('A' for Active; 'I' for Inactive)
REMARK    1  A    between atoms: C_1  and  S_2
REMARK    2  A    between atoms: C_1  and  C_6
REMARK    3  A    between atoms: C_6  and  N_7
REMARK                            x       y       z     vdW  Elec       q    Type
REMARK                         _______ _______ _______ _____ _____    ______ ____
ROOT
ATOM      1  C   UNL     1      38.119 -24.837 -12.266  0.00  0.00    +0.134 C 
ENDROOT
BRANCH   1   2
ATOM      2  S   UNL     1      36.661 -24.019 -11.699  0.00  0.00    +0.020 S 
ATOM      3  O   UNL     1      36.028 -23.567 -12.936  0.00  0.00    -0.070 OA
ATOM      4  O   UNL     1      35.940 -25.074 -10.988  0.00  0.00    -0.070 OA
ATOM      5  O   UNL     1      37.186 -22.951 -10.848  0.00  0.00    -0.070 OA
ENDBRANCH   1   2
BRANCH   1   6
ATOM      6  C   UNL     1      37.906 -25.582 -13.567  0.00  0.00    -0.060 C 
BRANCH   6   7
ATOM      7  N   UNL     1      36.844 -26.605 -13.403  0.00  0.00    +0.382 N 
ATOM      8  H   UNL     1      36.690 -26.778 -12.410  0.00  0.00    -0.089 HD
ATOM      9  H   UNL     1      37.133 -27.470 -13.859  0.00  0.00    -0.089 HD
ATOM     10  H   UNL     1      35.981 -26.268 -13.829  0.00  0.00    -0.089 HD
ENDBRANCH   6   7
ENDBRANCH   1   6
TORSDOF 3
ENDMDL
