MODEL 1
REMARK VINA RESULT:      -5.2      0.000      0.000
REMARK  Name = 6973609
REMARK  1 active torsions:
REMARK  status: ('A' for Active; 'I' for Inactive)
REMARK    1  A    between atoms: C_3  and  C_10
REMARK                            x       y       z     vdW  Elec       q    Type
REMARK                         _______ _______ _______ _____ _____    ______ ____
ROOT
ATOM      1  S   UNK     1      36.553 -24.636 -13.747  0.00  0.00    -0.166 S 
ATOM      2  N   UNK     1      38.666 -26.044 -13.079  0.00  0.00    +0.399 N 
ATOM      3  C   UNK     1      38.841 -25.726 -14.533  0.00  0.00    +0.056 C 
ATOM      4  C   UNK     1      38.041 -24.457 -14.765  0.00  0.00    +0.045 C 
ATOM      5  C   UNK     1      37.223 -25.958 -12.724  0.00  0.00    -0.021 C 
ATOM      6  H   UNK     1      39.195 -25.376 -12.520  0.00  0.00    -0.082 HD
ATOM      7  H   UNK     1      39.006 -26.988 -12.895  0.00  0.00    -0.082 HD
ENDROOT
BRANCH   3  10
ATOM      8  O   UNK     1      40.679 -26.133 -15.932  0.00  0.00    -0.248 OA
ATOM      9  O   UNK     1      40.888 -24.639 -14.212  0.00  0.00    -0.248 OA
ATOM     10  C   UNK     1      40.276 -25.476 -14.933  0.00  0.00    +0.346 C 
ENDBRANCH   3  10
TORSDOF 1
ENDMDL
MODEL 2
REMARK VINA RESULT:      -5.0      1.571      2.130
REMARK  Name = 6973609
REMARK  1 active torsions:
REMARK  status: ('A' for Active; 'I' for Inactive)
REMARK    1  A    between atoms: C_3  and  C_10
REMARK                            x       y       z     vdW  Elec       q    Type
REMARK                         _______ _______ _______ _____ _____    ______ ____
ROOT
ATOM      1  S   UNK     1      36.226 -25.438 -14.928  0.00  0.00    -0.166 S 
ATOM      2  N   UNK     1      38.402 -24.054 -15.421  0.00  0.00    +0.399 N 
ATOM      3  C   UNK     1      38.800 -25.074 -14.399  0.00  0.00    +0.056 C 
ATOM      4  C   UNK     1      37.821 -26.220 -14.573  0.00  0.00    +0.045 C 
ATOM      5  C   UNK     1      36.931 -23.836 -15.356  0.00  0.00    -0.021 C 
ATOM      6  H   UNK     1      38.656 -24.388 -16.350  0.00  0.00    -0.082 HD
ATOM      7  H   UNK     1      38.885 -23.176 -15.230  0.00  0.00    -0.082 HD
ENDROOT
BRANCH   3  10
ATOM      8  O   UNK     1      41.108 -24.723 -14.637  0.00  0.00    -0.248 OA
ATOM      9  O   UNK     1      40.291 -26.860 -14.654  0.00  0.00    -0.248 OA
ATOM     10  C   UNK     1      40.204 -25.602 -14.581  0.00  0.00    +0.346 C 
ENDBRANCH   3  10
TORSDOF 1
ENDMDL
MODEL 3
REMARK VINA RESULT:      -5.0     10.083     10.539
REMARK  Name = 6973609
REMARK  1 active torsions:
REMARK  status: ('A' for Active; 'I' for Inactive)
REMARK    1  A    between atoms: C_3  and  C_10
REMARK                            x       y       z     vdW  Elec       q    Type
REMARK                         _______ _______ _______ _____ _____    ______ ____
ROOT
ATOM      1  S   UNK     1      31.412 -23.875 -15.159  0.00  0.00    -0.166 S 
ATOM      2  N   UNK     1      28.917 -24.651 -15.407  0.00  0.00    +0.399 N 
ATOM      3  C   UNK     1      28.932 -23.214 -15.830  0.00  0.00    +0.056 C 
ATOM      4  C   UNK     1      30.351 -22.949 -16.298  0.00  0.00    +0.045 C 
ATOM      5  C   UNK     1      30.088 -24.922 -14.530  0.00  0.00    -0.021 C 
ATOM      6  H   UNK     1      28.964 -25.248 -16.232  0.00  0.00    -0.082 HD
ATOM      7  H   UNK     1      28.056 -24.845 -14.895  0.00  0.00    -0.082 HD
ENDROOT
BRANCH   3  10
ATOM      8  O   UNK     1      27.639 -23.891 -17.667  0.00  0.00    -0.248 OA
ATOM      9  O   UNK     1      27.650 -21.686 -17.054  0.00  0.00    -0.248 OA
ATOM     10  C   UNK     1      27.981 -22.902 -16.961  0.00  0.00    +0.346 C 
ENDBRANCH   3  10
TORSDOF 1
ENDMDL
MODEL 4
REMARK VINA RESULT:      -4.9      2.780      3.311
REMARK  Name = 6973609
REMARK  1 active torsions:
REMARK  status: ('A' for Active; 'I' for Inactive)
REMARK    1  A    between atoms: C_3  and  C_10
REMARK                            x       y       z     vdW  Elec       q    Type
REMARK                         _______ _______ _______ _____ _____    ______ ____
ROOT
ATOM      1  S   UNK     1      35.955 -24.625 -11.762  0.00  0.00    -0.166 S 
ATOM      2  N   UNK     1      35.222 -25.194 -14.218  0.00  0.00    +0.399 N 
ATOM      3  C   UNK     1      36.696 -25.461 -14.169  0.00  0.00    +0.056 C 
ATOM      4  C   UNK     1      37.001 -25.759 -12.712  0.00  0.00    +0.045 C 
ATOM      5  C   UNK     1      34.856 -24.240 -13.136  0.00  0.00    -0.021 C 
ATOM      6  H   UNK     1      34.715 -26.069 -14.088  0.00  0.00    -0.082 HD
ATOM      7  H   UNK     1      34.981 -24.791 -15.124  0.00  0.00    -0.082 HD
ENDROOT
BRANCH   3  10
ATOM      8  O   UNK     1      38.235 -27.156 -14.682  0.00  0.00    -0.248 OA
ATOM      9  O   UNK     1      36.325 -26.961 -15.927  0.00  0.00    -0.248 OA
ATOM     10  C   UNK     1      37.129 -26.641 -15.007  0.00  0.00    +0.346 C 
ENDBRANCH   3  10
TORSDOF 1
ENDMDL
MODEL 5
REMARK VINA RESULT:      -4.7      2.857      3.477
REMARK  Name = 6973609
REMARK  1 active torsions:
REMARK  status: ('A' for Active; 'I' for Inactive)
REMARK    1  A    between atoms: C_3  and  C_10
REMARK                            x       y       z     vdW  Elec       q    Type
REMARK                         _______ _______ _______ _____ _____    ______ ____
ROOT
ATOM      1  S   UNK     1      35.299 -23.043 -15.409  0.00  0.00    -0.166 S 
ATOM      2  N   UNK     1      37.676 -24.149 -15.530  0.00  0.00    +0.399 N 
ATOM      3  C   UNK     1      36.827 -25.112 -14.758  0.00  0.00    +0.056 C 
ATOM      4  C   UNK     1      35.403 -24.840 -15.208  0.00  0.00    +0.045 C 
ATOM      5  C   UNK     1      37.081 -22.787 -15.448  0.00  0.00    -0.021 C 
ATOM      6  H   UNK     1      37.721 -24.442 -16.505  0.00  0.00    -0.082 HD
ATOM      7  H   UNK     1      38.617 -24.134 -15.135  0.00  0.00    -0.082 HD
ENDROOT
BRANCH   3  10
ATOM      8  O   UNK     1      37.939 -27.100 -14.198  0.00  0.00    -0.248 OA
ATOM      9  O   UNK     1      36.595 -27.050 -16.049  0.00  0.00    -0.248 OA
ATOM     10  C   UNK     1      37.154 -26.562 -15.027  0.00  0.00    +0.346 C 
ENDBRANCH   3  10
TORSDOF 1
ENDMDL
MODEL 6
REMARK VINA RESULT:      -4.7      3.703      4.426
REMARK  Name = 6973609
REMARK  1 active torsions:
REMARK  status: ('A' for Active; 'I' for Inactive)
REMARK    1  A    between atoms: C_3  and  C_10
REMARK                            x       y       z     vdW  Elec       q    Type
REMARK                         _______ _______ _______ _____ _____    ______ ____
ROOT
ATOM      1  S   UNK     1      39.039 -25.512 -13.693  0.00  0.00    -0.166 S 
ATOM      2  N   UNK     1      36.441 -25.886 -13.655  0.00  0.00    +0.399 N 
ATOM      3  C   UNK     1      36.807 -25.489 -12.258  0.00  0.00    +0.056 C 
ATOM      4  C   UNK     1      38.087 -24.685 -12.392  0.00  0.00    +0.045 C 
ATOM      5  C   UNK     1      37.639 -26.439 -14.343  0.00  0.00    -0.021 C 
ATOM      6  H   UNK     1      36.104 -25.068 -14.162  0.00  0.00    -0.082 HD
ATOM      7  H   UNK     1      35.707 -26.594 -13.625  0.00  0.00    -0.082 HD
ENDROOT
BRANCH   3  10
ATOM      8  O   UNK     1      35.323 -25.094 -10.485  0.00  0.00    -0.248 OA
ATOM      9  O   UNK     1      35.472 -23.568 -12.183  0.00  0.00    -0.248 OA
ATOM     10  C   UNK     1      35.766 -24.635 -11.574  0.00  0.00    +0.346 C 
ENDBRANCH   3  10
TORSDOF 1
ENDMDL
MODEL 7
REMARK VINA RESULT:      -4.7      8.151      8.813
REMARK  Name = 6973609
REMARK  1 active torsions:
REMARK  status: ('A' for Active; 'I' for Inactive)
REMARK    1  A    between atoms: C_3  and  C_10
REMARK                            x       y       z     vdW  Elec       q    Type
REMARK                         _______ _______ _______ _____ _____    ______ ____
ROOT
ATOM      1  S   UNK     1      34.804 -19.861 -20.847  0.00  0.00    -0.166 S 
ATOM      2  N   UNK     1      32.630 -20.698 -19.637  0.00  0.00    +0.399 N 
ATOM      3  C   UNK     1      33.595 -21.842 -19.561  0.00  0.00    +0.056 C 
ATOM      4  C   UNK     1      34.972 -21.210 -19.651  0.00  0.00    +0.045 C 
ATOM      5  C   UNK     1      33.005 -19.808 -20.769  0.00  0.00    -0.021 C 
ATOM      6  H   UNK     1      32.659 -20.171 -18.765  0.00  0.00    -0.082 HD
ATOM      7  H   UNK     1      31.687 -21.059 -19.785  0.00  0.00    -0.082 HD
ENDROOT
BRANCH   3  10
ATOM      8  O   UNK     1      34.609 -23.011 -17.799  0.00  0.00    -0.248 OA
ATOM      9  O   UNK     1      32.331 -22.807 -17.844  0.00  0.00    -0.248 OA
ATOM     10  C   UNK     1      33.505 -22.631 -18.276  0.00  0.00    +0.346 C 
ENDBRANCH   3  10
TORSDOF 1
ENDMDL
MODEL 8
REMARK VINA RESULT:      -4.7      3.874      4.711
REMARK  Name = 6973609
REMARK  1 active torsions:
REMARK  status: ('A' for Active; 'I' for Inactive)
REMARK    1  A    between atoms: C_3  and  C_10
REMARK                            x       y       z     vdW  Elec       q    Type
REMARK                         _______ _______ _______ _____ _____    ______ ____
ROOT
ATOM      1  S   UNK     1      36.110 -25.200 -14.632  0.00  0.00    -0.166 S 
ATOM      2  N   UNK     1      35.023 -23.474 -12.980  0.00  0.00    +0.399 N 
ATOM      3  C   UNK     1      35.773 -24.438 -12.113  0.00  0.00    +0.056 C 
ATOM      4  C   UNK     1      36.868 -25.004 -12.999  0.00  0.00    +0.045 C 
ATOM      5  C   UNK     1      34.711 -24.120 -14.284  0.00  0.00    -0.021 C 
ATOM      6  H   UNK     1      35.594 -22.644 -13.138  0.00  0.00    -0.082 HD
ATOM      7  H   UNK     1      34.154 -23.206 -12.517  0.00  0.00    -0.082 HD
ENDROOT
BRANCH   3  10
ATOM      8  O   UNK     1      37.257 -22.896 -11.151  0.00  0.00    -0.248 OA
ATOM      9  O   UNK     1      36.012 -24.252  -9.792  0.00  0.00    -0.248 OA
ATOM     10  C   UNK     1      36.411 -23.798 -10.902  0.00  0.00    +0.346 C 
ENDBRANCH   3  10
TORSDOF 1
ENDMDL
MODEL 9
REMARK VINA RESULT:      -4.7     11.909     12.593
REMARK  Name = 6973609
REMARK  1 active torsions:
REMARK  status: ('A' for Active; 'I' for Inactive)
REMARK    1  A    between atoms: C_3  and  C_10
REMARK                            x       y       z     vdW  Elec       q    Type
REMARK                         _______ _______ _______ _____ _____    ______ ____
ROOT
ATOM      1  S   UNK     1      34.541 -18.643 -24.714  0.00  0.00    -0.166 S 
ATOM      2  N   UNK     1      35.308 -16.454 -23.485  0.00  0.00    +0.399 N 
ATOM      3  C   UNK     1      34.574 -17.254 -22.453  0.00  0.00    +0.056 C 
ATOM      4  C   UNK     1      34.689 -18.697 -22.909  0.00  0.00    +0.045 C 
ATOM      5  C   UNK     1      34.871 -16.877 -24.843  0.00  0.00    -0.021 C 
ATOM      6  H   UNK     1      36.310 -16.610 -23.385  0.00  0.00    -0.082 HD
ATOM      7  H   UNK     1      35.102 -15.463 -23.355  0.00  0.00    -0.082 HD
ENDROOT
BRANCH   3  10
ATOM      8  O   UNK     1      34.989 -16.017 -20.504  0.00  0.00    -0.248 OA
ATOM      9  O   UNK     1      35.734 -18.176 -20.641  0.00  0.00    -0.248 OA
ATOM     10  C   UNK     1      35.155 -17.136 -21.063  0.00  0.00    +0.346 C 
ENDBRANCH   3  10
TORSDOF 1
ENDMDL
