MODEL 1
REMARK VINA RESULT:      -9.4      0.000      0.000
REMARK  Name = 449159
REMARK  6 active torsions:
REMARK  status: ('A' for Active; 'I' for Inactive)
REMARK    1  A    between atoms: C_2  and  C_19
REMARK    2  A    between atoms: C_13  and  O_15
REMARK    3  A    between atoms: C_14  and  O_17
REMARK    4  A    between atoms: C_19  and  C_20
REMARK    5  A    between atoms: C_20  and  C_22
REMARK    6  A    between atoms: C_22  and  O_23
REMARK                            x       y       z     vdW  Elec       q    Type
REMARK                         _______ _______ _______ _____ _____    ______ ____
ROOT
ATOM      1  O   UNL     1      32.686 -22.347 -18.497  0.00  0.00    -0.454 OA
ATOM      2  C   UNL     1      35.297 -22.776 -17.258  0.00  0.00    -0.019 C 
ATOM      3  C   UNL     1      33.989 -23.098 -16.574  0.00  0.00    +0.013 C 
ATOM      4  C   UNL     1      35.088 -21.914 -18.481  0.00  0.00    +0.031 C 
ATOM      5  C   UNL     1      32.774 -22.884 -17.234  0.00  0.00    +0.144 C 
ATOM      6  C   UNL     1      33.811 -21.766 -19.033  0.00  0.00    +0.148 C 
ATOM      7  C   UNL     1      33.971 -23.630 -15.276  0.00  0.00    +0.058 C 
ATOM      8  C   UNL     1      36.169 -21.262 -19.090  0.00  0.00    +0.006 C 
ATOM      9  C   UNL     1      31.564 -23.217 -16.619  0.00  0.00    +0.073 C 
ATOM     10  C   UNL     1      33.621 -21.001 -20.187  0.00  0.00    +0.074 C 
ATOM     11  C   UNL     1      32.762 -23.955 -14.659  0.00  0.00    +0.015 C 
ATOM     12  C   UNL     1      35.978 -20.491 -20.237  0.00  0.00    +0.037 C 
ATOM     13  C   UNL     1      31.559 -23.751 -15.332  0.00  0.00    +0.133 C 
ATOM     14  C   UNL     1      34.705 -20.363 -20.788  0.00  0.00    +0.137 C 
ENDROOT
BRANCH  13  15
ATOM     15  O   UNL     1      30.381 -24.070 -14.731  0.00  0.00    -0.506 OA
ATOM     16  H   UNL     1      29.569 -23.845 -15.141  0.00  0.00    +0.292 HD
ENDBRANCH  13  15
BRANCH  14  17
ATOM     17  O   UNL     1      34.519 -19.615 -21.909  0.00  0.00    -0.505 OA
ATOM     18  H   UNL     1      34.714 -19.978 -22.751  0.00  0.00    +0.292 HD
ENDBRANCH  14  17
BRANCH   2  19
ATOM     19  C   UNL     1      36.259 -22.092 -16.277  0.00  0.00    +0.038 C 
BRANCH  19  20
ATOM     20  C   UNL     1      37.596 -22.809 -16.186  0.00  0.00    +0.114 C 
BRANCH  20  22
ATOM     21  O   UNL     1      37.889 -23.567 -13.912  0.00  0.00    -0.250 OA
ATOM     22  C   UNL     1      37.613 -23.830 -15.075  0.00  0.00    +0.314 C 
BRANCH  22  23
ATOM     23  O   UNL     1      37.263 -25.070 -15.494  0.00  0.00    -0.480 OA
ATOM     24  H   UNL     1      36.892 -25.190 -16.347  0.00  0.00    +0.295 HD
ENDBRANCH  22  23
ENDBRANCH  20  22
ENDBRANCH  19  20
ENDBRANCH   2  19
TORSDOF 6
ENDMDL
MODEL 2
REMARK VINA RESULT:      -9.0      2.098      5.744
REMARK  Name = 449159
REMARK  6 active torsions:
REMARK  status: ('A' for Active; 'I' for Inactive)
REMARK    1  A    between atoms: C_2  and  C_19
REMARK    2  A    between atoms: C_13  and  O_15
REMARK    3  A    between atoms: C_14  and  O_17
REMARK    4  A    between atoms: C_19  and  C_20
REMARK    5  A    between atoms: C_20  and  C_22
REMARK    6  A    between atoms: C_22  and  O_23
REMARK                            x       y       z     vdW  Elec       q    Type
REMARK                         _______ _______ _______ _____ _____    ______ ____
ROOT
ATOM      1  O   UNL     1      33.268 -24.432 -12.815  0.00  0.00    -0.454 OA
ATOM      2  C   UNL     1      33.999 -23.170 -15.346  0.00  0.00    -0.019 C 
ATOM      3  C   UNL     1      32.646 -23.788 -15.086  0.00  0.00    +0.013 C 
ATOM      4  C   UNL     1      35.007 -23.575 -14.297  0.00  0.00    +0.031 C 
ATOM      5  C   UNL     1      32.357 -24.360 -13.842  0.00  0.00    +0.144 C 
ATOM      6  C   UNL     1      34.586 -24.160 -13.099  0.00  0.00    +0.148 C 
ATOM      7  C   UNL     1      31.654 -23.785 -16.077  0.00  0.00    +0.058 C 
ATOM      8  C   UNL     1      36.378 -23.360 -14.500  0.00  0.00    +0.006 C 
ATOM      9  C   UNL     1      31.093 -24.899 -13.585  0.00  0.00    +0.073 C 
ATOM     10  C   UNL     1      35.513 -24.501 -12.110  0.00  0.00    +0.074 C 
ATOM     11  C   UNL     1      30.395 -24.330 -15.823  0.00  0.00    +0.015 C 
ATOM     12  C   UNL     1      37.304 -23.709 -13.517  0.00  0.00    +0.037 C 
ATOM     13  C   UNL     1      30.114 -24.884 -14.576  0.00  0.00    +0.133 C 
ATOM     14  C   UNL     1      36.872 -24.276 -12.321  0.00  0.00    +0.137 C 
ENDROOT
BRANCH  13  15
ATOM     15  O   UNL     1      28.885 -25.413 -14.327  0.00  0.00    -0.506 OA
ATOM     16  H   UNL     1      28.148 -24.849 -14.199  0.00  0.00    +0.292 HD
ENDBRANCH  13  15
BRANCH  14  17
ATOM     17  O   UNL     1      37.776 -24.612 -11.360  0.00  0.00    -0.505 OA
ATOM     18  H   UNL     1      37.723 -24.218 -10.510  0.00  0.00    +0.292 HD
ENDBRANCH  14  17
BRANCH   2  19
ATOM     19  C   UNL     1      34.500 -23.548 -16.747  0.00  0.00    +0.038 C 
BRANCH  19  20
ATOM     20  C   UNL     1      34.622 -22.341 -17.661  0.00  0.00    +0.114 C 
BRANCH  20  22
ATOM     21  O   UNL     1      32.971 -21.582 -19.252  0.00  0.00    -0.250 OA
ATOM     22  C   UNL     1      33.735 -22.462 -18.875  0.00  0.00    +0.314 C 
BRANCH  22  23
ATOM     23  O   UNL     1      33.891 -23.640 -19.527  0.00  0.00    -0.480 OA
ATOM     24  H   UNL     1      33.641 -23.714 -20.428  0.00  0.00    +0.295 HD
ENDBRANCH  22  23
ENDBRANCH  20  22
ENDBRANCH  19  20
ENDBRANCH   2  19
TORSDOF 6
ENDMDL
MODEL 3
REMARK VINA RESULT:      -8.8      1.801      6.421
REMARK  Name = 449159
REMARK  6 active torsions:
REMARK  status: ('A' for Active; 'I' for Inactive)
REMARK    1  A    between atoms: C_2  and  C_19
REMARK    2  A    between atoms: C_13  and  O_15
REMARK    3  A    between atoms: C_14  and  O_17
REMARK    4  A    between atoms: C_19  and  C_20
REMARK    5  A    between atoms: C_20  and  C_22
REMARK    6  A    between atoms: C_22  and  O_23
REMARK                            x       y       z     vdW  Elec       q    Type
REMARK                         _______ _______ _______ _____ _____    ______ ____
ROOT
ATOM      1  O   UNL     1      36.570 -22.855 -15.856  0.00  0.00    -0.454 OA
ATOM      2  C   UNL     1      33.826 -23.784 -15.479  0.00  0.00    -0.019 C 
ATOM      3  C   UNL     1      34.300 -23.077 -16.727  0.00  0.00    +0.013 C 
ATOM      4  C   UNL     1      34.820 -23.650 -14.351  0.00  0.00    +0.031 C 
ATOM      5  C   UNL     1      35.635 -22.675 -16.848  0.00  0.00    +0.144 C 
ATOM      6  C   UNL     1      36.125 -23.215 -14.606  0.00  0.00    +0.148 C 
ATOM      7  C   UNL     1      33.419 -22.826 -17.789  0.00  0.00    +0.058 C 
ATOM      8  C   UNL     1      34.458 -23.972 -13.036  0.00  0.00    +0.006 C 
ATOM      9  C   UNL     1      36.087 -22.055 -18.016  0.00  0.00    +0.073 C 
ATOM     10  C   UNL     1      37.059 -23.126 -13.570  0.00  0.00    +0.074 C 
ATOM     11  C   UNL     1      33.868 -22.200 -18.952  0.00  0.00    +0.015 C 
ATOM     12  C   UNL     1      35.388 -23.875 -12.000  0.00  0.00    +0.037 C 
ATOM     13  C   UNL     1      35.202 -21.817 -19.066  0.00  0.00    +0.133 C 
ATOM     14  C   UNL     1      36.689 -23.455 -12.266  0.00  0.00    +0.137 C 
ENDROOT
BRANCH  13  15
ATOM     15  O   UNL     1      35.641 -21.209 -20.202  0.00  0.00    -0.506 OA
ATOM     16  H   UNL     1      36.079 -21.708 -20.862  0.00  0.00    +0.292 HD
ENDBRANCH  13  15
BRANCH  14  17
ATOM     17  O   UNL     1      37.596 -23.365 -11.257  0.00  0.00    -0.505 OA
ATOM     18  H   UNL     1      37.396 -23.724 -10.414  0.00  0.00    +0.292 HD
ENDBRANCH  14  17
BRANCH   2  19
ATOM     19  C   UNL     1      32.452 -23.250 -15.052  0.00  0.00    +0.038 C 
BRANCH  19  20
ATOM     20  C   UNL     1      31.350 -24.279 -15.235  0.00  0.00    +0.114 C 
BRANCH  20  22
ATOM     21  O   UNL     1      30.910 -24.045 -12.872  0.00  0.00    -0.250 OA
ATOM     22  C   UNL     1      30.622 -24.562 -13.943  0.00  0.00    +0.314 C 
BRANCH  22  23
ATOM     23  O   UNL     1      29.594 -25.431 -14.097  0.00  0.00    -0.480 OA
ATOM     24  H   UNL     1      29.179 -25.524 -14.932  0.00  0.00    +0.295 HD
ENDBRANCH  22  23
ENDBRANCH  20  22
ENDBRANCH  19  20
ENDBRANCH   2  19
TORSDOF 6
ENDMDL
MODEL 4
REMARK VINA RESULT:      -8.8      7.316     11.302
REMARK  Name = 449159
REMARK  6 active torsions:
REMARK  status: ('A' for Active; 'I' for Inactive)
REMARK    1  A    between atoms: C_2  and  C_19
REMARK    2  A    between atoms: C_13  and  O_15
REMARK    3  A    between atoms: C_14  and  O_17
REMARK    4  A    between atoms: C_19  and  C_20
REMARK    5  A    between atoms: C_20  and  C_22
REMARK    6  A    between atoms: C_22  and  O_23
REMARK                            x       y       z     vdW  Elec       q    Type
REMARK                         _______ _______ _______ _____ _____    ______ ____
ROOT
ATOM      1  O   UNL     1      32.962 -14.545 -20.378  0.00  0.00    -0.454 OA
ATOM      2  C   UNL     1      32.874 -14.107 -23.265  0.00  0.00    -0.019 C 
ATOM      3  C   UNL     1      33.706 -15.185 -22.612  0.00  0.00    +0.013 C 
ATOM      4  C   UNL     1      32.380 -13.098 -22.256  0.00  0.00    +0.031 C 
ATOM      5  C   UNL     1      33.687 -15.351 -21.223  0.00  0.00    +0.144 C 
ATOM      6  C   UNL     1      32.436 -13.380 -20.887  0.00  0.00    +0.148 C 
ATOM      7  C   UNL     1      34.498 -16.048 -23.386  0.00  0.00    +0.058 C 
ATOM      8  C   UNL     1      31.845 -11.871 -22.673  0.00  0.00    +0.006 C 
ATOM      9  C   UNL     1      34.426 -16.372 -20.619  0.00  0.00    +0.073 C 
ATOM     10  C   UNL     1      31.944 -12.465 -19.952  0.00  0.00    +0.074 C 
ATOM     11  C   UNL     1      35.241 -17.062 -22.782  0.00  0.00    +0.015 C 
ATOM     12  C   UNL     1      31.363 -10.953 -21.740  0.00  0.00    +0.037 C 
ATOM     13  C   UNL     1      35.203 -17.226 -21.399  0.00  0.00    +0.133 C 
ATOM     14  C   UNL     1      31.409 -11.251 -20.380  0.00  0.00    +0.137 C 
ENDROOT
BRANCH  13  15
ATOM     15  O   UNL     1      35.925 -18.217 -20.811  0.00  0.00    -0.506 OA
ATOM     16  H   UNL     1      36.151 -18.985 -21.297  0.00  0.00    +0.292 HD
ENDBRANCH  13  15
BRANCH  14  17
ATOM     17  O   UNL     1      30.934 -10.358 -19.470  0.00  0.00    -0.505 OA
ATOM     18  H   UNL     1      31.092  -9.441 -19.588  0.00  0.00    +0.292 HD
ENDBRANCH  14  17
BRANCH   2  19
ATOM     19  C   UNL     1      33.676 -13.410 -24.373  0.00  0.00    +0.038 C 
BRANCH  19  20
ATOM     20  C   UNL     1      32.895 -13.308 -25.672  0.00  0.00    +0.114 C 
BRANCH  20  22
ATOM     21  O   UNL     1      33.386 -15.476 -26.616  0.00  0.00    -0.250 OA
ATOM     22  C   UNL     1      33.420 -14.257 -26.721  0.00  0.00    +0.314 C 
BRANCH  22  23
ATOM     23  O   UNL     1      33.912 -13.619 -27.812  0.00  0.00    -0.480 OA
ATOM     24  H   UNL     1      33.328 -13.191 -28.407  0.00  0.00    +0.295 HD
ENDBRANCH  22  23
ENDBRANCH  20  22
ENDBRANCH  19  20
ENDBRANCH   2  19
TORSDOF 6
ENDMDL
MODEL 5
REMARK VINA RESULT:      -8.8      1.438      6.250
REMARK  Name = 449159
REMARK  6 active torsions:
REMARK  status: ('A' for Active; 'I' for Inactive)
REMARK    1  A    between atoms: C_2  and  C_19
REMARK    2  A    between atoms: C_13  and  O_15
REMARK    3  A    between atoms: C_14  and  O_17
REMARK    4  A    between atoms: C_19  and  C_20
REMARK    5  A    between atoms: C_20  and  C_22
REMARK    6  A    between atoms: C_22  and  O_23
REMARK                            x       y       z     vdW  Elec       q    Type
REMARK                         _______ _______ _______ _____ _____    ______ ____
ROOT
ATOM      1  O   UNL     1      36.540 -22.458 -17.289  0.00  0.00    -0.454 OA
ATOM      2  C   UNL     1      33.815 -23.338 -16.710  0.00  0.00    -0.019 C 
ATOM      3  C   UNL     1      34.174 -22.468 -17.890  0.00  0.00    +0.013 C 
ATOM      4  C   UNL     1      34.942 -23.410 -15.708  0.00  0.00    +0.031 C 
ATOM      5  C   UNL     1      35.504 -22.098 -18.119  0.00  0.00    +0.144 C 
ATOM      6  C   UNL     1      36.229 -22.987 -16.058  0.00  0.00    +0.148 C 
ATOM      7  C   UNL     1      33.187 -22.029 -18.785  0.00  0.00    +0.058 C 
ATOM      8  C   UNL     1      34.723 -23.915 -14.418  0.00  0.00    +0.006 C 
ATOM      9  C   UNL     1      35.846 -21.324 -19.231  0.00  0.00    +0.073 C 
ATOM     10  C   UNL     1      37.283 -23.089 -15.146  0.00  0.00    +0.074 C 
ATOM     11  C   UNL     1      33.526 -21.250 -19.892  0.00  0.00    +0.015 C 
ATOM     12  C   UNL     1      35.773 -24.008 -13.504  0.00  0.00    +0.037 C 
ATOM     13  C   UNL     1      34.856 -20.900 -20.116  0.00  0.00    +0.133 C 
ATOM     14  C   UNL     1      37.053 -23.598 -13.868  0.00  0.00    +0.137 C 
ENDROOT
BRANCH  13  15
ATOM     15  O   UNL     1      35.188 -20.143 -21.197  0.00  0.00    -0.506 OA
ATOM     16  H   UNL     1      35.733 -19.389 -21.091  0.00  0.00    +0.292 HD
ENDBRANCH  13  15
BRANCH  14  17
ATOM     17  O   UNL     1      38.078 -23.693 -12.978  0.00  0.00    -0.505 OA
ATOM     18  H   UNL     1      37.905 -23.937 -12.089  0.00  0.00    +0.292 HD
ENDBRANCH  14  17
BRANCH   2  19
ATOM     19  C   UNL     1      32.532 -22.828 -16.039  0.00  0.00    +0.038 C 
BRANCH  19  20
ATOM     20  C   UNL     1      31.415 -23.857 -16.072  0.00  0.00    +0.114 C 
BRANCH  20  22
ATOM     21  O   UNL     1      29.826 -22.361 -17.107  0.00  0.00    -0.250 OA
ATOM     22  C   UNL     1      30.063 -23.215 -16.262  0.00  0.00    +0.314 C 
BRANCH  22  23
ATOM     23  O   UNL     1      29.124 -23.702 -15.414  0.00  0.00    -0.480 OA
ATOM     24  H   UNL     1      29.383 -24.104 -14.608  0.00  0.00    +0.295 HD
ENDBRANCH  22  23
ENDBRANCH  20  22
ENDBRANCH  19  20
ENDBRANCH   2  19
TORSDOF 6
ENDMDL
MODEL 6
REMARK VINA RESULT:      -8.8      1.638      2.026
REMARK  Name = 449159
REMARK  6 active torsions:
REMARK  status: ('A' for Active; 'I' for Inactive)
REMARK    1  A    between atoms: C_2  and  C_19
REMARK    2  A    between atoms: C_13  and  O_15
REMARK    3  A    between atoms: C_14  and  O_17
REMARK    4  A    between atoms: C_19  and  C_20
REMARK    5  A    between atoms: C_20  and  C_22
REMARK    6  A    between atoms: C_22  and  O_23
REMARK                            x       y       z     vdW  Elec       q    Type
REMARK                         _______ _______ _______ _____ _____    ______ ____
ROOT
ATOM      1  O   UNL     1      32.291 -22.587 -18.072  0.00  0.00    -0.454 OA
ATOM      2  C   UNL     1      34.245 -23.484 -16.093  0.00  0.00    -0.019 C 
ATOM      3  C   UNL     1      32.757 -23.458 -15.839  0.00  0.00    +0.013 C 
ATOM      4  C   UNL     1      34.613 -22.693 -17.326  0.00  0.00    +0.031 C 
ATOM      5  C   UNL     1      31.875 -23.033 -16.839  0.00  0.00    +0.144 C 
ATOM      6  C   UNL     1      33.628 -22.310 -18.242  0.00  0.00    +0.148 C 
ATOM      7  C   UNL     1      32.232 -23.874 -14.606  0.00  0.00    +0.058 C 
ATOM      8  C   UNL     1      35.947 -22.342 -17.580  0.00  0.00    +0.006 C 
ATOM      9  C   UNL     1      30.495 -23.045 -16.621  0.00  0.00    +0.073 C 
ATOM     10  C   UNL     1      33.970 -21.612 -19.403  0.00  0.00    +0.074 C 
ATOM     11  C   UNL     1      30.854 -23.877 -14.386  0.00  0.00    +0.015 C 
ATOM     12  C   UNL     1      36.287 -21.637 -18.734  0.00  0.00    +0.037 C 
ATOM     13  C   UNL     1      29.986 -23.466 -15.394  0.00  0.00    +0.133 C 
ATOM     14  C   UNL     1      35.300 -21.275 -19.647  0.00  0.00    +0.137 C 
ENDROOT
BRANCH  13  15
ATOM     15  O   UNL     1      28.642 -23.472 -15.180  0.00  0.00    -0.506 OA
ATOM     16  H   UNL     1      28.063 -23.108 -15.820  0.00  0.00    +0.292 HD
ENDBRANCH  13  15
BRANCH  14  17
ATOM     17  O   UNL     1      35.634 -20.591 -20.776  0.00  0.00    -0.505 OA
ATOM     18  H   UNL     1      34.985 -20.082 -21.223  0.00  0.00    +0.292 HD
ENDBRANCH  14  17
BRANCH   2  19
ATOM     19  C   UNL     1      35.006 -22.956 -14.869  0.00  0.00    +0.038 C 
BRANCH  19  20
ATOM     20  C   UNL     1      35.784 -24.050 -14.157  0.00  0.00    +0.114 C 
BRANCH  20  22
ATOM     21  O   UNL     1      36.182 -23.225 -11.922  0.00  0.00    -0.250 OA
ATOM     22  C   UNL     1      35.588 -23.999 -12.662  0.00  0.00    +0.314 C 
BRANCH  22  23
ATOM     23  O   UNL     1      34.661 -24.884 -12.221  0.00  0.00    -0.480 OA
ATOM     24  H   UNL     1      34.464 -24.940 -11.306  0.00  0.00    +0.295 HD
ENDBRANCH  22  23
ENDBRANCH  20  22
ENDBRANCH  19  20
ENDBRANCH   2  19
TORSDOF 6
ENDMDL
MODEL 7
REMARK VINA RESULT:      -8.7      1.962      5.470
REMARK  Name = 449159
REMARK  6 active torsions:
REMARK  status: ('A' for Active; 'I' for Inactive)
REMARK    1  A    between atoms: C_2  and  C_19
REMARK    2  A    between atoms: C_13  and  O_15
REMARK    3  A    between atoms: C_14  and  O_17
REMARK    4  A    between atoms: C_19  and  C_20
REMARK    5  A    between atoms: C_20  and  C_22
REMARK    6  A    between atoms: C_22  and  O_23
REMARK                            x       y       z     vdW  Elec       q    Type
REMARK                         _______ _______ _______ _____ _____    ______ ____
ROOT
ATOM      1  O   UNL     1      32.385 -23.115 -17.034  0.00  0.00    -0.454 OA
ATOM      2  C   UNL     1      34.262 -23.214 -14.796  0.00  0.00    -0.019 C 
ATOM      3  C   UNL     1      34.664 -22.840 -16.203  0.00  0.00    +0.013 C 
ATOM      4  C   UNL     1      32.889 -23.842 -14.759  0.00  0.00    +0.031 C 
ATOM      5  C   UNL     1      33.709 -22.795 -17.225  0.00  0.00    +0.144 C 
ATOM      6  C   UNL     1      32.034 -23.742 -15.861  0.00  0.00    +0.148 C 
ATOM      7  C   UNL     1      35.995 -22.517 -16.507  0.00  0.00    +0.058 C 
ATOM      8  C   UNL     1      32.444 -24.522 -13.616  0.00  0.00    +0.006 C 
ATOM      9  C   UNL     1      34.071 -22.413 -18.519  0.00  0.00    +0.073 C 
ATOM     10  C   UNL     1      30.749 -24.289 -15.815  0.00  0.00    +0.074 C 
ATOM     11  C   UNL     1      36.358 -22.143 -17.801  0.00  0.00    +0.015 C 
ATOM     12  C   UNL     1      31.165 -25.076 -13.573  0.00  0.00    +0.037 C 
ATOM     13  C   UNL     1      35.395 -22.088 -18.806  0.00  0.00    +0.133 C 
ATOM     14  C   UNL     1      30.316 -24.957 -14.671  0.00  0.00    +0.137 C 
ENDROOT
BRANCH  13  15
ATOM     15  O   UNL     1      35.748 -21.721 -20.068  0.00  0.00    -0.506 OA
ATOM     16  H   UNL     1      35.087 -21.522 -20.701  0.00  0.00    +0.292 HD
ENDBRANCH  13  15
BRANCH  14  17
ATOM     17  O   UNL     1      29.066 -25.494 -14.627  0.00  0.00    -0.505 OA
ATOM     18  H   UNL     1      28.325 -24.975 -14.875  0.00  0.00    +0.292 HD
ENDBRANCH  14  17
BRANCH   2  19
ATOM     19  C   UNL     1      35.302 -24.156 -14.175  0.00  0.00    +0.038 C 
BRANCH  19  20
ATOM     20  C   UNL     1      36.101 -23.486 -13.071  0.00  0.00    +0.114 C 
BRANCH  20  22
ATOM     21  O   UNL     1      37.013 -24.273 -10.977  0.00  0.00    -0.250 OA
ATOM     22  C   UNL     1      36.110 -24.305 -11.804  0.00  0.00    +0.314 C 
BRANCH  22  23
ATOM     23  O   UNL     1      34.998 -25.066 -11.660  0.00  0.00    -0.480 OA
ATOM     24  H   UNL     1      34.423 -25.198 -12.389  0.00  0.00    +0.295 HD
ENDBRANCH  22  23
ENDBRANCH  20  22
ENDBRANCH  19  20
ENDBRANCH   2  19
TORSDOF 6
ENDMDL
MODEL 8
REMARK VINA RESULT:      -8.3      2.406      5.242
REMARK  Name = 449159
REMARK  6 active torsions:
REMARK  status: ('A' for Active; 'I' for Inactive)
REMARK    1  A    between atoms: C_2  and  C_19
REMARK    2  A    between atoms: C_13  and  O_15
REMARK    3  A    between atoms: C_14  and  O_17
REMARK    4  A    between atoms: C_19  and  C_20
REMARK    5  A    between atoms: C_20  and  C_22
REMARK    6  A    between atoms: C_22  and  O_23
REMARK                            x       y       z     vdW  Elec       q    Type
REMARK                         _______ _______ _______ _____ _____    ______ ____
ROOT
ATOM      1  O   UNL     1      33.346 -24.367 -13.287  0.00  0.00    -0.454 OA
ATOM      2  C   UNL     1      35.248 -23.419 -15.292  0.00  0.00    -0.019 C 
ATOM      3  C   UNL     1      35.586 -23.561 -13.827  0.00  0.00    +0.013 C 
ATOM      4  C   UNL     1      33.759 -23.495 -15.529  0.00  0.00    +0.031 C 
ATOM      5  C   UNL     1      34.631 -24.039 -12.923  0.00  0.00    +0.144 C 
ATOM      6  C   UNL     1      32.906 -23.976 -14.530  0.00  0.00    +0.148 C 
ATOM      7  C   UNL     1      36.864 -23.233 -13.350  0.00  0.00    +0.058 C 
ATOM      8  C   UNL     1      33.209 -23.100 -16.757  0.00  0.00    +0.006 C 
ATOM      9  C   UNL     1      34.952 -24.208 -11.573  0.00  0.00    +0.073 C 
ATOM     10  C   UNL     1      31.532 -24.084 -14.760  0.00  0.00    +0.074 C 
ATOM     11  C   UNL     1      37.182 -23.394 -12.001  0.00  0.00    +0.015 C 
ATOM     12  C   UNL     1      31.836 -23.199 -16.984  0.00  0.00    +0.037 C 
ATOM     13  C   UNL     1      36.226 -23.884 -11.113  0.00  0.00    +0.133 C 
ATOM     14  C   UNL     1      30.998 -23.694 -15.988  0.00  0.00    +0.137 C 
ENDROOT
BRANCH  13  15
ATOM     15  O   UNL     1      36.537 -24.044  -9.798  0.00  0.00    -0.506 OA
ATOM     16  H   UNL     1      37.433 -24.098  -9.531  0.00  0.00    +0.292 HD
ENDBRANCH  13  15
BRANCH  14  17
ATOM     17  O   UNL     1      29.659 -23.795 -16.211  0.00  0.00    -0.505 OA
ATOM     18  H   UNL     1      29.070 -23.889 -15.488  0.00  0.00    +0.292 HD
ENDBRANCH  14  17
BRANCH   2  19
ATOM     19  C   UNL     1      35.814 -22.105 -15.846  0.00  0.00    +0.038 C 
BRANCH  19  20
ATOM     20  C   UNL     1      36.832 -22.335 -16.950  0.00  0.00    +0.114 C 
BRANCH  20  22
ATOM     21  O   UNL     1      36.897 -20.536 -18.559  0.00  0.00    -0.250 OA
ATOM     22  C   UNL     1      36.451 -21.626 -18.226  0.00  0.00    +0.314 C 
BRANCH  22  23
ATOM     23  O   UNL     1      35.578 -22.335 -18.983  0.00  0.00    -0.480 OA
ATOM     24  H   UNL     1      35.806 -23.194 -19.280  0.00  0.00    +0.295 HD
ENDBRANCH  22  23
ENDBRANCH  20  22
ENDBRANCH  19  20
ENDBRANCH   2  19
TORSDOF 6
ENDMDL
MODEL 9
REMARK VINA RESULT:      -8.3      1.933      4.989
REMARK  Name = 449159
REMARK  6 active torsions:
REMARK  status: ('A' for Active; 'I' for Inactive)
REMARK    1  A    between atoms: C_2  and  C_19
REMARK    2  A    between atoms: C_13  and  O_15
REMARK    3  A    between atoms: C_14  and  O_17
REMARK    4  A    between atoms: C_19  and  C_20
REMARK    5  A    between atoms: C_20  and  C_22
REMARK    6  A    between atoms: C_22  and  O_23
REMARK                            x       y       z     vdW  Elec       q    Type
REMARK                         _______ _______ _______ _____ _____    ______ ____
ROOT
ATOM      1  O   UNL     1      36.751 -22.569 -15.420  0.00  0.00    -0.454 OA
ATOM      2  C   UNL     1      33.917 -23.207 -15.102  0.00  0.00    -0.019 C 
ATOM      3  C   UNL     1      34.971 -23.572 -14.084  0.00  0.00    +0.013 C 
ATOM      4  C   UNL     1      34.534 -22.793 -16.417  0.00  0.00    +0.031 C 
ATOM      5  C   UNL     1      36.309 -23.219 -14.291  0.00  0.00    +0.144 C 
ATOM      6  C   UNL     1      35.897 -22.484 -16.494  0.00  0.00    +0.148 C 
ATOM      7  C   UNL     1      34.626 -24.255 -12.908  0.00  0.00    +0.058 C 
ATOM      8  C   UNL     1      33.752 -22.697 -17.577  0.00  0.00    +0.006 C 
ATOM      9  C   UNL     1      37.280 -23.521 -13.333  0.00  0.00    +0.073 C 
ATOM     10  C   UNL     1      36.463 -22.063 -17.701  0.00  0.00    +0.074 C 
ATOM     11  C   UNL     1      35.597 -24.564 -11.955  0.00  0.00    +0.015 C 
ATOM     12  C   UNL     1      34.319 -22.285 -18.783  0.00  0.00    +0.037 C 
ATOM     13  C   UNL     1      36.923 -24.194 -12.167  0.00  0.00    +0.133 C 
ATOM     14  C   UNL     1      35.673 -21.966 -18.845  0.00  0.00    +0.137 C 
ENDROOT
BRANCH  13  15
ATOM     15  O   UNL     1      37.870 -24.493 -11.236  0.00  0.00    -0.506 OA
ATOM     16  H   UNL     1      37.627 -24.926 -10.442  0.00  0.00    +0.292 HD
ENDBRANCH  13  15
BRANCH  14  17
ATOM     17  O   UNL     1      36.224 -21.560 -20.021  0.00  0.00    -0.505 OA
ATOM     18  H   UNL     1      36.291 -20.645 -20.216  0.00  0.00    +0.292 HD
ENDBRANCH  14  17
BRANCH   2  19
ATOM     19  C   UNL     1      32.945 -24.376 -15.310  0.00  0.00    +0.038 C 
BRANCH  19  20
ATOM     20  C   UNL     1      31.505 -23.988 -15.021  0.00  0.00    +0.114 C 
BRANCH  20  22
ATOM     21  O   UNL     1      30.134 -25.970 -14.870  0.00  0.00    -0.250 OA
ATOM     22  C   UNL     1      30.759 -25.084 -14.301  0.00  0.00    +0.314 C 
BRANCH  22  23
ATOM     23  O   UNL     1      30.875 -25.004 -12.953  0.00  0.00    -0.480 OA
ATOM     24  H   UNL     1      30.540 -25.693 -12.412  0.00  0.00    +0.295 HD
ENDBRANCH  22  23
ENDBRANCH  20  22
ENDBRANCH  19  20
ENDBRANCH   2  19
TORSDOF 6
ENDMDL
