MODEL 1
REMARK VINA RESULT:      -8.5      0.000      0.000
REMARK  Name = 175805
REMARK  4 active torsions:
REMARK  status: ('A' for Active; 'I' for Inactive)
REMARK    1  A    between atoms: N_2  and  C_5
REMARK    2  A    between atoms: C_3  and  C_14
REMARK    3  A    between atoms: N_13  and  C_20
REMARK    4  A    between atoms: C_20  and  C_21
REMARK                            x       y       z     vdW  Elec       q    Type
REMARK                         _______ _______ _______ _____ _____    ______ ____
ROOT
ATOM      1  O   UNL     1      35.689 -25.666 -15.766  0.00  0.00    -0.277 OA
ATOM      2  N   UNL     1      35.362 -23.366 -15.390  0.00  0.00    -0.286 N 
ATOM      3  C   UNL     1      35.731 -24.663 -15.060  0.00  0.00    +0.207 C 
ATOM      4  H   UNL     1      35.470 -22.689 -14.685  0.00  0.00    +0.155 HD
ENDROOT
BRANCH   2   5
ATOM      5  C   UNL     1      34.847 -22.906 -16.625  0.00  0.00    +0.042 C 
ATOM      6  C   UNL     1      35.699 -22.291 -17.533  0.00  0.00    -0.009 C 
ATOM      7  C   UNL     1      33.500 -23.076 -16.909  0.00  0.00    -0.009 C 
ATOM      8  C   UNL     1      35.191 -21.837 -18.750  0.00  0.00    -0.003 C 
ATOM      9  C   UNL     1      32.992 -22.621 -18.126  0.00  0.00    -0.003 C 
ATOM     10  C   UNL     1      37.152 -22.099 -17.243  0.00  0.00    +0.032 C 
ATOM     11  C   UNL     1      32.570 -23.735 -15.943  0.00  0.00    +0.032 C 
ATOM     12  C   UNL     1      33.838 -22.002 -19.047  0.00  0.00    -0.001 C 
ENDBRANCH   2   5
BRANCH   3  14
ATOM     13  N   UNL     1      37.479 -23.959 -13.551  0.00  0.00    +0.394 N 
ATOM     14  C   UNL     1      36.231 -24.739 -13.648  0.00  0.00    +0.021 C 
ATOM     15  C   UNL     1      35.127 -24.173 -12.744  0.00  0.00    -0.012 C 
ATOM     16  C   UNL     1      37.947 -23.882 -12.155  0.00  0.00    -0.077 C 
ATOM     17  C   UNL     1      35.590 -24.055 -11.299  0.00  0.00    -0.004 C 
ATOM     18  C   UNL     1      36.893 -23.272 -11.231  0.00  0.00    -0.023 C 
ATOM     19  H   UNL     1      37.263 -23.024 -13.894  0.00  0.00    -0.079 HD
BRANCH  13  20
ATOM     20  C   UNL     1      38.549 -24.529 -14.379  0.00  0.00    -0.077 C 
BRANCH  20  21
ATOM     21  C   UNL     1      39.268 -25.644 -13.625  0.00  0.00    -0.023 C 
ATOM     22  C   UNL     1      40.559 -26.043 -14.323  0.00  0.00    -0.002 C 
ENDBRANCH  20  21
ENDBRANCH  13  20
ENDBRANCH   3  14
TORSDOF 4
ENDMDL
MODEL 2
REMARK VINA RESULT:      -8.4      9.856     13.616
REMARK  Name = 175805
REMARK  4 active torsions:
REMARK  status: ('A' for Active; 'I' for Inactive)
REMARK    1  A    between atoms: N_2  and  C_5
REMARK    2  A    between atoms: C_3  and  C_14
REMARK    3  A    between atoms: N_13  and  C_20
REMARK    4  A    between atoms: C_20  and  C_21
REMARK                            x       y       z     vdW  Elec       q    Type
REMARK                         _______ _______ _______ _____ _____    ______ ____
ROOT
ATOM      1  O   UNL     1      32.005 -14.781 -22.180  0.00  0.00    -0.277 OA
ATOM      2  N   UNL     1      34.116 -14.860 -23.219  0.00  0.00    -0.286 N 
ATOM      3  C   UNL     1      32.888 -14.302 -22.885  0.00  0.00    +0.207 C 
ATOM      4  H   UNL     1      34.697 -14.318 -23.800  0.00  0.00    +0.155 HD
ENDROOT
BRANCH   2   5
ATOM      5  C   UNL     1      34.627 -16.117 -22.820  0.00  0.00    +0.042 C 
ATOM      6  C   UNL     1      34.875 -16.357 -21.475  0.00  0.00    -0.009 C 
ATOM      7  C   UNL     1      34.872 -17.090 -23.778  0.00  0.00    -0.009 C 
ATOM      8  C   UNL     1      35.380 -17.596 -21.083  0.00  0.00    -0.003 C 
ATOM      9  C   UNL     1      35.377 -18.329 -23.385  0.00  0.00    -0.003 C 
ATOM     10  C   UNL     1      34.619 -15.321 -20.430  0.00  0.00    +0.032 C 
ATOM     11  C   UNL     1      34.609 -16.848 -25.229  0.00  0.00    +0.032 C 
ATOM     12  C   UNL     1      35.631 -18.582 -22.037  0.00  0.00    -0.001 C 
ENDBRANCH   2   5
BRANCH   3  14
ATOM     13  N   UNL     1      32.716 -11.936 -22.438  0.00  0.00    +0.394 N 
ATOM     14  C   UNL     1      32.721 -12.950 -23.510  0.00  0.00    +0.021 C 
ATOM     15  C   UNL     1      33.892 -12.751 -24.483  0.00  0.00    -0.012 C 
ATOM     16  C   UNL     1      32.693 -10.573 -23.000  0.00  0.00    -0.077 C 
ATOM     17  C   UNL     1      33.912 -11.342 -25.059  0.00  0.00    -0.004 C 
ATOM     18  C   UNL     1      33.876 -10.319 -23.934  0.00  0.00    -0.023 C 
ATOM     19  H   UNL     1      33.574 -12.074 -21.905  0.00  0.00    -0.079 HD
BRANCH  13  20
ATOM     20  C   UNL     1      31.569 -12.097 -21.535  0.00  0.00    -0.077 C 
BRANCH  20  21
ATOM     21  C   UNL     1      31.297 -10.796 -20.786  0.00  0.00    -0.023 C 
ATOM     22  C   UNL     1      31.500 -10.967 -19.288  0.00  0.00    -0.002 C 
ENDBRANCH  20  21
ENDBRANCH  13  20
ENDBRANCH   3  14
TORSDOF 4
ENDMDL
MODEL 3
REMARK VINA RESULT:      -8.4      9.858     13.595
REMARK  Name = 175805
REMARK  4 active torsions:
REMARK  status: ('A' for Active; 'I' for Inactive)
REMARK    1  A    between atoms: N_2  and  C_5
REMARK    2  A    between atoms: C_3  and  C_14
REMARK    3  A    between atoms: N_13  and  C_20
REMARK    4  A    between atoms: C_20  and  C_21
REMARK                            x       y       z     vdW  Elec       q    Type
REMARK                         _______ _______ _______ _____ _____    ______ ____
ROOT
ATOM      1  O   UNL     1      31.995 -14.778 -22.174  0.00  0.00    -0.277 OA
ATOM      2  N   UNL     1      34.109 -14.849 -23.206  0.00  0.00    -0.286 N 
ATOM      3  C   UNL     1      32.880 -14.295 -22.874  0.00  0.00    +0.207 C 
ATOM      4  H   UNL     1      34.691 -14.304 -23.782  0.00  0.00    +0.155 HD
ENDROOT
BRANCH   2   5
ATOM      5  C   UNL     1      34.620 -16.108 -22.811  0.00  0.00    +0.042 C 
ATOM      6  C   UNL     1      34.858 -17.080 -23.773  0.00  0.00    -0.009 C 
ATOM      7  C   UNL     1      34.875 -16.351 -21.469  0.00  0.00    -0.009 C 
ATOM      8  C   UNL     1      35.361 -18.321 -23.383  0.00  0.00    -0.003 C 
ATOM      9  C   UNL     1      35.378 -17.592 -21.080  0.00  0.00    -0.003 C 
ATOM     10  C   UNL     1      34.588 -16.836 -25.222  0.00  0.00    +0.032 C 
ATOM     11  C   UNL     1      34.625 -15.315 -20.421  0.00  0.00    +0.032 C 
ATOM     12  C   UNL     1      35.621 -18.577 -22.037  0.00  0.00    -0.001 C 
ENDBRANCH   2   5
BRANCH   3  14
ATOM     13  N   UNL     1      32.710 -11.930 -22.416  0.00  0.00    +0.394 N 
ATOM     14  C   UNL     1      32.714 -12.939 -23.493  0.00  0.00    +0.021 C 
ATOM     15  C   UNL     1      33.884 -12.738 -24.465  0.00  0.00    -0.012 C 
ATOM     16  C   UNL     1      32.688 -10.565 -22.972  0.00  0.00    -0.077 C 
ATOM     17  C   UNL     1      33.905 -11.326 -25.035  0.00  0.00    -0.004 C 
ATOM     18  C   UNL     1      33.870 -10.308 -23.905  0.00  0.00    -0.023 C 
ATOM     19  H   UNL     1      33.568 -12.072 -21.884  0.00  0.00    -0.079 HD
BRANCH  13  20
ATOM     20  C   UNL     1      31.564 -12.095 -21.513  0.00  0.00    -0.077 C 
BRANCH  20  21
ATOM     21  C   UNL     1      31.283 -10.791 -20.769  0.00  0.00    -0.023 C 
ATOM     22  C   UNL     1      31.492 -10.953 -19.272  0.00  0.00    -0.002 C 
ENDBRANCH  20  21
ENDBRANCH  13  20
ENDBRANCH   3  14
TORSDOF 4
ENDMDL
MODEL 4
REMARK VINA RESULT:      -8.4      0.069      1.926
REMARK  Name = 175805
REMARK  4 active torsions:
REMARK  status: ('A' for Active; 'I' for Inactive)
REMARK    1  A    between atoms: N_2  and  C_5
REMARK    2  A    between atoms: C_3  and  C_14
REMARK    3  A    between atoms: N_13  and  C_20
REMARK    4  A    between atoms: C_20  and  C_21
REMARK                            x       y       z     vdW  Elec       q    Type
REMARK                         _______ _______ _______ _____ _____    ______ ____
ROOT
ATOM      1  O   UNL     1      35.765 -25.654 -15.820  0.00  0.00    -0.277 OA
ATOM      2  N   UNL     1      35.362 -23.374 -15.402  0.00  0.00    -0.286 N 
ATOM      3  C   UNL     1      35.769 -24.666 -15.094  0.00  0.00    +0.207 C 
ATOM      4  H   UNL     1      35.443 -22.708 -14.682  0.00  0.00    +0.155 HD
ENDROOT
BRANCH   2   5
ATOM      5  C   UNL     1      34.845 -22.905 -16.633  0.00  0.00    +0.042 C 
ATOM      6  C   UNL     1      33.495 -23.068 -16.912  0.00  0.00    -0.009 C 
ATOM      7  C   UNL     1      35.695 -22.291 -17.541  0.00  0.00    -0.009 C 
ATOM      8  C   UNL     1      32.986 -22.607 -18.126  0.00  0.00    -0.003 C 
ATOM      9  C   UNL     1      35.185 -21.831 -18.755  0.00  0.00    -0.003 C 
ATOM     10  C   UNL     1      32.565 -23.728 -15.946  0.00  0.00    +0.032 C 
ATOM     11  C   UNL     1      37.150 -22.108 -17.256  0.00  0.00    +0.032 C 
ATOM     12  C   UNL     1      33.830 -21.988 -19.047  0.00  0.00    -0.001 C 
ENDBRANCH   2   5
BRANCH   3  14
ATOM     13  N   UNL     1      37.474 -23.930 -13.552  0.00  0.00    +0.394 N 
ATOM     14  C   UNL     1      36.257 -24.754 -13.679  0.00  0.00    +0.021 C 
ATOM     15  C   UNL     1      35.124 -24.250 -12.774  0.00  0.00    -0.012 C 
ATOM     16  C   UNL     1      37.925 -23.866 -12.150  0.00  0.00    -0.077 C 
ATOM     17  C   UNL     1      35.569 -24.147 -11.322  0.00  0.00    -0.004 C 
ATOM     18  C   UNL     1      36.840 -23.317 -11.224  0.00  0.00    -0.023 C 
ATOM     19  H   UNL     1      37.226 -22.996 -13.876  0.00  0.00    -0.079 HD
BRANCH  13  20
ATOM     20  C   UNL     1      38.573 -24.440 -14.382  0.00  0.00    -0.077 C 
BRANCH  20  21
ATOM     21  C   UNL     1      39.141 -25.723 -13.780  0.00  0.00    -0.023 C 
ATOM     22  C   UNL     1      40.543 -26.003 -14.297  0.00  0.00    -0.002 C 
ENDBRANCH  20  21
ENDBRANCH  13  20
ENDBRANCH   3  14
TORSDOF 4
ENDMDL
MODEL 5
REMARK VINA RESULT:      -8.3      6.912     10.794
REMARK  Name = 175805
REMARK  4 active torsions:
REMARK  status: ('A' for Active; 'I' for Inactive)
REMARK    1  A    between atoms: N_2  and  C_5
REMARK    2  A    between atoms: C_3  and  C_14
REMARK    3  A    between atoms: N_13  and  C_20
REMARK    4  A    between atoms: C_20  and  C_21
REMARK                            x       y       z     vdW  Elec       q    Type
REMARK                         _______ _______ _______ _____ _____    ______ ____
ROOT
ATOM      1  O   UNL     1      35.175 -16.314 -19.965  0.00  0.00    -0.277 OA
ATOM      2  N   UNL     1      34.369 -17.781 -21.619  0.00  0.00    -0.286 N 
ATOM      3  C   UNL     1      34.709 -16.549 -21.076  0.00  0.00    +0.207 C 
ATOM      4  H   UNL     1      34.009 -17.769 -22.535  0.00  0.00    +0.155 HD
ENDROOT
BRANCH   2   5
ATOM      5  C   UNL     1      34.481 -19.052 -21.007  0.00  0.00    +0.042 C 
ATOM      6  C   UNL     1      33.339 -19.688 -20.543  0.00  0.00    -0.009 C 
ATOM      7  C   UNL     1      35.731 -19.642 -20.882  0.00  0.00    -0.009 C 
ATOM      8  C   UNL     1      33.450 -20.941 -19.939  0.00  0.00    -0.003 C 
ATOM      9  C   UNL     1      35.841 -20.894 -20.278  0.00  0.00    -0.003 C 
ATOM     10  C   UNL     1      31.985 -19.068 -20.669  0.00  0.00    +0.032 C 
ATOM     11  C   UNL     1      36.971 -18.970 -21.377  0.00  0.00    +0.032 C 
ATOM     12  C   UNL     1      34.700 -21.544 -19.806  0.00  0.00    -0.001 C 
ENDBRANCH   2   5
BRANCH   3  14
ATOM     13  N   UNL     1      34.058 -16.031 -23.342  0.00  0.00    +0.394 N 
ATOM     14  C   UNL     1      34.440 -15.439 -22.046  0.00  0.00    +0.021 C 
ATOM     15  C   UNL     1      33.314 -14.580 -21.453  0.00  0.00    -0.012 C 
ATOM     16  C   UNL     1      33.647 -14.988 -24.300  0.00  0.00    -0.077 C 
ATOM     17  C   UNL     1      32.848 -13.510 -22.430  0.00  0.00    -0.004 C 
ATOM     18  C   UNL     1      32.490 -14.145 -23.766  0.00  0.00    -0.023 C 
ATOM     19  H   UNL     1      33.274 -16.655 -23.155  0.00  0.00    -0.079 HD
BRANCH  13  20
ATOM     20  C   UNL     1      35.152 -16.813 -23.932  0.00  0.00    -0.077 C 
BRANCH  20  21
ATOM     21  C   UNL     1      34.637 -17.646 -25.103  0.00  0.00    -0.023 C 
ATOM     22  C   UNL     1      34.620 -19.128 -24.763  0.00  0.00    -0.002 C 
ENDBRANCH  20  21
ENDBRANCH  13  20
ENDBRANCH   3  14
TORSDOF 4
ENDMDL
MODEL 6
REMARK VINA RESULT:      -8.2      9.853     13.044
REMARK  Name = 175805
REMARK  4 active torsions:
REMARK  status: ('A' for Active; 'I' for Inactive)
REMARK    1  A    between atoms: N_2  and  C_5
REMARK    2  A    between atoms: C_3  and  C_14
REMARK    3  A    between atoms: N_13  and  C_20
REMARK    4  A    between atoms: C_20  and  C_21
REMARK                            x       y       z     vdW  Elec       q    Type
REMARK                         _______ _______ _______ _____ _____    ______ ____
ROOT
ATOM      1  O   UNL     1      31.986 -15.618 -21.537  0.00  0.00    -0.277 OA
ATOM      2  N   UNL     1      33.987 -15.124 -22.672  0.00  0.00    -0.286 N 
ATOM      3  C   UNL     1      32.853 -14.840 -21.922  0.00  0.00    +0.207 C 
ATOM      4  H   UNL     1      34.572 -14.362 -22.883  0.00  0.00    +0.155 HD
ENDROOT
BRANCH   2   5
ATOM      5  C   UNL     1      34.397 -16.384 -23.169  0.00  0.00    +0.042 C 
ATOM      6  C   UNL     1      34.242 -16.668 -24.519  0.00  0.00    -0.009 C 
ATOM      7  C   UNL     1      34.947 -17.314 -22.299  0.00  0.00    -0.009 C 
ATOM      8  C   UNL     1      34.646 -17.910 -25.007  0.00  0.00    -0.003 C 
ATOM      9  C   UNL     1      35.350 -18.556 -22.789  0.00  0.00    -0.003 C 
ATOM     10  C   UNL     1      33.652 -15.679 -25.469  0.00  0.00    +0.032 C 
ATOM     11  C   UNL     1      35.120 -17.024 -20.843  0.00  0.00    +0.032 C 
ATOM     12  C   UNL     1      35.200 -18.855 -24.143  0.00  0.00    -0.001 C 
ENDBRANCH   2   5
BRANCH   3  14
ATOM     13  N   UNL     1      31.963 -12.708 -22.621  0.00  0.00    +0.394 N 
ATOM     14  C   UNL     1      32.777 -13.380 -21.590  0.00  0.00    +0.021 C 
ATOM     15  C   UNL     1      32.148 -13.263 -20.195  0.00  0.00    -0.012 C 
ATOM     16  C   UNL     1      31.737 -11.293 -22.276  0.00  0.00    -0.077 C 
ATOM     17  C   UNL     1      31.876 -11.813 -19.821  0.00  0.00    -0.004 C 
ATOM     18  C   UNL     1      31.061 -11.137 -20.914  0.00  0.00    -0.023 C 
ATOM     19  H   UNL     1      31.072 -13.201 -22.653  0.00  0.00    -0.079 HD
BRANCH  13  20
ATOM     20  C   UNL     1      32.589 -12.779 -23.948  0.00  0.00    -0.077 C 
BRANCH  20  21
ATOM     21  C   UNL     1      33.714 -11.753 -24.060  0.00  0.00    -0.023 C 
ATOM     22  C   UNL     1      34.075 -11.485 -25.513  0.00  0.00    -0.002 C 
ENDBRANCH  20  21
ENDBRANCH  13  20
ENDBRANCH   3  14
TORSDOF 4
ENDMDL
MODEL 7
REMARK VINA RESULT:      -8.2      9.859     13.064
REMARK  Name = 175805
REMARK  4 active torsions:
REMARK  status: ('A' for Active; 'I' for Inactive)
REMARK    1  A    between atoms: N_2  and  C_5
REMARK    2  A    between atoms: C_3  and  C_14
REMARK    3  A    between atoms: N_13  and  C_20
REMARK    4  A    between atoms: C_20  and  C_21
REMARK                            x       y       z     vdW  Elec       q    Type
REMARK                         _______ _______ _______ _____ _____    ______ ____
ROOT
ATOM      1  O   UNL     1      31.989 -15.614 -21.546  0.00  0.00    -0.277 OA
ATOM      2  N   UNL     1      33.992 -15.124 -22.678  0.00  0.00    -0.286 N 
ATOM      3  C   UNL     1      32.858 -14.838 -21.929  0.00  0.00    +0.207 C 
ATOM      4  H   UNL     1      34.579 -14.362 -22.888  0.00  0.00    +0.155 HD
ENDROOT
BRANCH   2   5
ATOM      5  C   UNL     1      34.402 -16.384 -23.174  0.00  0.00    +0.042 C 
ATOM      6  C   UNL     1      34.957 -17.312 -22.304  0.00  0.00    -0.009 C 
ATOM      7  C   UNL     1      34.242 -16.671 -24.522  0.00  0.00    -0.009 C 
ATOM      8  C   UNL     1      35.361 -18.553 -22.794  0.00  0.00    -0.003 C 
ATOM      9  C   UNL     1      34.647 -17.913 -25.011  0.00  0.00    -0.003 C 
ATOM     10  C   UNL     1      35.137 -17.018 -20.850  0.00  0.00    +0.032 C 
ATOM     11  C   UNL     1      33.646 -15.683 -25.472  0.00  0.00    +0.032 C 
ATOM     12  C   UNL     1      35.206 -18.855 -24.147  0.00  0.00    -0.001 C 
ENDBRANCH   2   5
BRANCH   3  14
ATOM     13  N   UNL     1      31.997 -12.700 -22.646  0.00  0.00    +0.394 N 
ATOM     14  C   UNL     1      32.783 -13.378 -21.598  0.00  0.00    +0.021 C 
ATOM     15  C   UNL     1      32.123 -13.258 -20.217  0.00  0.00    -0.012 C 
ATOM     16  C   UNL     1      31.771 -11.284 -22.305  0.00  0.00    -0.077 C 
ATOM     17  C   UNL     1      31.851 -11.807 -19.848  0.00  0.00    -0.004 C 
ATOM     18  C   UNL     1      31.066 -11.125 -20.959  0.00  0.00    -0.023 C 
ATOM     19  H   UNL     1      31.104 -13.188 -22.699  0.00  0.00    -0.079 HD
BRANCH  13  20
ATOM     20  C   UNL     1      32.652 -12.774 -23.958  0.00  0.00    -0.077 C 
BRANCH  20  21
ATOM     21  C   UNL     1      33.725 -11.694 -24.078  0.00  0.00    -0.023 C 
ATOM     22  C   UNL     1      34.106 -11.451 -25.530  0.00  0.00    -0.002 C 
ENDBRANCH  20  21
ENDBRANCH  13  20
ENDBRANCH   3  14
TORSDOF 4
ENDMDL
MODEL 8
REMARK VINA RESULT:      -8.0      6.095     10.241
REMARK  Name = 175805
REMARK  4 active torsions:
REMARK  status: ('A' for Active; 'I' for Inactive)
REMARK    1  A    between atoms: N_2  and  C_5
REMARK    2  A    between atoms: C_3  and  C_14
REMARK    3  A    between atoms: N_13  and  C_20
REMARK    4  A    between atoms: C_20  and  C_21
REMARK                            x       y       z     vdW  Elec       q    Type
REMARK                         _______ _______ _______ _____ _____    ______ ____
ROOT
ATOM      1  O   UNL     1      35.215 -17.295 -20.535  0.00  0.00    -0.277 OA
ATOM      2  N   UNL     1      34.695 -19.404 -21.442  0.00  0.00    -0.286 N 
ATOM      3  C   UNL     1      34.784 -18.018 -21.428  0.00  0.00    +0.207 C 
ATOM      4  H   UNL     1      34.320 -19.808 -22.257  0.00  0.00    +0.155 HD
ENDROOT
BRANCH   2   5
ATOM      5  C   UNL     1      35.082 -20.301 -20.418  0.00  0.00    +0.042 C 
ATOM      6  C   UNL     1      36.426 -20.436 -20.101  0.00  0.00    -0.009 C 
ATOM      7  C   UNL     1      34.111 -21.032 -19.749  0.00  0.00    -0.009 C 
ATOM      8  C   UNL     1      36.806 -21.321 -19.093  0.00  0.00    -0.003 C 
ATOM      9  C   UNL     1      34.492 -21.917 -18.741  0.00  0.00    -0.003 C 
ATOM     10  C   UNL     1      37.485 -19.658 -20.813  0.00  0.00    +0.032 C 
ATOM     11  C   UNL     1      32.659 -20.898 -20.078  0.00  0.00    +0.032 C 
ATOM     12  C   UNL     1      35.840 -22.062 -18.412  0.00  0.00    -0.001 C 
ENDBRANCH   2   5
BRANCH   3  14
ATOM     13  N   UNL     1      34.893 -16.109 -22.902  0.00  0.00    +0.394 N 
ATOM     14  C   UNL     1      34.269 -17.431 -22.708  0.00  0.00    +0.021 C 
ATOM     15  C   UNL     1      34.632 -18.409 -23.834  0.00  0.00    -0.012 C 
ATOM     16  C   UNL     1      34.531 -15.540 -24.213  0.00  0.00    -0.077 C 
ATOM     17  C   UNL     1      34.295 -17.838 -25.205  0.00  0.00    -0.004 C 
ATOM     18  C   UNL     1      34.926 -16.463 -25.365  0.00  0.00    -0.023 C 
ATOM     19  H   UNL     1      35.901 -16.255 -22.857  0.00  0.00    -0.079 HD
BRANCH  13  20
ATOM     20  C   UNL     1      34.507 -15.160 -21.850  0.00  0.00    -0.077 C 
BRANCH  20  21
ATOM     21  C   UNL     1      32.996 -14.948 -21.853  0.00  0.00    -0.023 C 
ATOM     22  C   UNL     1      32.413 -15.091 -20.456  0.00  0.00    -0.002 C 
ENDBRANCH  20  21
ENDBRANCH  13  20
ENDBRANCH   3  14
TORSDOF 4
ENDMDL
MODEL 9
REMARK VINA RESULT:      -8.0     10.850     13.929
REMARK  Name = 175805
REMARK  4 active torsions:
REMARK  status: ('A' for Active; 'I' for Inactive)
REMARK    1  A    between atoms: N_2  and  C_5
REMARK    2  A    between atoms: C_3  and  C_14
REMARK    3  A    between atoms: N_13  and  C_20
REMARK    4  A    between atoms: C_20  and  C_21
REMARK                            x       y       z     vdW  Elec       q    Type
REMARK                         _______ _______ _______ _____ _____    ______ ____
ROOT
ATOM      1  O   UNL     1      32.303 -14.055 -24.694  0.00  0.00    -0.277 OA
ATOM      2  N   UNL     1      33.960 -12.804 -23.587  0.00  0.00    -0.286 N 
ATOM      3  C   UNL     1      33.407 -13.935 -24.173  0.00  0.00    +0.207 C 
ATOM      4  H   UNL     1      34.868 -12.903 -23.221  0.00  0.00    +0.155 HD
ENDROOT
BRANCH   2   5
ATOM      5  C   UNL     1      33.368 -11.525 -23.456  0.00  0.00    +0.042 C 
ATOM      6  C   UNL     1      32.346 -11.338 -22.536  0.00  0.00    -0.009 C 
ATOM      7  C   UNL     1      33.818 -10.480 -24.250  0.00  0.00    -0.009 C 
ATOM      8  C   UNL     1      31.763 -10.078 -22.408  0.00  0.00    -0.003 C 
ATOM      9  C   UNL     1      33.234  -9.221 -24.121  0.00  0.00    -0.003 C 
ATOM     10  C   UNL     1      31.849 -12.452 -21.674  0.00  0.00    +0.032 C 
ATOM     11  C   UNL     1      34.918 -10.665 -25.245  0.00  0.00    +0.032 C 
ATOM     12  C   UNL     1      32.206  -9.019 -23.200  0.00  0.00    -0.001 C 
ENDBRANCH   2   5
BRANCH   3  14
ATOM     13  N   UNL     1      34.197 -15.762 -22.807  0.00  0.00    +0.394 N 
ATOM     14  C   UNL     1      34.356 -15.094 -24.112  0.00  0.00    +0.021 C 
ATOM     15  C   UNL     1      34.011 -16.027 -25.281  0.00  0.00    -0.012 C 
ATOM     16  C   UNL     1      35.006 -16.993 -22.740  0.00  0.00    -0.077 C 
ATOM     17  C   UNL     1      34.812 -17.320 -25.224  0.00  0.00    -0.004 C 
ATOM     18  C   UNL     1      34.652 -17.971 -23.859  0.00  0.00    -0.023 C 
ATOM     19  H   UNL     1      33.208 -15.996 -22.720  0.00  0.00    -0.079 HD
BRANCH  13  20
ATOM     20  C   UNL     1      34.572 -14.885 -21.691  0.00  0.00    -0.077 C 
BRANCH  20  21
ATOM     21  C   UNL     1      33.869 -15.326 -20.409  0.00  0.00    -0.023 C 
ATOM     22  C   UNL     1      32.432 -15.744 -20.682  0.00  0.00    -0.002 C 
ENDBRANCH  20  21
ENDBRANCH  13  20
ENDBRANCH   3  14
TORSDOF 4
ENDMDL
