MODEL 1
REMARK VINA RESULT:      -5.3      0.000      0.000
REMARK  Name = 10517
REMARK  9 active torsions:
REMARK  status: ('A' for Active; 'I' for Inactive)
REMARK    1  A    between atoms: C_1  and  C_2
REMARK    2  A    between atoms: C_1  and  C_8
REMARK    3  A    between atoms: C_1  and  C_14
REMARK    4  A    between atoms: C_1  and  C_21
REMARK    5  A    between atoms: C_14  and  C_15
REMARK    6  A    between atoms: C_15  and  N_17
REMARK    7  A    between atoms: C_21  and  C_22
REMARK    8  A    between atoms: C_21  and  O_24
REMARK    9  A    between atoms: O_24  and  C_26
REMARK                            x       y       z     vdW  Elec       q    Type
REMARK                         _______ _______ _______ _____ _____    ______ ____
ROOT
ATOM      1  C   UNL     1      34.849 -24.148 -14.231  0.00  0.00    +0.073 C 
ENDROOT
BRANCH   1   2
ATOM      2  C   UNL     1      35.583 -23.857 -12.883  0.00  0.00    -0.016 C 
ATOM      3  C   UNL     1      35.176 -24.552 -11.786  0.00  0.00    -0.004 C 
ATOM      4  C   UNL     1      36.578 -22.928 -12.898  0.00  0.00    -0.004 C 
ATOM      5  C   UNL     1      35.831 -24.292 -10.582  0.00  0.00    -0.000 C 
ATOM      6  C   UNL     1      37.233 -22.669 -11.694  0.00  0.00    -0.000 C 
ATOM      7  C   UNL     1      36.859 -23.351 -10.536  0.00  0.00    -0.000 C 
ENDBRANCH   1   2
BRANCH   1   8
ATOM      8  C   UNL     1      33.299 -24.180 -14.073  0.00  0.00    -0.016 C 
ATOM      9  C   UNL     1      32.692 -23.062 -13.587  0.00  0.00    -0.004 C 
ATOM     10  C   UNL     1      32.652 -25.324 -14.432  0.00  0.00    -0.004 C 
ATOM     11  C   UNL     1      31.304 -23.090 -13.446  0.00  0.00    -0.000 C 
ATOM     12  C   UNL     1      31.265 -25.353 -14.290  0.00  0.00    -0.000 C 
ATOM     13  C   UNL     1      30.591 -24.236 -13.797  0.00  0.00    -0.000 C 
ENDBRANCH   1   8
BRANCH   1  14
ATOM     14  C   UNL     1      35.459 -25.500 -14.798  0.00  0.00    -0.009 C 
BRANCH  14  15
ATOM     15  C   UNL     1      36.630 -26.166 -14.030  0.00  0.00    -0.058 C 
ATOM     16  C   UNL     1      36.740 -27.647 -14.410  0.00  0.00    -0.023 C 
BRANCH  15  17
ATOM     17  N   UNL     1      37.908 -25.518 -14.334  0.00  0.00    +0.385 N 
ATOM     18  C   UNL     1      38.548 -26.167 -15.477  0.00  0.00    -0.101 C 
ATOM     19  C   UNL     1      38.786 -25.553 -13.166  0.00  0.00    -0.101 C 
ATOM     20  H   UNL     1      37.729 -24.544 -14.574  0.00  0.00    -0.080 HD
ENDBRANCH  15  17
ENDBRANCH  14  15
ENDBRANCH   1  14
BRANCH   1  21
ATOM     21  C   UNL     1      35.183 -23.027 -15.324  0.00  0.00    +0.176 C 
BRANCH  21  22
ATOM     22  C   UNL     1      33.997 -22.519 -16.174  0.00  0.00    +0.044 C 
ATOM     23  C   UNL     1      33.797 -23.357 -17.434  0.00  0.00    +0.004 C 
ENDBRANCH  21  22
BRANCH  21  24
ATOM     24  O   UNL     1      36.219 -23.476 -16.205  0.00  0.00    -0.452 OA
BRANCH  24  26
ATOM     25  O   UNL     1      38.380 -22.831 -15.704  0.00  0.00    -0.250 OA
ATOM     26  C   UNL     1      37.314 -22.667 -16.282  0.00  0.00    +0.317 C 
ATOM     27  C   UNL     1      37.024 -21.517 -17.197  0.00  0.00    +0.121 C 
ENDBRANCH  24  26
ENDBRANCH  21  24
ENDBRANCH   1  21
TORSDOF 9
ENDMDL
MODEL 2
REMARK VINA RESULT:      -5.1      1.776      4.983
REMARK  Name = 10517
REMARK  9 active torsions:
REMARK  status: ('A' for Active; 'I' for Inactive)
REMARK    1  A    between atoms: C_1  and  C_2
REMARK    2  A    between atoms: C_1  and  C_8
REMARK    3  A    between atoms: C_1  and  C_14
REMARK    4  A    between atoms: C_1  and  C_21
REMARK    5  A    between atoms: C_14  and  C_15
REMARK    6  A    between atoms: C_15  and  N_17
REMARK    7  A    between atoms: C_21  and  C_22
REMARK    8  A    between atoms: C_21  and  O_24
REMARK    9  A    between atoms: O_24  and  C_26
REMARK                            x       y       z     vdW  Elec       q    Type
REMARK                         _______ _______ _______ _____ _____    ______ ____
ROOT
ATOM      1  C   UNL     1      35.755 -23.620 -15.149  0.00  0.00    +0.073 C 
ENDROOT
BRANCH   1   2
ATOM      2  C   UNL     1      36.669 -24.887 -15.129  0.00  0.00    -0.016 C 
ATOM      3  C   UNL     1      38.003 -24.694 -14.940  0.00  0.00    -0.004 C 
ATOM      4  C   UNL     1      36.068 -26.096 -15.301  0.00  0.00    -0.004 C 
ATOM      5  C   UNL     1      38.818 -25.825 -14.922  0.00  0.00    -0.000 C 
ATOM      6  C   UNL     1      36.884 -27.227 -15.282  0.00  0.00    -0.000 C 
ATOM      7  C   UNL     1      38.260 -27.092 -15.093  0.00  0.00    -0.000 C 
ENDBRANCH   1   2
BRANCH   1   8
ATOM      8  C   UNL     1      36.026 -22.708 -16.384  0.00  0.00    -0.016 C 
ATOM      9  C   UNL     1      35.231 -22.875 -17.477  0.00  0.00    -0.004 C 
ATOM     10  C   UNL     1      37.041 -21.804 -16.289  0.00  0.00    -0.004 C 
ATOM     11  C   UNL     1      35.474 -22.058 -18.582  0.00  0.00    -0.000 C 
ATOM     12  C   UNL     1      37.284 -20.988 -17.393  0.00  0.00    -0.000 C 
ATOM     13  C   UNL     1      36.500 -21.115 -18.540  0.00  0.00    -0.000 C 
ENDBRANCH   1   8
BRANCH   1  14
ATOM     14  C   UNL     1      35.964 -22.885 -13.758  0.00  0.00    -0.009 C 
BRANCH  14  15
ATOM     15  C   UNL     1      36.807 -23.592 -12.664  0.00  0.00    -0.058 C 
ATOM     16  C   UNL     1      37.350 -22.564 -11.665  0.00  0.00    -0.023 C 
BRANCH  15  17
ATOM     17  N   UNL     1      36.011 -24.574 -11.925  0.00  0.00    +0.385 N 
ATOM     18  C   UNL     1      35.631 -24.041 -10.618  0.00  0.00    -0.101 C 
ATOM     19  C   UNL     1      36.757 -25.822 -11.772  0.00  0.00    -0.101 C 
ATOM     20  H   UNL     1      35.162 -24.769 -12.454  0.00  0.00    -0.080 HD
ENDBRANCH  15  17
ENDBRANCH  14  15
ENDBRANCH   1  14
BRANCH   1  21
ATOM     21  C   UNL     1      34.207 -24.026 -15.200  0.00  0.00    +0.176 C 
BRANCH  21  22
ATOM     22  C   UNL     1      33.205 -22.884 -15.485  0.00  0.00    +0.044 C 
ATOM     23  C   UNL     1      32.260 -23.226 -16.633  0.00  0.00    +0.004 C 
ENDBRANCH  21  22
BRANCH  21  24
ATOM     24  O   UNL     1      33.820 -24.684 -13.989  0.00  0.00    -0.452 OA
BRANCH  24  26
ATOM     25  O   UNL     1      32.468 -23.269 -12.761  0.00  0.00    -0.250 OA
ATOM     26  C   UNL     1      32.640 -24.267 -13.448  0.00  0.00    +0.317 C 
ATOM     27  C   UNL     1      31.552 -25.227 -13.819  0.00  0.00    +0.121 C 
ENDBRANCH  24  26
ENDBRANCH  21  24
ENDBRANCH   1  21
TORSDOF 9
ENDMDL
MODEL 3
REMARK VINA RESULT:      -5.0      1.874      4.684
REMARK  Name = 10517
REMARK  9 active torsions:
REMARK  status: ('A' for Active; 'I' for Inactive)
REMARK    1  A    between atoms: C_1  and  C_2
REMARK    2  A    between atoms: C_1  and  C_8
REMARK    3  A    between atoms: C_1  and  C_14
REMARK    4  A    between atoms: C_1  and  C_21
REMARK    5  A    between atoms: C_14  and  C_15
REMARK    6  A    between atoms: C_15  and  N_17
REMARK    7  A    between atoms: C_21  and  C_22
REMARK    8  A    between atoms: C_21  and  O_24
REMARK    9  A    between atoms: O_24  and  C_26
REMARK                            x       y       z     vdW  Elec       q    Type
REMARK                         _______ _______ _______ _____ _____    ______ ____
ROOT
ATOM      1  C   UNL     1      35.949 -24.409 -14.638  0.00  0.00    +0.073 C 
ENDROOT
BRANCH   1   2
ATOM      2  C   UNL     1      36.168 -23.985 -13.150  0.00  0.00    -0.016 C 
ATOM      3  C   UNL     1      35.456 -24.647 -12.199  0.00  0.00    -0.004 C 
ATOM      4  C   UNL     1      37.056 -22.982 -12.909  0.00  0.00    -0.004 C 
ATOM      5  C   UNL     1      35.652 -24.268 -10.871  0.00  0.00    -0.000 C 
ATOM      6  C   UNL     1      37.252 -22.603 -11.580  0.00  0.00    -0.000 C 
ATOM      7  C   UNL     1      36.549 -23.246 -10.561  0.00  0.00    -0.000 C 
ENDBRANCH   1   2
BRANCH   1   8
ATOM      8  C   UNL     1      36.342 -23.284 -15.643  0.00  0.00    -0.016 C 
ATOM      9  C   UNL     1      35.470 -23.009 -16.653  0.00  0.00    -0.004 C 
ATOM     10  C   UNL     1      37.531 -22.649 -15.445  0.00  0.00    -0.004 C 
ATOM     11  C   UNL     1      35.821 -22.002 -17.552  0.00  0.00    -0.000 C 
ATOM     12  C   UNL     1      37.882 -21.643 -16.344  0.00  0.00    -0.000 C 
ATOM     13  C   UNL     1      37.028 -21.319 -17.398  0.00  0.00    -0.000 C 
ENDBRANCH   1   8
BRANCH   1  14
ATOM     14  C   UNL     1      34.436 -24.872 -14.761  0.00  0.00    -0.009 C 
BRANCH  14  15
ATOM     15  C   UNL     1      33.321 -23.797 -14.675  0.00  0.00    -0.058 C 
ATOM     16  C   UNL     1      32.544 -23.731 -15.994  0.00  0.00    -0.023 C 
BRANCH  15  17
ATOM     17  N   UNL     1      32.373 -24.093 -13.599  0.00  0.00    +0.385 N 
ATOM     18  C   UNL     1      31.549 -25.249 -13.949  0.00  0.00    -0.101 C 
ATOM     19  C   UNL     1      31.531 -22.929 -13.327  0.00  0.00    -0.101 C 
ATOM     20  H   UNL     1      32.899 -24.315 -12.754  0.00  0.00    -0.080 HD
ENDBRANCH  15  17
ENDBRANCH  14  15
ENDBRANCH   1  14
BRANCH   1  21
ATOM     21  C   UNL     1      36.830 -25.694 -15.008  0.00  0.00    +0.176 C 
BRANCH  21  22
ATOM     22  C   UNL     1      36.054 -26.968 -15.409  0.00  0.00    +0.044 C 
ATOM     23  C   UNL     1      36.652 -27.637 -16.643  0.00  0.00    +0.004 C 
ENDBRANCH  21  22
BRANCH  21  24
ATOM     24  O   UNL     1      37.720 -26.019 -13.934  0.00  0.00    -0.452 OA
BRANCH  24  26
ATOM     25  O   UNL     1      39.599 -26.824 -15.010  0.00  0.00    -0.250 OA
ATOM     26  C   UNL     1      39.045 -26.035 -14.257  0.00  0.00    +0.317 C 
ATOM     27  C   UNL     1      39.748 -24.923 -13.541  0.00  0.00    +0.121 C 
ENDBRANCH  24  26
ENDBRANCH  21  24
ENDBRANCH   1  21
TORSDOF 9
ENDMDL
MODEL 4
REMARK VINA RESULT:      -4.9      1.662      4.562
REMARK  Name = 10517
REMARK  9 active torsions:
REMARK  status: ('A' for Active; 'I' for Inactive)
REMARK    1  A    between atoms: C_1  and  C_2
REMARK    2  A    between atoms: C_1  and  C_8
REMARK    3  A    between atoms: C_1  and  C_14
REMARK    4  A    between atoms: C_1  and  C_21
REMARK    5  A    between atoms: C_14  and  C_15
REMARK    6  A    between atoms: C_15  and  N_17
REMARK    7  A    between atoms: C_21  and  C_22
REMARK    8  A    between atoms: C_21  and  O_24
REMARK    9  A    between atoms: O_24  and  C_26
REMARK                            x       y       z     vdW  Elec       q    Type
REMARK                         _______ _______ _______ _____ _____    ______ ____
ROOT
ATOM      1  C   UNL     1      35.756 -23.424 -14.998  0.00  0.00    +0.073 C 
ENDROOT
BRANCH   1   2
ATOM      2  C   UNL     1      36.069 -22.597 -16.286  0.00  0.00    -0.016 C 
ATOM      3  C   UNL     1      35.266 -22.793 -17.367  0.00  0.00    -0.004 C 
ATOM      4  C   UNL     1      37.123 -21.737 -16.237  0.00  0.00    -0.004 C 
ATOM      5  C   UNL     1      35.546 -22.054 -18.517  0.00  0.00    -0.000 C 
ATOM      6  C   UNL     1      37.402 -20.998 -17.387  0.00  0.00    -0.000 C 
ATOM      7  C   UNL     1      36.614 -21.157 -18.527  0.00  0.00    -0.000 C 
ENDBRANCH   1   2
BRANCH   1   8
ATOM      8  C   UNL     1      34.245 -23.785 -14.873  0.00  0.00    -0.016 C 
ATOM      9  C   UNL     1      33.383 -23.202 -15.752  0.00  0.00    -0.004 C 
ATOM     10  C   UNL     1      33.884 -24.661 -13.894  0.00  0.00    -0.004 C 
ATOM     11  C   UNL     1      32.030 -23.525 -15.641  0.00  0.00    -0.000 C 
ATOM     12  C   UNL     1      32.533 -24.984 -13.782  0.00  0.00    -0.000 C 
ATOM     13  C   UNL     1      31.606 -24.416 -14.655  0.00  0.00    -0.000 C 
ENDBRANCH   1   8
BRANCH   1  14
ATOM     14  C   UNL     1      36.313 -22.585 -13.772  0.00  0.00    -0.009 C 
BRANCH  14  15
ATOM     15  C   UNL     1      36.958 -23.344 -12.583  0.00  0.00    -0.058 C 
ATOM     16  C   UNL     1      38.107 -22.523 -11.988  0.00  0.00    -0.023 C 
BRANCH  15  17
ATOM     17  N   UNL     1      35.984 -23.606 -11.522  0.00  0.00    +0.385 N 
ATOM     18  C   UNL     1      36.439 -23.026 -10.259  0.00  0.00    -0.101 C 
ATOM     19  C   UNL     1      35.764 -25.043 -11.376  0.00  0.00    -0.101 C 
ATOM     20  H   UNL     1      35.099 -23.168 -11.778  0.00  0.00    -0.080 HD
ENDBRANCH  15  17
ENDBRANCH  14  15
ENDBRANCH   1  14
BRANCH   1  21
ATOM     21  C   UNL     1      36.567 -24.804 -14.987  0.00  0.00    +0.176 C 
BRANCH  21  22
ATOM     22  C   UNL     1      38.038 -24.741 -15.456  0.00  0.00    +0.044 C 
ATOM     23  C   UNL     1      39.010 -25.131 -14.346  0.00  0.00    +0.004 C 
ENDBRANCH  21  22
BRANCH  21  24
ATOM     24  O   UNL     1      35.882 -25.796 -15.759  0.00  0.00    -0.452 OA
BRANCH  24  26
ATOM     25  O   UNL     1      36.703 -27.734 -16.713  0.00  0.00    -0.250 OA
ATOM     26  C   UNL     1      36.438 -27.041 -15.740  0.00  0.00    +0.317 C 
ATOM     27  C   UNL     1      36.688 -27.456 -14.322  0.00  0.00    +0.121 C 
ENDBRANCH  24  26
ENDBRANCH  21  24
ENDBRANCH   1  21
TORSDOF 9
ENDMDL
MODEL 5
REMARK VINA RESULT:      -4.4      1.997      5.833
REMARK  Name = 10517
REMARK  9 active torsions:
REMARK  status: ('A' for Active; 'I' for Inactive)
REMARK    1  A    between atoms: C_1  and  C_2
REMARK    2  A    between atoms: C_1  and  C_8
REMARK    3  A    between atoms: C_1  and  C_14
REMARK    4  A    between atoms: C_1  and  C_21
REMARK    5  A    between atoms: C_14  and  C_15
REMARK    6  A    between atoms: C_15  and  N_17
REMARK    7  A    between atoms: C_21  and  C_22
REMARK    8  A    between atoms: C_21  and  O_24
REMARK    9  A    between atoms: O_24  and  C_26
REMARK                            x       y       z     vdW  Elec       q    Type
REMARK                         _______ _______ _______ _____ _____    ______ ____
ROOT
ATOM      1  C   UNL     1      35.931 -23.979 -14.852  0.00  0.00    +0.073 C 
ENDROOT
BRANCH   1   2
ATOM      2  C   UNL     1      36.223 -22.930 -15.971  0.00  0.00    -0.016 C 
ATOM      3  C   UNL     1      37.227 -22.039 -15.747  0.00  0.00    -0.004 C 
ATOM      4  C   UNL     1      35.454 -22.979 -17.093  0.00  0.00    -0.004 C 
ATOM      5  C   UNL     1      37.488 -21.101 -16.747  0.00  0.00    -0.000 C 
ATOM      6  C   UNL     1      35.715 -22.041 -18.093  0.00  0.00    -0.000 C 
ATOM      7  C   UNL     1      36.732 -21.102 -17.919  0.00  0.00    -0.000 C 
ENDBRANCH   1   2
BRANCH   1   8
ATOM      8  C   UNL     1      36.913 -25.189 -14.896  0.00  0.00    -0.016 C 
ATOM      9  C   UNL     1      38.242 -24.927 -14.750  0.00  0.00    -0.004 C 
ATOM     10  C   UNL     1      36.379 -26.429 -15.077  0.00  0.00    -0.004 C 
ATOM     11  C   UNL     1      39.122 -26.009 -14.789  0.00  0.00    -0.000 C 
ATOM     12  C   UNL     1      37.258 -27.511 -15.117  0.00  0.00    -0.000 C 
ATOM     13  C   UNL     1      38.629 -27.301 -14.973  0.00  0.00    -0.000 C 
ENDBRANCH   1   8
BRANCH   1  14
ATOM     14  C   UNL     1      34.406 -24.393 -15.004  0.00  0.00    -0.009 C 
BRANCH  14  15
ATOM     15  C   UNL     1      33.324 -23.284 -14.929  0.00  0.00    -0.058 C 
ATOM     16  C   UNL     1      32.472 -23.287 -16.203  0.00  0.00    -0.023 C 
BRANCH  15  17
ATOM     17  N   UNL     1      32.435 -23.480 -13.782  0.00  0.00    +0.385 N 
ATOM     18  C   UNL     1      32.081 -24.892 -13.646  0.00  0.00    -0.101 C 
ATOM     19  C   UNL     1      31.231 -22.662 -13.926  0.00  0.00    -0.101 C 
ATOM     20  H   UNL     1      32.924 -23.186 -12.937  0.00  0.00    -0.080 HD
ENDBRANCH  15  17
ENDBRANCH  14  15
ENDBRANCH   1  14
BRANCH   1  21
ATOM     21  C   UNL     1      36.063 -23.325 -13.397  0.00  0.00    +0.176 C 
BRANCH  21  22
ATOM     22  C   UNL     1      37.465 -23.363 -12.749  0.00  0.00    +0.044 C 
ATOM     23  C   UNL     1      37.743 -22.118 -11.912  0.00  0.00    +0.004 C 
ENDBRANCH  21  22
BRANCH  21  24
ATOM     24  O   UNL     1      35.124 -23.916 -12.492  0.00  0.00    -0.452 OA
BRANCH  24  26
ATOM     25  O   UNL     1      36.289 -25.770 -11.755  0.00  0.00    -0.250 OA
ATOM     26  C   UNL     1      35.660 -24.741 -11.548  0.00  0.00    +0.317 C 
ATOM     27  C   UNL     1      35.365 -24.199 -10.184  0.00  0.00    +0.121 C 
ENDBRANCH  24  26
ENDBRANCH  21  24
ENDBRANCH   1  21
TORSDOF 9
ENDMDL
MODEL 6
REMARK VINA RESULT:      -3.9      1.670      4.539
REMARK  Name = 10517
REMARK  9 active torsions:
REMARK  status: ('A' for Active; 'I' for Inactive)
REMARK    1  A    between atoms: C_1  and  C_2
REMARK    2  A    between atoms: C_1  and  C_8
REMARK    3  A    between atoms: C_1  and  C_14
REMARK    4  A    between atoms: C_1  and  C_21
REMARK    5  A    between atoms: C_14  and  C_15
REMARK    6  A    between atoms: C_15  and  N_17
REMARK    7  A    between atoms: C_21  and  C_22
REMARK    8  A    between atoms: C_21  and  O_24
REMARK    9  A    between atoms: O_24  and  C_26
REMARK                            x       y       z     vdW  Elec       q    Type
REMARK                         _______ _______ _______ _____ _____    ______ ____
ROOT
ATOM      1  C   UNL     1      35.151 -24.146 -14.725  0.00  0.00    +0.073 C 
ENDROOT
BRANCH   1   2
ATOM      2  C   UNL     1      35.749 -23.155 -15.775  0.00  0.00    -0.016 C 
ATOM      3  C   UNL     1      35.013 -22.907 -16.892  0.00  0.00    -0.004 C 
ATOM      4  C   UNL     1      36.965 -22.608 -15.500  0.00  0.00    -0.004 C 
ATOM      5  C   UNL     1      35.547 -22.023 -17.830  0.00  0.00    -0.000 C 
ATOM      6  C   UNL     1      37.498 -21.723 -16.437  0.00  0.00    -0.000 C 
ATOM      7  C   UNL     1      36.789 -21.431 -17.603  0.00  0.00    -0.000 C 
ENDBRANCH   1   2
BRANCH   1   8
ATOM      8  C   UNL     1      35.655 -23.857 -13.278  0.00  0.00    -0.016 C 
ATOM      9  C   UNL     1      36.649 -22.938 -13.129  0.00  0.00    -0.004 C 
ATOM     10  C   UNL     1      35.066 -24.542 -12.258  0.00  0.00    -0.004 C 
ATOM     11  C   UNL     1      37.099 -22.679 -11.834  0.00  0.00    -0.000 C 
ATOM     12  C   UNL     1      35.516 -24.284 -10.963  0.00  0.00    -0.000 C 
ATOM     13  C   UNL     1      36.533 -23.352 -10.751  0.00  0.00    -0.000 C 
ENDBRANCH   1   8
BRANCH   1  14
ATOM     14  C   UNL     1      35.491 -25.610 -15.236  0.00  0.00    -0.009 C 
BRANCH  14  15
ATOM     15  C   UNL     1      36.599 -26.413 -14.506  0.00  0.00    -0.058 C 
ATOM     16  C   UNL     1      37.075 -27.577 -15.382  0.00  0.00    -0.023 C 
BRANCH  15  17
ATOM     17  N   UNL     1      37.756 -25.570 -14.196  0.00  0.00    +0.385 N 
ATOM     18  C   UNL     1      38.744 -25.645 -15.272  0.00  0.00    -0.101 C 
ATOM     19  C   UNL     1      38.352 -25.972 -12.924  0.00  0.00    -0.101 C 
ATOM     20  H   UNL     1      37.441 -24.604 -14.114  0.00  0.00    -0.080 HD
ENDBRANCH  15  17
ENDBRANCH  14  15
ENDBRANCH   1  14
BRANCH   1  21
ATOM     21  C   UNL     1      33.553 -24.055 -14.690  0.00  0.00    +0.176 C 
BRANCH  21  22
ATOM     22  C   UNL     1      32.949 -22.843 -13.945  0.00  0.00    +0.044 C 
ATOM     23  C   UNL     1      31.810 -22.201 -14.731  0.00  0.00    +0.004 C 
ENDBRANCH  21  22
BRANCH  21  24
ATOM     24  O   UNL     1      32.994 -25.254 -14.142  0.00  0.00    -0.452 OA
BRANCH  24  26
ATOM     25  O   UNL     1      31.198 -24.982 -12.715  0.00  0.00    -0.250 OA
ATOM     26  C   UNL     1      31.670 -25.191 -13.825  0.00  0.00    +0.317 C 
ATOM     27  C   UNL     1      30.848 -25.419 -15.056  0.00  0.00    +0.121 C 
ENDBRANCH  24  26
ENDBRANCH  21  24
ENDBRANCH   1  21
TORSDOF 9
ENDMDL
MODEL 7
REMARK VINA RESULT:      -3.8      1.103      1.783
REMARK  Name = 10517
REMARK  9 active torsions:
REMARK  status: ('A' for Active; 'I' for Inactive)
REMARK    1  A    between atoms: C_1  and  C_2
REMARK    2  A    between atoms: C_1  and  C_8
REMARK    3  A    between atoms: C_1  and  C_14
REMARK    4  A    between atoms: C_1  and  C_21
REMARK    5  A    between atoms: C_14  and  C_15
REMARK    6  A    between atoms: C_15  and  N_17
REMARK    7  A    between atoms: C_21  and  C_22
REMARK    8  A    between atoms: C_21  and  O_24
REMARK    9  A    between atoms: O_24  and  C_26
REMARK                            x       y       z     vdW  Elec       q    Type
REMARK                         _______ _______ _______ _____ _____    ______ ____
ROOT
ATOM      1  C   UNL     1      34.958 -24.178 -14.609  0.00  0.00    +0.073 C 
ENDROOT
BRANCH   1   2
ATOM      2  C   UNL     1      35.673 -23.799 -13.273  0.00  0.00    -0.016 C 
ATOM      3  C   UNL     1      35.194 -24.354 -12.126  0.00  0.00    -0.004 C 
ATOM      4  C   UNL     1      36.727 -22.940 -13.347  0.00  0.00    -0.004 C 
ATOM      5  C   UNL     1      35.833 -24.015 -10.933  0.00  0.00    -0.000 C 
ATOM      6  C   UNL     1      37.366 -22.602 -12.154  0.00  0.00    -0.000 C 
ATOM      7  C   UNL     1      36.918 -23.139 -10.947  0.00  0.00    -0.000 C 
ENDBRANCH   1   2
BRANCH   1   8
ATOM      8  C   UNL     1      33.406 -24.079 -14.504  0.00  0.00    -0.016 C 
ATOM      9  C   UNL     1      32.858 -22.834 -14.425  0.00  0.00    -0.004 C 
ATOM     10  C   UNL     1      32.699 -25.244 -14.499  0.00  0.00    -0.004 C 
ATOM     11  C   UNL     1      31.469 -22.745 -14.332  0.00  0.00    -0.000 C 
ATOM     12  C   UNL     1      31.311 -25.155 -14.406  0.00  0.00    -0.000 C 
ATOM     13  C   UNL     1      30.696 -23.906 -14.322  0.00  0.00    -0.000 C 
ENDBRANCH   1   8
BRANCH   1  14
ATOM     14  C   UNL     1      35.477 -25.624 -15.008  0.00  0.00    -0.009 C 
BRANCH  14  15
ATOM     15  C   UNL     1      36.630 -26.254 -14.183  0.00  0.00    -0.058 C 
ATOM     16  C   UNL     1      37.009 -27.623 -14.758  0.00  0.00    -0.023 C 
BRANCH  15  17
ATOM     17  N   UNL     1      37.823 -25.405 -14.195  0.00  0.00    +0.385 N 
ATOM     18  C   UNL     1      38.475 -25.462 -15.502  0.00  0.00    -0.101 C 
ATOM     19  C   UNL     1      38.750 -25.816 -13.141  0.00  0.00    -0.101 C 
ATOM     20  H   UNL     1      37.539 -24.442 -14.017  0.00  0.00    -0.080 HD
ENDBRANCH  15  17
ENDBRANCH  14  15
ENDBRANCH   1  14
BRANCH   1  21
ATOM     21  C   UNL     1      35.409 -23.209 -15.800  0.00  0.00    +0.176 C 
BRANCH  21  22
ATOM     22  C   UNL     1      36.311 -22.016 -15.412  0.00  0.00    +0.044 C 
ATOM     23  C   UNL     1      37.435 -21.797 -16.421  0.00  0.00    +0.004 C 
ENDBRANCH  21  22
BRANCH  21  24
ATOM     24  O   UNL     1      34.264 -22.709 -16.501  0.00  0.00    -0.452 OA
BRANCH  24  26
ATOM     25  O   UNL     1      33.655 -24.135 -18.213  0.00  0.00    -0.250 OA
ATOM     26  C   UNL     1      34.160 -23.098 -17.803  0.00  0.00    +0.317 C 
ATOM     27  C   UNL     1      34.765 -22.052 -18.688  0.00  0.00    +0.121 C 
ENDBRANCH  24  26
ENDBRANCH  21  24
ENDBRANCH   1  21
TORSDOF 9
ENDMDL
MODEL 8
REMARK VINA RESULT:      -3.6      1.484      4.532
REMARK  Name = 10517
REMARK  9 active torsions:
REMARK  status: ('A' for Active; 'I' for Inactive)
REMARK    1  A    between atoms: C_1  and  C_2
REMARK    2  A    between atoms: C_1  and  C_8
REMARK    3  A    between atoms: C_1  and  C_14
REMARK    4  A    between atoms: C_1  and  C_21
REMARK    5  A    between atoms: C_14  and  C_15
REMARK    6  A    between atoms: C_15  and  N_17
REMARK    7  A    between atoms: C_21  and  C_22
REMARK    8  A    between atoms: C_21  and  O_24
REMARK    9  A    between atoms: O_24  and  C_26
REMARK                            x       y       z     vdW  Elec       q    Type
REMARK                         _______ _______ _______ _____ _____    ______ ____
ROOT
ATOM      1  C   UNL     1      35.227 -24.020 -14.711  0.00  0.00    +0.073 C 
ENDROOT
BRANCH   1   2
ATOM      2  C   UNL     1      35.805 -23.050 -15.791  0.00  0.00    -0.016 C 
ATOM      3  C   UNL     1      36.947 -22.378 -15.483  0.00  0.00    -0.004 C 
ATOM      4  C   UNL     1      35.126 -22.945 -16.967  0.00  0.00    -0.004 C 
ATOM      5  C   UNL     1      37.462 -21.512 -16.448  0.00  0.00    -0.000 C 
ATOM      6  C   UNL     1      35.642 -22.079 -17.931  0.00  0.00    -0.000 C 
ATOM      7  C   UNL     1      36.810 -21.363 -17.672  0.00  0.00    -0.000 C 
ENDBRANCH   1   2
BRANCH   1   8
ATOM      8  C   UNL     1      35.780 -23.722 -13.285  0.00  0.00    -0.016 C 
ATOM      9  C   UNL     1      35.150 -24.309 -12.229  0.00  0.00    -0.004 C 
ATOM     10  C   UNL     1      36.859 -22.895 -13.187  0.00  0.00    -0.004 C 
ATOM     11  C   UNL     1      35.646 -24.042 -10.953  0.00  0.00    -0.000 C 
ATOM     12  C   UNL     1      37.354 -22.628 -11.911  0.00  0.00    -0.000 C 
ATOM     13  C   UNL     1      36.747 -23.202 -10.794  0.00  0.00    -0.000 C 
ENDBRANCH   1   8
BRANCH   1  14
ATOM     14  C   UNL     1      35.529 -25.494 -15.215  0.00  0.00    -0.009 C 
BRANCH  14  15
ATOM     15  C   UNL     1      36.618 -26.321 -14.483  0.00  0.00    -0.058 C 
ATOM     16  C   UNL     1      37.059 -27.505 -15.350  0.00  0.00    -0.023 C 
BRANCH  15  17
ATOM     17  N   UNL     1      37.798 -25.507 -14.183  0.00  0.00    +0.385 N 
ATOM     18  C   UNL     1      38.739 -25.544 -15.301  0.00  0.00    -0.101 C 
ATOM     19  C   UNL     1      38.441 -25.976 -12.957  0.00  0.00    -0.101 C 
ATOM     20  H   UNL     1      37.500 -24.542 -14.043  0.00  0.00    -0.080 HD
ENDBRANCH  15  17
ENDBRANCH  14  15
ENDBRANCH   1  14
BRANCH   1  21
ATOM     21  C   UNL     1      33.632 -23.906 -14.626  0.00  0.00    +0.176 C 
BRANCH  21  22
ATOM     22  C   UNL     1      32.851 -25.236 -14.544  0.00  0.00    +0.044 C 
ATOM     23  C   UNL     1      31.830 -25.229 -13.408  0.00  0.00    +0.004 C 
ENDBRANCH  21  22
BRANCH  21  24
ATOM     24  O   UNL     1      33.124 -23.143 -15.727  0.00  0.00    -0.452 OA
BRANCH  24  26
ATOM     25  O   UNL     1      30.978 -23.174 -16.582  0.00  0.00    -0.250 OA
ATOM     26  C   UNL     1      31.783 -22.901 -15.701  0.00  0.00    +0.317 C 
ATOM     27  C   UNL     1      31.419 -22.234 -14.410  0.00  0.00    +0.121 C 
ENDBRANCH  24  26
ENDBRANCH  21  24
ENDBRANCH   1  21
TORSDOF 9
ENDMDL
MODEL 9
REMARK VINA RESULT:      -3.1      1.871      4.943
REMARK  Name = 10517
REMARK  9 active torsions:
REMARK  status: ('A' for Active; 'I' for Inactive)
REMARK    1  A    between atoms: C_1  and  C_2
REMARK    2  A    between atoms: C_1  and  C_8
REMARK    3  A    between atoms: C_1  and  C_14
REMARK    4  A    between atoms: C_1  and  C_21
REMARK    5  A    between atoms: C_14  and  C_15
REMARK    6  A    between atoms: C_15  and  N_17
REMARK    7  A    between atoms: C_21  and  C_22
REMARK    8  A    between atoms: C_21  and  O_24
REMARK    9  A    between atoms: O_24  and  C_26
REMARK                            x       y       z     vdW  Elec       q    Type
REMARK                         _______ _______ _______ _____ _____    ______ ____
ROOT
ATOM      1  C   UNL     1      35.871 -24.201 -14.604  0.00  0.00    +0.073 C 
ENDROOT
BRANCH   1   2
ATOM      2  C   UNL     1      36.100 -23.768 -13.121  0.00  0.00    -0.016 C 
ATOM      3  C   UNL     1      37.139 -22.926 -12.867  0.00  0.00    -0.004 C 
ATOM      4  C   UNL     1      35.245 -24.263 -12.184  0.00  0.00    -0.004 C 
ATOM      5  C   UNL     1      37.343 -22.540 -11.542  0.00  0.00    -0.000 C 
ATOM      6  C   UNL     1      35.450 -23.876 -10.859  0.00  0.00    -0.000 C 
ATOM      7  C   UNL     1      36.499 -23.015 -10.538  0.00  0.00    -0.000 C 
ENDBRANCH   1   2
BRANCH   1   8
ATOM      8  C   UNL     1      36.289 -23.095 -15.620  0.00  0.00    -0.016 C 
ATOM      9  C   UNL     1      37.358 -22.316 -15.298  0.00  0.00    -0.004 C 
ATOM     10  C   UNL     1      35.558 -22.982 -16.764  0.00  0.00    -0.004 C 
ATOM     11  C   UNL     1      37.732 -21.326 -16.208  0.00  0.00    -0.000 C 
ATOM     12  C   UNL     1      35.931 -21.993 -17.673  0.00  0.00    -0.000 C 
ATOM     13  C   UNL     1      37.019 -21.165 -17.395  0.00  0.00    -0.000 C 
ENDBRANCH   1   8
BRANCH   1  14
ATOM     14  C   UNL     1      34.347 -24.631 -14.722  0.00  0.00    -0.009 C 
BRANCH  14  15
ATOM     15  C   UNL     1      33.280 -23.528 -14.947  0.00  0.00    -0.058 C 
ATOM     16  C   UNL     1      32.871 -23.478 -16.423  0.00  0.00    -0.023 C 
BRANCH  15  17
ATOM     17  N   UNL     1      32.079 -23.772 -14.146  0.00  0.00    +0.385 N 
ATOM     18  C   UNL     1      32.032 -22.859 -13.006  0.00  0.00    -0.101 C 
ATOM     19  C   UNL     1      32.045 -25.161 -13.692  0.00  0.00    -0.101 C 
ATOM     20  H   UNL     1      31.260 -23.604 -14.729  0.00  0.00    -0.080 HD
ENDBRANCH  15  17
ENDBRANCH  14  15
ENDBRANCH   1  14
BRANCH   1  21
ATOM     21  C   UNL     1      36.722 -25.509 -14.962  0.00  0.00    +0.176 C 
BRANCH  21  22
ATOM     22  C   UNL     1      38.195 -25.281 -15.368  0.00  0.00    +0.044 C 
ATOM     23  C   UNL     1      39.154 -25.536 -14.209  0.00  0.00    +0.004 C 
ENDBRANCH  21  22
BRANCH  21  24
ATOM     24  O   UNL     1      36.074 -26.264 -15.991  0.00  0.00    -0.452 OA
BRANCH  24  26
ATOM     25  O   UNL     1      36.665 -28.110 -17.249  0.00  0.00    -0.250 OA
ATOM     26  C   UNL     1      36.550 -27.528 -16.178  0.00  0.00    +0.317 C 
ATOM     27  C   UNL     1      36.922 -28.124 -14.855  0.00  0.00    +0.121 C 
ENDBRANCH  24  26
ENDBRANCH  21  24
ENDBRANCH   1  21
TORSDOF 9
ENDMDL
