MODEL 1
REMARK VINA RESULT:      -9.3      0.000      0.000
REMARK  Name = 5687
REMARK  4 active torsions:
REMARK  status: ('A' for Active; 'I' for Inactive)
REMARK    1  A    between atoms: N_1  and  C_13
REMARK    2  A    between atoms: C_8  and  O_21
REMARK    3  A    between atoms: C_10  and  O_23
REMARK    4  A    between atoms: C_16  and  O_19
REMARK                            x       y       z     vdW  Elec       q    Type
REMARK                         _______ _______ _______ _____ _____    ______ ____
ROOT
ATOM      1  N   UNL     1      35.235 -18.082 -21.883  0.00  0.00    -0.301 N 
ATOM      2  N   UNL     1      34.205 -14.167 -21.029  0.00  0.00    -0.248 NA
ATOM      3  N   UNL     1      34.997 -16.331 -20.330  0.00  0.00    -0.233 NA
ATOM      4  C   UNL     1      34.433 -15.923 -22.645  0.00  0.00    +0.119 C 
ATOM      5  C   UNL     1      34.098 -14.605 -22.296  0.00  0.00    +0.070 C 
ATOM      6  C   UNL     1      34.878 -16.739 -21.607  0.00  0.00    +0.115 C 
ATOM      7  C   UNL     1      34.317 -16.373 -23.972  0.00  0.00    +0.027 C 
ATOM      8  C   UNL     1      33.864 -15.506 -24.962  0.00  0.00    +0.169 C 
ATOM      9  C   UNL     1      33.648 -13.759 -23.307  0.00  0.00    +0.055 C 
ATOM     10  C   UNL     1      33.530 -14.198 -24.629  0.00  0.00    +0.173 C 
ATOM     11  C   UNL     1      34.649 -15.053 -20.115  0.00  0.00    +0.251 C 
ATOM     12  H   UNL     1      35.583 -18.222 -22.794  0.00  0.00    +0.153 HD
ENDROOT
BRANCH   1  13
ATOM     13  C   UNL     1      35.188 -19.253 -21.111  0.00  0.00    +0.052 C 
ATOM     14  C   UNL     1      33.964 -19.876 -20.849  0.00  0.00    +0.051 C 
ATOM     15  C   UNL     1      36.365 -19.806 -20.597  0.00  0.00    +0.015 C 
ATOM     16  C   UNL     1      33.916 -21.040 -20.082  0.00  0.00    +0.135 C 
ATOM     17  C   UNL     1      36.318 -20.970 -19.829  0.00  0.00    +0.004 C 
ATOM     18  C   UNL     1      35.094 -21.587 -19.572  0.00  0.00    +0.037 C 
BRANCH  16  19
ATOM     19  O   UNL     1      32.721 -21.641 -19.830  0.00  0.00    -0.505 OA
ATOM     20  H   UNL     1      32.179 -21.329 -19.132  0.00  0.00    +0.292 HD
ENDBRANCH  16  19
ENDBRANCH   1  13
BRANCH   8  21
ATOM     21  O   UNL     1      33.756 -15.946 -26.246  0.00  0.00    -0.469 OA
ATOM     22  C   UNL     1      32.469 -16.391 -26.672  0.00  0.00    +0.253 C 
ENDBRANCH   8  21
BRANCH  10  23
ATOM     23  O   UNL     1      33.085 -13.332 -25.582  0.00  0.00    -0.468 OA
ATOM     24  C   UNL     1      33.817 -12.120 -25.748  0.00  0.00    +0.253 C 
ENDBRANCH  10  23
TORSDOF 4
ENDMDL
MODEL 2
REMARK VINA RESULT:      -9.2      9.014     12.321
REMARK  Name = 5687
REMARK  4 active torsions:
REMARK  status: ('A' for Active; 'I' for Inactive)
REMARK    1  A    between atoms: N_1  and  C_13
REMARK    2  A    between atoms: C_8  and  O_21
REMARK    3  A    between atoms: C_10  and  O_23
REMARK    4  A    between atoms: C_16  and  O_19
REMARK                            x       y       z     vdW  Elec       q    Type
REMARK                         _______ _______ _______ _____ _____    ______ ____
ROOT
ATOM      1  N   UNL     1      32.505 -23.551 -14.467  0.00  0.00    -0.301 N 
ATOM      2  N   UNL     1      36.094 -23.256 -16.506  0.00  0.00    -0.248 NA
ATOM      3  N   UNL     1      33.706 -22.957 -16.401  0.00  0.00    -0.233 NA
ATOM      4  C   UNL     1      34.909 -23.874 -14.515  0.00  0.00    +0.119 C 
ATOM      5  C   UNL     1      36.096 -23.750 -15.255  0.00  0.00    +0.070 C 
ATOM      6  C   UNL     1      33.742 -23.457 -15.152  0.00  0.00    +0.115 C 
ATOM      7  C   UNL     1      34.921 -24.392 -13.208  0.00  0.00    +0.027 C 
ATOM      8  C   UNL     1      36.122 -24.792 -12.630  0.00  0.00    +0.169 C 
ATOM      9  C   UNL     1      37.283 -24.158 -14.652  0.00  0.00    +0.055 C 
ATOM     10  C   UNL     1      37.304 -24.675 -13.353  0.00  0.00    +0.173 C 
ATOM     11  C   UNL     1      34.899 -22.887 -17.011  0.00  0.00    +0.251 C 
ATOM     12  H   UNL     1      32.584 -23.459 -13.489  0.00  0.00    +0.153 HD
ENDROOT
BRANCH   1  13
ATOM     13  C   UNL     1      31.189 -23.750 -14.911  0.00  0.00    +0.052 C 
ATOM     14  C   UNL     1      30.572 -22.802 -15.733  0.00  0.00    +0.051 C 
ATOM     15  C   UNL     1      30.485 -24.899 -14.536  0.00  0.00    +0.015 C 
ATOM     16  C   UNL     1      29.264 -23.000 -16.176  0.00  0.00    +0.135 C 
ATOM     17  C   UNL     1      29.177 -25.097 -14.979  0.00  0.00    +0.004 C 
ATOM     18  C   UNL     1      28.567 -24.148 -15.798  0.00  0.00    +0.037 C 
BRANCH  16  19
ATOM     19  O   UNL     1      28.668 -22.073 -16.975  0.00  0.00    -0.505 OA
ATOM     20  H   UNL     1      28.404 -22.304 -17.844  0.00  0.00    +0.292 HD
ENDBRANCH  16  19
ENDBRANCH   1  13
BRANCH   8  21
ATOM     21  O   UNL     1      36.128 -25.292 -11.364  0.00  0.00    -0.469 OA
ATOM     22  C   UNL     1      35.688 -24.422 -10.322  0.00  0.00    +0.253 C 
ENDBRANCH   8  21
BRANCH  10  23
ATOM     23  O   UNL     1      38.492 -25.059 -12.807  0.00  0.00    -0.468 OA
ATOM     24  C   UNL     1      39.490 -25.542 -13.704  0.00  0.00    +0.253 C 
ENDBRANCH  10  23
TORSDOF 4
ENDMDL
MODEL 3
REMARK VINA RESULT:      -9.2      2.014      3.067
REMARK  Name = 5687
REMARK  4 active torsions:
REMARK  status: ('A' for Active; 'I' for Inactive)
REMARK    1  A    between atoms: N_1  and  C_13
REMARK    2  A    between atoms: C_8  and  O_21
REMARK    3  A    between atoms: C_10  and  O_23
REMARK    4  A    between atoms: C_16  and  O_19
REMARK                            x       y       z     vdW  Elec       q    Type
REMARK                         _______ _______ _______ _____ _____    ______ ____
ROOT
ATOM      1  N   UNL     1      33.869 -18.893 -21.113  0.00  0.00    -0.301 N 
ATOM      2  N   UNL     1      34.928 -17.460 -24.848  0.00  0.00    -0.248 NA
ATOM      3  N   UNL     1      34.584 -19.289 -23.319  0.00  0.00    -0.233 NA
ATOM      4  C   UNL     1      34.198 -17.011 -22.608  0.00  0.00    +0.119 C 
ATOM      5  C   UNL     1      34.568 -16.583 -23.894  0.00  0.00    +0.070 C 
ATOM      6  C   UNL     1      34.229 -18.386 -22.386  0.00  0.00    +0.115 C 
ATOM      7  C   UNL     1      33.823 -16.087 -21.617  0.00  0.00    +0.027 C 
ATOM      8  C   UNL     1      33.815 -14.726 -21.904  0.00  0.00    +0.169 C 
ATOM      9  C   UNL     1      34.550 -15.215 -24.153  0.00  0.00    +0.055 C 
ATOM     10  C   UNL     1      34.178 -14.289 -23.173  0.00  0.00    +0.173 C 
ATOM     11  C   UNL     1      34.917 -18.765 -24.509  0.00  0.00    +0.251 C 
ATOM     12  H   UNL     1      33.208 -18.339 -20.637  0.00  0.00    +0.153 HD
ENDROOT
BRANCH   1  13
ATOM     13  C   UNL     1      34.273 -20.031 -20.398  0.00  0.00    +0.052 C 
ATOM     14  C   UNL     1      33.321 -20.863 -19.801  0.00  0.00    +0.051 C 
ATOM     15  C   UNL     1      35.631 -20.342 -20.277  0.00  0.00    +0.015 C 
ATOM     16  C   UNL     1      33.722 -21.994 -19.091  0.00  0.00    +0.135 C 
ATOM     17  C   UNL     1      36.032 -21.473 -19.567  0.00  0.00    +0.004 C 
ATOM     18  C   UNL     1      35.078 -22.299 -18.973  0.00  0.00    +0.037 C 
BRANCH  16  19
ATOM     19  O   UNL     1      32.790 -22.800 -18.511  0.00  0.00    -0.505 OA
ATOM     20  H   UNL     1      32.300 -22.493 -17.773  0.00  0.00    +0.292 HD
ENDBRANCH  16  19
ENDBRANCH   1  13
BRANCH   8  21
ATOM     21  O   UNL     1      33.449 -13.835 -20.941  0.00  0.00    -0.469 OA
ATOM     22  C   UNL     1      32.119 -13.324 -21.002  0.00  0.00    +0.253 C 
ENDBRANCH   8  21
BRANCH  10  23
ATOM     23  O   UNL     1      34.177 -12.961 -23.477  0.00  0.00    -0.468 OA
ATOM     24  C   UNL     1      33.557 -12.577 -24.702  0.00  0.00    +0.253 C 
ENDBRANCH  10  23
TORSDOF 4
ENDMDL
MODEL 4
REMARK VINA RESULT:      -9.2      5.376     10.671
REMARK  Name = 5687
REMARK  4 active torsions:
REMARK  status: ('A' for Active; 'I' for Inactive)
REMARK    1  A    between atoms: N_1  and  C_13
REMARK    2  A    between atoms: C_8  and  O_21
REMARK    3  A    between atoms: C_10  and  O_23
REMARK    4  A    between atoms: C_16  and  O_19
REMARK                            x       y       z     vdW  Elec       q    Type
REMARK                         _______ _______ _______ _____ _____    ______ ____
ROOT
ATOM      1  N   UNL     1      34.522 -22.404 -18.376  0.00  0.00    -0.301 N 
ATOM      2  N   UNL     1      31.943 -23.711 -15.416  0.00  0.00    -0.248 NA
ATOM      3  N   UNL     1      32.332 -22.773 -17.600  0.00  0.00    -0.233 NA
ATOM      4  C   UNL     1      34.191 -23.352 -16.168  0.00  0.00    +0.119 C 
ATOM      5  C   UNL     1      33.268 -23.780 -15.200  0.00  0.00    +0.070 C 
ATOM      6  C   UNL     1      33.652 -22.855 -17.353  0.00  0.00    +0.115 C 
ATOM      7  C   UNL     1      35.575 -23.429 -15.932  0.00  0.00    +0.027 C 
ATOM      8  C   UNL     1      36.048 -23.934 -14.726  0.00  0.00    +0.169 C 
ATOM      9  C   UNL     1      33.769 -24.282 -14.001  0.00  0.00    +0.055 C 
ATOM     10  C   UNL     1      35.144 -24.362 -13.759  0.00  0.00    +0.173 C 
ATOM     11  C   UNL     1      31.547 -23.210 -16.604  0.00  0.00    +0.251 C 
ATOM     12  H   UNL     1      35.389 -22.871 -18.395  0.00  0.00    +0.153 HD
ENDROOT
BRANCH   1  13
ATOM     13  C   UNL     1      34.388 -21.420 -19.368  0.00  0.00    +0.052 C 
ATOM     14  C   UNL     1      35.518 -20.768 -19.871  0.00  0.00    +0.051 C 
ATOM     15  C   UNL     1      33.123 -21.084 -19.860  0.00  0.00    +0.015 C 
ATOM     16  C   UNL     1      35.385 -19.790 -20.857  0.00  0.00    +0.135 C 
ATOM     17  C   UNL     1      32.990 -20.106 -20.846  0.00  0.00    +0.004 C 
ATOM     18  C   UNL     1      34.121 -19.459 -21.344  0.00  0.00    +0.037 C 
BRANCH  16  19
ATOM     19  O   UNL     1      36.488 -19.158 -21.342  0.00  0.00    -0.505 OA
ATOM     20  H   UNL     1      36.862 -18.440 -20.870  0.00  0.00    +0.292 HD
ENDBRANCH  16  19
ENDBRANCH   1  13
BRANCH   8  21
ATOM     21  O   UNL     1      37.389 -24.008 -14.504  0.00  0.00    -0.469 OA
ATOM     22  C   UNL     1      38.039 -25.227 -14.860  0.00  0.00    +0.253 C 
ENDBRANCH   8  21
BRANCH  10  23
ATOM     23  O   UNL     1      35.584 -24.862 -12.571  0.00  0.00    -0.468 OA
ATOM     24  C   UNL     1      35.652 -23.954 -11.473  0.00  0.00    +0.253 C 
ENDBRANCH  10  23
TORSDOF 4
ENDMDL
MODEL 5
REMARK VINA RESULT:      -9.1      3.727      8.253
REMARK  Name = 5687
REMARK  4 active torsions:
REMARK  status: ('A' for Active; 'I' for Inactive)
REMARK    1  A    between atoms: N_1  and  C_13
REMARK    2  A    between atoms: C_8  and  O_21
REMARK    3  A    between atoms: C_10  and  O_23
REMARK    4  A    between atoms: C_16  and  O_19
REMARK                            x       y       z     vdW  Elec       q    Type
REMARK                         _______ _______ _______ _____ _____    ______ ____
ROOT
ATOM      1  N   UNL     1      34.152 -11.847 -23.845  0.00  0.00    -0.301 N 
ATOM      2  N   UNL     1      33.400 -14.765 -26.681  0.00  0.00    -0.248 NA
ATOM      3  N   UNL     1      33.507 -12.450 -26.026  0.00  0.00    -0.233 NA
ATOM      4  C   UNL     1      34.063 -14.195 -24.449  0.00  0.00    +0.119 C 
ATOM      5  C   UNL     1      33.794 -15.140 -25.451  0.00  0.00    +0.070 C 
ATOM      6  C   UNL     1      33.898 -12.858 -24.805  0.00  0.00    +0.115 C 
ATOM      7  C   UNL     1      34.473 -14.597 -23.165  0.00  0.00    +0.027 C 
ATOM      8  C   UNL     1      34.617 -15.950 -22.874  0.00  0.00    +0.169 C 
ATOM      9  C   UNL     1      33.946 -16.487 -25.132  0.00  0.00    +0.055 C 
ATOM     10  C   UNL     1      34.354 -16.896 -23.858  0.00  0.00    +0.173 C 
ATOM     11  C   UNL     1      33.278 -13.440 -26.901  0.00  0.00    +0.251 C 
ATOM     12  H   UNL     1      34.837 -12.091 -23.182  0.00  0.00    +0.153 HD
ENDROOT
BRANCH   1  13
ATOM     13  C   UNL     1      33.614 -10.564 -23.656  0.00  0.00    +0.052 C 
ATOM     14  C   UNL     1      34.370  -9.430 -23.969  0.00  0.00    +0.051 C 
ATOM     15  C   UNL     1      32.318 -10.411 -23.154  0.00  0.00    +0.015 C 
ATOM     16  C   UNL     1      33.835  -8.155 -23.782  0.00  0.00    +0.135 C 
ATOM     17  C   UNL     1      31.783  -9.136 -22.967  0.00  0.00    +0.004 C 
ATOM     18  C   UNL     1      32.542  -8.008 -23.281  0.00  0.00    +0.037 C 
BRANCH  16  19
ATOM     19  O   UNL     1      34.576  -7.055 -24.087  0.00  0.00    -0.505 OA
ATOM     20  H   UNL     1      34.233  -6.199 -23.923  0.00  0.00    +0.292 HD
ENDBRANCH  16  19
ENDBRANCH   1  13
BRANCH   8  21
ATOM     21  O   UNL     1      35.017 -16.333 -21.630  0.00  0.00    -0.469 OA
ATOM     22  C   UNL     1      34.559 -15.547 -20.531  0.00  0.00    +0.253 C 
ENDBRANCH   8  21
BRANCH  10  23
ATOM     23  O   UNL     1      34.489 -18.226 -23.596  0.00  0.00    -0.468 OA
ATOM     24  C   UNL     1      34.463 -19.112 -24.713  0.00  0.00    +0.253 C 
ENDBRANCH  10  23
TORSDOF 4
ENDMDL
MODEL 6
REMARK VINA RESULT:      -8.9      3.257      7.514
REMARK  Name = 5687
REMARK  4 active torsions:
REMARK  status: ('A' for Active; 'I' for Inactive)
REMARK    1  A    between atoms: N_1  and  C_13
REMARK    2  A    between atoms: C_8  and  O_21
REMARK    3  A    between atoms: C_10  and  O_23
REMARK    4  A    between atoms: C_16  and  O_19
REMARK                            x       y       z     vdW  Elec       q    Type
REMARK                         _______ _______ _______ _____ _____    ______ ____
ROOT
ATOM      1  N   UNL     1      33.634 -13.166 -23.282  0.00  0.00    -0.301 N 
ATOM      2  N   UNL     1      33.391 -15.743 -26.510  0.00  0.00    -0.248 NA
ATOM      3  N   UNL     1      33.050 -13.572 -25.525  0.00  0.00    -0.233 NA
ATOM      4  C   UNL     1      34.001 -15.372 -24.222  0.00  0.00    +0.119 C 
ATOM      5  C   UNL     1      33.894 -16.200 -25.351  0.00  0.00    +0.070 C 
ATOM      6  C   UNL     1      33.557 -14.060 -24.378  0.00  0.00    +0.115 C 
ATOM      7  C   UNL     1      34.529 -15.859 -23.013  0.00  0.00    +0.027 C 
ATOM      8  C   UNL     1      34.954 -17.181 -22.923  0.00  0.00    +0.169 C 
ATOM      9  C   UNL     1      34.327 -17.519 -25.233  0.00  0.00    +0.055 C 
ATOM     10  C   UNL     1      34.853 -18.011 -24.034  0.00  0.00    +0.173 C 
ATOM     11  C   UNL     1      32.996 -14.454 -26.534  0.00  0.00    +0.251 C 
ATOM     12  H   UNL     1      34.378 -13.356 -22.665  0.00  0.00    +0.153 HD
ENDROOT
BRANCH   1  13
ATOM     13  C   UNL     1      32.856 -12.060 -22.905  0.00  0.00    +0.052 C 
ATOM     14  C   UNL     1      33.100 -10.802 -23.464  0.00  0.00    +0.051 C 
ATOM     15  C   UNL     1      31.828 -12.210 -21.968  0.00  0.00    +0.015 C 
ATOM     16  C   UNL     1      32.326  -9.704 -23.090  0.00  0.00    +0.135 C 
ATOM     17  C   UNL     1      31.053 -11.111 -21.594  0.00  0.00    +0.004 C 
ATOM     18  C   UNL     1      31.302  -9.859 -22.155  0.00  0.00    +0.037 C 
BRANCH  16  19
ATOM     19  O   UNL     1      32.569  -8.482 -23.636  0.00  0.00    -0.505 OA
ATOM     20  H   UNL     1      31.951  -8.102 -24.230  0.00  0.00    +0.292 HD
ENDBRANCH  16  19
ENDBRANCH   1  13
BRANCH   8  21
ATOM     21  O   UNL     1      35.465 -17.648 -21.751  0.00  0.00    -0.469 OA
ATOM     22  C   UNL     1      34.640 -18.527 -20.988  0.00  0.00    +0.253 C 
ENDBRANCH   8  21
BRANCH  10  23
ATOM     23  O   UNL     1      35.263 -19.309 -23.969  0.00  0.00    -0.468 OA
ATOM     24  C   UNL     1      34.876 -20.165 -25.043  0.00  0.00    +0.253 C 
ENDBRANCH  10  23
TORSDOF 4
ENDMDL
MODEL 7
REMARK VINA RESULT:      -8.9      3.375      7.222
REMARK  Name = 5687
REMARK  4 active torsions:
REMARK  status: ('A' for Active; 'I' for Inactive)
REMARK    1  A    between atoms: N_1  and  C_13
REMARK    2  A    between atoms: C_8  and  O_21
REMARK    3  A    between atoms: C_10  and  O_23
REMARK    4  A    between atoms: C_16  and  O_19
REMARK                            x       y       z     vdW  Elec       q    Type
REMARK                         _______ _______ _______ _____ _____    ______ ____
ROOT
ATOM      1  N   UNL     1      32.119 -12.415 -22.572  0.00  0.00    -0.301 N 
ATOM      2  N   UNL     1      33.805 -15.947 -21.227  0.00  0.00    -0.248 NA
ATOM      3  N   UNL     1      32.757 -13.821 -20.797  0.00  0.00    -0.233 NA
ATOM      4  C   UNL     1      33.170 -14.545 -23.066  0.00  0.00    +0.119 C 
ATOM      5  C   UNL     1      33.731 -15.725 -22.551  0.00  0.00    +0.070 C 
ATOM      6  C   UNL     1      32.699 -13.629 -22.128  0.00  0.00    +0.115 C 
ATOM      7  C   UNL     1      33.098 -14.322 -24.452  0.00  0.00    +0.027 C 
ATOM      8  C   UNL     1      33.588 -15.278 -25.336  0.00  0.00    +0.169 C 
ATOM      9  C   UNL     1      34.214 -16.665 -23.459  0.00  0.00    +0.055 C 
ATOM     10  C   UNL     1      34.146 -16.451 -24.839  0.00  0.00    +0.173 C 
ATOM     11  C   UNL     1      33.314 -14.983 -20.422  0.00  0.00    +0.251 C 
ATOM     12  H   UNL     1      31.675 -12.484 -23.448  0.00  0.00    +0.153 HD
ENDROOT
BRANCH   1  13
ATOM     13  C   UNL     1      32.056 -11.132 -22.006  0.00  0.00    +0.052 C 
ATOM     14  C   UNL     1      32.427 -10.012 -22.756  0.00  0.00    +0.051 C 
ATOM     15  C   UNL     1      31.621 -10.965 -20.687  0.00  0.00    +0.015 C 
ATOM     16  C   UNL     1      32.364  -8.737 -22.193  0.00  0.00    +0.135 C 
ATOM     17  C   UNL     1      31.558  -9.690 -20.125  0.00  0.00    +0.004 C 
ATOM     18  C   UNL     1      31.929  -8.576 -20.878  0.00  0.00    +0.037 C 
BRANCH  16  19
ATOM     19  O   UNL     1      32.727  -7.651 -22.928  0.00  0.00    -0.505 OA
ATOM     20  H   UNL     1      32.218  -7.397 -23.673  0.00  0.00    +0.292 HD
ENDBRANCH  16  19
ENDBRANCH   1  13
BRANCH   8  21
ATOM     21  O   UNL     1      33.514 -15.058 -26.678  0.00  0.00    -0.469 OA
ATOM     22  C   UNL     1      33.331 -13.708 -27.104  0.00  0.00    +0.253 C 
ENDBRANCH   8  21
BRANCH  10  23
ATOM     23  O   UNL     1      34.631 -17.401 -25.686  0.00  0.00    -0.468 OA
ATOM     24  C   UNL     1      34.592 -18.753 -25.234  0.00  0.00    +0.253 C 
ENDBRANCH  10  23
TORSDOF 4
ENDMDL
MODEL 8
REMARK VINA RESULT:      -8.8      3.895      6.227
REMARK  Name = 5687
REMARK  4 active torsions:
REMARK  status: ('A' for Active; 'I' for Inactive)
REMARK    1  A    between atoms: N_1  and  C_13
REMARK    2  A    between atoms: C_8  and  O_21
REMARK    3  A    between atoms: C_10  and  O_23
REMARK    4  A    between atoms: C_16  and  O_19
REMARK                            x       y       z     vdW  Elec       q    Type
REMARK                         _______ _______ _______ _____ _____    ______ ____
ROOT
ATOM      1  N   UNL     1      33.052 -13.775 -23.316  0.00  0.00    -0.301 N 
ATOM      2  N   UNL     1      34.033  -9.986 -24.659  0.00  0.00    -0.248 NA
ATOM      3  N   UNL     1      34.157 -12.383 -24.859  0.00  0.00    -0.233 NA
ATOM      4  C   UNL     1      32.892 -11.368 -23.066  0.00  0.00    +0.119 C 
ATOM      5  C   UNL     1      33.257 -10.108 -23.568  0.00  0.00    +0.070 C 
ATOM      6  C   UNL     1      33.379 -12.471 -23.763  0.00  0.00    +0.115 C 
ATOM      7  C   UNL     1      32.080 -11.485 -21.924  0.00  0.00    +0.027 C 
ATOM      8  C   UNL     1      31.628 -10.342 -21.273  0.00  0.00    +0.169 C 
ATOM      9  C   UNL     1      32.790  -8.980 -22.897  0.00  0.00    +0.055 C 
ATOM     10  C   UNL     1      31.982  -9.088 -21.760  0.00  0.00    +0.173 C 
ATOM     11  C   UNL     1      34.440 -11.130 -25.245  0.00  0.00    +0.251 C 
ATOM     12  H   UNL     1      32.179 -13.833 -22.865  0.00  0.00    +0.153 HD
ENDROOT
BRANCH   1  13
ATOM     13  C   UNL     1      33.733 -15.000 -23.391  0.00  0.00    +0.052 C 
ATOM     14  C   UNL     1      33.791 -15.701 -24.600  0.00  0.00    +0.051 C 
ATOM     15  C   UNL     1      34.358 -15.530 -22.257  0.00  0.00    +0.015 C 
ATOM     16  C   UNL     1      34.468 -16.919 -24.675  0.00  0.00    +0.135 C 
ATOM     17  C   UNL     1      35.035 -16.747 -22.332  0.00  0.00    +0.004 C 
ATOM     18  C   UNL     1      35.090 -17.441 -23.541  0.00  0.00    +0.037 C 
BRANCH  16  19
ATOM     19  O   UNL     1      34.520 -17.597 -25.853  0.00  0.00    -0.505 OA
ATOM     20  H   UNL     1      35.111 -17.320 -26.527  0.00  0.00    +0.292 HD
ENDBRANCH  16  19
ENDBRANCH   1  13
BRANCH   8  21
ATOM     21  O   UNL     1      30.841 -10.461 -20.168  0.00  0.00    -0.469 OA
ATOM     22  C   UNL     1      31.490 -10.799 -18.943  0.00  0.00    +0.253 C 
ENDBRANCH   8  21
BRANCH  10  23
ATOM     23  O   UNL     1      31.550  -7.955 -21.139  0.00  0.00    -0.468 OA
ATOM     24  C   UNL     1      32.450  -7.334 -20.225  0.00  0.00    +0.253 C 
ENDBRANCH  10  23
TORSDOF 4
ENDMDL
MODEL 9
REMARK VINA RESULT:      -8.6      2.262      3.390
REMARK  Name = 5687
REMARK  4 active torsions:
REMARK  status: ('A' for Active; 'I' for Inactive)
REMARK    1  A    between atoms: N_1  and  C_13
REMARK    2  A    between atoms: C_8  and  O_21
REMARK    3  A    between atoms: C_10  and  O_23
REMARK    4  A    between atoms: C_16  and  O_19
REMARK                            x       y       z     vdW  Elec       q    Type
REMARK                         _______ _______ _______ _____ _____    ______ ____
ROOT
ATOM      1  N   UNL     1      33.753 -18.999 -21.014  0.00  0.00    -0.301 N 
ATOM      2  N   UNL     1      35.026 -17.616 -24.700  0.00  0.00    -0.248 NA
ATOM      3  N   UNL     1      34.571 -19.426 -23.178  0.00  0.00    -0.233 NA
ATOM      4  C   UNL     1      34.193 -17.136 -22.504  0.00  0.00    +0.119 C 
ATOM      5  C   UNL     1      34.635 -16.725 -23.772  0.00  0.00    +0.070 C 
ATOM      6  C   UNL     1      34.187 -18.509 -22.271  0.00  0.00    +0.115 C 
ATOM      7  C   UNL     1      33.786 -16.197 -21.540  0.00  0.00    +0.027 C 
ATOM      8  C   UNL     1      33.818 -14.838 -21.836  0.00  0.00    +0.169 C 
ATOM      9  C   UNL     1      34.656 -15.359 -24.042  0.00  0.00    +0.055 C 
ATOM     10  C   UNL     1      34.253 -14.418 -23.088  0.00  0.00    +0.173 C 
ATOM     11  C   UNL     1      34.973 -18.917 -24.353  0.00  0.00    +0.251 C 
ATOM     12  H   UNL     1      33.079 -18.429 -20.576  0.00  0.00    +0.153 HD
ENDROOT
BRANCH   1  13
ATOM     13  C   UNL     1      34.098 -20.138 -20.271  0.00  0.00    +0.052 C 
ATOM     14  C   UNL     1      35.437 -20.399 -19.962  0.00  0.00    +0.051 C 
ATOM     15  C   UNL     1      33.106 -21.021 -19.833  0.00  0.00    +0.015 C 
ATOM     16  C   UNL     1      35.780 -21.531 -19.223  0.00  0.00    +0.135 C 
ATOM     17  C   UNL     1      33.449 -22.153 -19.094  0.00  0.00    +0.004 C 
ATOM     18  C   UNL     1      34.786 -22.408 -18.789  0.00  0.00    +0.037 C 
BRANCH  16  19
ATOM     19  O   UNL     1      37.085 -21.781 -18.927  0.00  0.00    -0.505 OA
ATOM     20  H   UNL     1      37.317 -22.123 -18.086  0.00  0.00    +0.292 HD
ENDBRANCH  16  19
ENDBRANCH   1  13
BRANCH   8  21
ATOM     21  O   UNL     1      33.421 -13.933 -20.899  0.00  0.00    -0.469 OA
ATOM     22  C   UNL     1      32.118 -13.372 -21.051  0.00  0.00    +0.253 C 
ENDBRANCH   8  21
BRANCH  10  23
ATOM     23  O   UNL     1      34.292 -13.093 -23.401  0.00  0.00    -0.468 OA
ATOM     24  C   UNL     1      33.588 -12.683 -24.571  0.00  0.00    +0.253 C 
ENDBRANCH  10  23
TORSDOF 4
ENDMDL
