MODEL 1
REMARK VINA RESULT:     -10.5      0.000      0.000
REMARK  Name = 4469805
REMARK  4 active torsions:
REMARK  status: ('A' for Active; 'I' for Inactive)
REMARK    1  A    between atoms: C_4  and  C_16
REMARK    2  A    between atoms: C_12  and  O_14
REMARK    3  A    between atoms: C_16  and  O_17
REMARK    4  A    between atoms: O_17  and  C_18
REMARK                            x       y       z     vdW  Elec       q    Type
REMARK                         _______ _______ _______ _____ _____    ______ ____
ROOT
ATOM      1  O   UNL     1      38.138 -23.219 -15.548  0.00  0.00    -0.283 OA
ATOM      2  O   UNL     1      34.679 -24.992 -11.795  0.00  0.00    -0.285 OA
ATOM      3  N   UNL     1      33.748 -23.844 -14.396  0.00  0.00    -0.326 N 
ATOM      4  C   UNL     1      35.120 -23.096 -15.982  0.00  0.00    +0.038 A 
ATOM      5  C   UNL     1      35.898 -23.567 -14.896  0.00  0.00    +0.062 A 
ATOM      6  C   UNL     1      35.024 -24.022 -13.930  0.00  0.00    +0.102 A 
ATOM      7  C   UNL     1      33.795 -23.281 -15.645  0.00  0.00    +0.037 A 
ATOM      8  C   UNL     1      37.331 -23.613 -14.715  0.00  0.00    +0.231 C 
ATOM      9  C   UNL     1      35.432 -24.578 -12.671  0.00  0.00    +0.215 C 
ATOM     10  C   UNL     1      32.568 -22.969 -16.410  0.00  0.00    +0.050 C 
ATOM     11  C   UNL     1      32.534 -24.192 -13.689  0.00  0.00    +0.130 C 
ATOM     12  C   UNL     1      37.771 -24.194 -13.401  0.00  0.00    +0.181 C 
ATOM     13  C   UNL     1      36.910 -24.634 -12.469  0.00  0.00    +0.084 C 
ENDROOT
BRANCH  12  14
ATOM     14  O   UNL     1      39.132 -24.267 -13.167  0.00  0.00    -0.468 OA
ATOM     15  C   UNL     1      39.649 -25.503 -13.616  0.00  0.00    +0.253 C 
ENDBRANCH  12  14
BRANCH   4  16
ATOM     16  C   UNL     1      35.622 -22.517 -17.245  0.00  0.00    +0.233 C 
BRANCH  16  17
ATOM     17  O   UNL     1      34.634 -22.740 -18.249  0.00  0.00    -0.471 OA
BRANCH  17  18
ATOM     18  C   UNL     1      34.477 -21.754 -19.185  0.00  0.00    +0.139 C 
ATOM     19  C   UNL     1      33.201 -21.300 -19.501  0.00  0.00    +0.037 C 
ATOM     20  C   UNL     1      35.594 -21.213 -19.813  0.00  0.00    +0.037 C 
ATOM     21  C   UNL     1      33.040 -20.295 -20.455  0.00  0.00    +0.003 C 
ATOM     22  C   UNL     1      35.435 -20.208 -20.766  0.00  0.00    +0.003 C 
ATOM     23  C   UNL     1      34.157 -19.750 -21.087  0.00  0.00    +0.000 C 
ENDBRANCH  17  18
ENDBRANCH  16  17
ENDBRANCH   4  16
TORSDOF 4
ENDMDL
MODEL 2
REMARK VINA RESULT:     -10.4      6.228     11.279
REMARK  Name = 4469805
REMARK  4 active torsions:
REMARK  status: ('A' for Active; 'I' for Inactive)
REMARK    1  A    between atoms: C_4  and  C_16
REMARK    2  A    between atoms: C_12  and  O_14
REMARK    3  A    between atoms: C_16  and  O_17
REMARK    4  A    between atoms: O_17  and  C_18
REMARK                            x       y       z     vdW  Elec       q    Type
REMARK                         _______ _______ _______ _____ _____    ______ ____
ROOT
ATOM      1  O   UNL     1      33.005 -14.983 -20.055  0.00  0.00    -0.283 OA
ATOM      2  O   UNL     1      33.047 -13.537 -25.261  0.00  0.00    -0.285 OA
ATOM      3  N   UNL     1      34.207 -16.130 -24.324  0.00  0.00    -0.326 N 
ATOM      4  C   UNL     1      34.222 -16.785 -22.196  0.00  0.00    +0.038 A 
ATOM      5  C   UNL     1      33.598 -15.515 -22.275  0.00  0.00    +0.062 A 
ATOM      6  C   UNL     1      33.603 -15.135 -23.601  0.00  0.00    +0.102 A 
ATOM      7  C   UNL     1      34.587 -17.140 -23.478  0.00  0.00    +0.037 A 
ATOM      8  C   UNL     1      33.029 -14.680 -21.241  0.00  0.00    +0.231 C 
ATOM      9  C   UNL     1      33.058 -13.900 -24.089  0.00  0.00    +0.215 C 
ATOM     10  C   UNL     1      35.266 -18.359 -23.969  0.00  0.00    +0.050 C 
ATOM     11  C   UNL     1      34.415 -16.127 -25.757  0.00  0.00    +0.130 C 
ATOM     12  C   UNL     1      32.453 -13.384 -21.739  0.00  0.00    +0.181 C 
ATOM     13  C   UNL     1      32.465 -13.026 -23.034  0.00  0.00    +0.084 C 
ENDROOT
BRANCH  12  14
ATOM     14  O   UNL     1      31.892 -12.540 -20.799  0.00  0.00    -0.468 OA
ATOM     15  C   UNL     1      31.153 -11.514 -21.429  0.00  0.00    +0.253 C 
ENDBRANCH  12  14
BRANCH   4  16
ATOM     16  C   UNL     1      34.443 -17.588 -20.976  0.00  0.00    +0.233 C 
BRANCH  16  17
ATOM     17  O   UNL     1      33.588 -18.727 -21.044  0.00  0.00    -0.471 OA
BRANCH  17  18
ATOM     18  C   UNL     1      34.066 -19.886 -20.497  0.00  0.00    +0.139 C 
ATOM     19  C   UNL     1      35.430 -20.159 -20.540  0.00  0.00    +0.037 C 
ATOM     20  C   UNL     1      33.186 -20.784 -19.901  0.00  0.00    +0.037 C 
ATOM     21  C   UNL     1      35.918 -21.340 -19.983  0.00  0.00    +0.003 C 
ATOM     22  C   UNL     1      33.673 -21.965 -19.343  0.00  0.00    +0.003 C 
ATOM     23  C   UNL     1      35.040 -22.243 -19.385  0.00  0.00    +0.000 C 
ENDBRANCH  17  18
ENDBRANCH  16  17
ENDBRANCH   4  16
TORSDOF 4
ENDMDL
MODEL 3
REMARK VINA RESULT:     -10.2      6.733     11.549
REMARK  Name = 4469805
REMARK  4 active torsions:
REMARK  status: ('A' for Active; 'I' for Inactive)
REMARK    1  A    between atoms: C_4  and  C_16
REMARK    2  A    between atoms: C_12  and  O_14
REMARK    3  A    between atoms: C_16  and  O_17
REMARK    4  A    between atoms: O_17  and  C_18
REMARK                            x       y       z     vdW  Elec       q    Type
REMARK                         _______ _______ _______ _____ _____    ______ ____
ROOT
ATOM      1  O   UNL     1      34.801 -16.718 -25.694  0.00  0.00    -0.283 OA
ATOM      2  O   UNL     1      32.075 -12.876 -23.048  0.00  0.00    -0.285 OA
ATOM      3  N   UNL     1      33.633 -14.990 -21.615  0.00  0.00    -0.326 N 
ATOM      4  C   UNL     1      34.776 -16.599 -22.645  0.00  0.00    +0.038 A 
ATOM      5  C   UNL     1      34.164 -15.780 -23.626  0.00  0.00    +0.062 A 
ATOM      6  C   UNL     1      33.464 -14.795 -22.961  0.00  0.00    +0.102 A 
ATOM      7  C   UNL     1      34.430 -16.086 -21.412  0.00  0.00    +0.037 A 
ATOM      8  C   UNL     1      34.192 -15.860 -25.069  0.00  0.00    +0.231 C 
ATOM      9  C   UNL     1      32.705 -13.765 -23.612  0.00  0.00    +0.215 C 
ATOM     10  C   UNL     1      34.795 -16.548 -20.055  0.00  0.00    +0.050 C 
ATOM     11  C   UNL     1      33.063 -14.173 -20.564  0.00  0.00    +0.130 C 
ATOM     12  C   UNL     1      33.402 -14.786 -25.763  0.00  0.00    +0.181 C 
ATOM     13  C   UNL     1      32.724 -13.832 -25.103  0.00  0.00    +0.084 C 
ENDROOT
BRANCH  12  14
ATOM     14  O   UNL     1      33.389 -14.805 -27.146  0.00  0.00    -0.468 OA
ATOM     15  C   UNL     1      33.472 -13.493 -27.663  0.00  0.00    +0.253 C 
ENDBRANCH  12  14
BRANCH   4  16
ATOM     16  C   UNL     1      35.628 -17.781 -22.885  0.00  0.00    +0.233 C 
BRANCH  16  17
ATOM     17  O   UNL     1      34.776 -18.922 -22.971  0.00  0.00    -0.471 OA
BRANCH  17  18
ATOM     18  C   UNL     1      34.597 -19.641 -21.821  0.00  0.00    +0.139 C 
ATOM     19  C   UNL     1      35.696 -20.204 -21.180  0.00  0.00    +0.037 C 
ATOM     20  C   UNL     1      33.317 -19.805 -21.299  0.00  0.00    +0.037 C 
ATOM     21  C   UNL     1      35.515 -20.937 -20.008  0.00  0.00    +0.003 C 
ATOM     22  C   UNL     1      33.135 -20.538 -20.128  0.00  0.00    +0.003 C 
ATOM     23  C   UNL     1      34.234 -21.105 -19.482  0.00  0.00    +0.000 C 
ENDBRANCH  17  18
ENDBRANCH  16  17
ENDBRANCH   4  16
TORSDOF 4
ENDMDL
MODEL 4
REMARK VINA RESULT:      -9.9      7.131     11.232
REMARK  Name = 4469805
REMARK  4 active torsions:
REMARK  status: ('A' for Active; 'I' for Inactive)
REMARK    1  A    between atoms: C_4  and  C_16
REMARK    2  A    between atoms: C_12  and  O_14
REMARK    3  A    between atoms: C_16  and  O_17
REMARK    4  A    between atoms: O_17  and  C_18
REMARK                            x       y       z     vdW  Elec       q    Type
REMARK                         _______ _______ _______ _____ _____    ______ ____
ROOT
ATOM      1  O   UNL     1      34.995 -16.354 -20.150  0.00  0.00    -0.283 OA
ATOM      2  O   UNL     1      34.840 -18.520 -25.098  0.00  0.00    -0.285 OA
ATOM      3  N   UNL     1      33.795 -15.775 -24.534  0.00  0.00    -0.326 N 
ATOM      4  C   UNL     1      33.829 -14.825 -22.520  0.00  0.00    +0.038 A 
ATOM      5  C   UNL     1      34.400 -16.118 -22.421  0.00  0.00    +0.062 A 
ATOM      6  C   UNL     1      34.365 -16.681 -23.680  0.00  0.00    +0.102 A 
ATOM      7  C   UNL     1      33.464 -14.640 -23.838  0.00  0.00    +0.037 A 
ATOM      8  C   UNL     1      34.946 -16.820 -21.282  0.00  0.00    +0.231 C 
ATOM      9  C   UNL     1      34.856 -17.994 -23.989  0.00  0.00    +0.215 C 
ATOM     10  C   UNL     1      32.829 -13.477 -24.493  0.00  0.00    +0.050 C 
ATOM     11  C   UNL     1      33.571 -15.972 -25.950  0.00  0.00    +0.130 C 
ATOM     12  C   UNL     1      35.464 -18.196 -21.593  0.00  0.00    +0.181 C 
ATOM     13  C   UNL     1      35.425 -18.733 -22.824  0.00  0.00    +0.084 C 
ENDROOT
BRANCH  12  14
ATOM     14  O   UNL     1      36.002 -18.921 -20.545  0.00  0.00    -0.468 OA
ATOM     15  C   UNL     1      35.451 -20.221 -20.504  0.00  0.00    +0.253 C 
ENDBRANCH  12  14
BRANCH   4  16
ATOM     16  C   UNL     1      33.653 -13.849 -21.426  0.00  0.00    +0.233 C 
BRANCH  16  17
ATOM     17  O   UNL     1      32.283 -13.452 -21.412  0.00  0.00    -0.471 OA
BRANCH  17  18
ATOM     18  C   UNL     1      32.017 -12.179 -20.987  0.00  0.00    +0.139 C 
ATOM     19  C   UNL     1      31.798 -11.935 -19.635  0.00  0.00    +0.037 C 
ATOM     20  C   UNL     1      31.967 -11.139 -21.909  0.00  0.00    +0.037 C 
ATOM     21  C   UNL     1      31.527 -10.638 -19.201  0.00  0.00    +0.003 C 
ATOM     22  C   UNL     1      31.697  -9.841 -21.476  0.00  0.00    +0.003 C 
ATOM     23  C   UNL     1      31.476  -9.591 -20.121  0.00  0.00    +0.000 C 
ENDBRANCH  17  18
ENDBRANCH  16  17
ENDBRANCH   4  16
TORSDOF 4
ENDMDL
MODEL 5
REMARK VINA RESULT:      -9.8      2.309      4.996
REMARK  Name = 4469805
REMARK  4 active torsions:
REMARK  status: ('A' for Active; 'I' for Inactive)
REMARK    1  A    between atoms: C_4  and  C_16
REMARK    2  A    between atoms: C_12  and  O_14
REMARK    3  A    between atoms: C_16  and  O_17
REMARK    4  A    between atoms: O_17  and  C_18
REMARK                            x       y       z     vdW  Elec       q    Type
REMARK                         _______ _______ _______ _____ _____    ______ ____
ROOT
ATOM      1  O   UNL     1      31.279 -22.589 -17.968  0.00  0.00    -0.283 OA
ATOM      2  O   UNL     1      31.265 -23.477 -12.638  0.00  0.00    -0.285 OA
ATOM      3  N   UNL     1      33.707 -23.906 -14.312  0.00  0.00    -0.326 N 
ATOM      4  C   UNL     1      33.779 -23.559 -16.510  0.00  0.00    +0.038 A 
ATOM      5  C   UNL     1      32.474 -23.257 -16.047  0.00  0.00    +0.062 A 
ATOM      6  C   UNL     1      32.459 -23.481 -14.686  0.00  0.00    +0.102 A 
ATOM      7  C   UNL     1      34.519 -23.957 -15.416  0.00  0.00    +0.037 A 
ATOM      8  C   UNL     1      31.304 -22.799 -16.761  0.00  0.00    +0.231 C 
ATOM      9  C   UNL     1      31.308 -23.288 -13.849  0.00  0.00    +0.215 C 
ATOM     10  C   UNL     1      35.933 -24.379 -15.329  0.00  0.00    +0.050 C 
ATOM     11  C   UNL     1      34.116 -24.249 -12.967  0.00  0.00    +0.130 C 
ATOM     12  C   UNL     1      30.093 -22.591 -15.896  0.00  0.00    +0.181 C 
ATOM     13  C   UNL     1      30.091 -22.813 -14.572  0.00  0.00    +0.084 C 
ENDROOT
BRANCH  12  14
ATOM     14  O   UNL     1      28.940 -22.151 -16.520  0.00  0.00    -0.468 OA
ATOM     15  C   UNL     1      27.800 -22.492 -15.758  0.00  0.00    +0.253 C 
ENDBRANCH  12  14
BRANCH   4  16
ATOM     16  C   UNL     1      34.267 -23.467 -17.901  0.00  0.00    +0.233 C 
BRANCH  16  17
ATOM     17  O   UNL     1      35.263 -22.447 -17.947  0.00  0.00    -0.471 OA
BRANCH  17  18
ATOM     18  C   UNL     1      35.185 -21.560 -18.985  0.00  0.00    +0.139 C 
ATOM     19  C   UNL     1      33.943 -21.223 -19.514  0.00  0.00    +0.037 C 
ATOM     20  C   UNL     1      36.348 -21.000 -19.504  0.00  0.00    +0.037 C 
ATOM     21  C   UNL     1      33.864 -20.319 -20.572  0.00  0.00    +0.003 C 
ATOM     22  C   UNL     1      36.270 -20.095 -20.563  0.00  0.00    +0.003 C 
ATOM     23  C   UNL     1      35.027 -19.755 -21.097  0.00  0.00    +0.000 C 
ENDBRANCH  17  18
ENDBRANCH  16  17
ENDBRANCH   4  16
TORSDOF 4
ENDMDL
MODEL 6
REMARK VINA RESULT:      -9.8      2.039      4.276
REMARK  Name = 4469805
REMARK  4 active torsions:
REMARK  status: ('A' for Active; 'I' for Inactive)
REMARK    1  A    between atoms: C_4  and  C_16
REMARK    2  A    between atoms: C_12  and  O_14
REMARK    3  A    between atoms: C_16  and  O_17
REMARK    4  A    between atoms: O_17  and  C_18
REMARK                            x       y       z     vdW  Elec       q    Type
REMARK                         _______ _______ _______ _____ _____    ______ ____
ROOT
ATOM      1  O   UNL     1      31.511 -23.211 -17.381  0.00  0.00    -0.283 OA
ATOM      2  O   UNL     1      33.963 -24.090 -12.647  0.00  0.00    -0.285 OA
ATOM      3  N   UNL     1      35.465 -23.174 -15.067  0.00  0.00    -0.326 N 
ATOM      4  C   UNL     1      34.516 -22.794 -17.044  0.00  0.00    +0.038 A 
ATOM      5  C   UNL     1      33.514 -23.212 -16.134  0.00  0.00    +0.062 A 
ATOM      6  C   UNL     1      34.129 -23.441 -14.921  0.00  0.00    +0.102 A 
ATOM      7  C   UNL     1      35.711 -22.779 -16.357  0.00  0.00    +0.037 A 
ATOM      8  C   UNL     1      32.093 -23.403 -16.321  0.00  0.00    +0.231 C 
ATOM      9  C   UNL     1      33.444 -23.881 -13.739  0.00  0.00    +0.215 C 
ATOM     10  C   UNL     1      37.069 -22.419 -16.820  0.00  0.00    +0.050 C 
ATOM     11  C   UNL     1      36.468 -23.287 -14.029  0.00  0.00    +0.130 C 
ATOM     12  C   UNL     1      31.364 -23.863 -15.090  0.00  0.00    +0.181 C 
ATOM     13  C   UNL     1      31.975 -24.082 -13.914  0.00  0.00    +0.084 C 
ENDROOT
BRANCH  12  14
ATOM     14  O   UNL     1      30.000 -24.063 -15.202  0.00  0.00    -0.468 OA
ATOM     15  C   UNL     1      29.658 -25.383 -14.834  0.00  0.00    +0.253 C 
ENDBRANCH  12  14
BRANCH   4  16
ATOM     16  C   UNL     1      34.327 -22.436 -18.465  0.00  0.00    +0.233 C 
BRANCH  16  17
ATOM     17  O   UNL     1      35.542 -21.853 -18.932  0.00  0.00    -0.471 OA
BRANCH  17  18
ATOM     18  C   UNL     1      35.424 -20.805 -19.803  0.00  0.00    +0.139 C 
ATOM     19  C   UNL     1      34.169 -20.447 -20.288  0.00  0.00    +0.037 C 
ATOM     20  C   UNL     1      36.558 -20.103 -20.198  0.00  0.00    +0.037 C 
ATOM     21  C   UNL     1      34.048 -19.379 -21.176  0.00  0.00    +0.003 C 
ATOM     22  C   UNL     1      36.438 -19.035 -21.086  0.00  0.00    +0.003 C 
ATOM     23  C   UNL     1      35.183 -18.673 -21.575  0.00  0.00    +0.000 C 
ENDBRANCH  17  18
ENDBRANCH  16  17
ENDBRANCH   4  16
TORSDOF 4
ENDMDL
MODEL 7
REMARK VINA RESULT:      -9.6     10.755     14.405
REMARK  Name = 4469805
REMARK  4 active torsions:
REMARK  status: ('A' for Active; 'I' for Inactive)
REMARK    1  A    between atoms: C_4  and  C_16
REMARK    2  A    between atoms: C_12  and  O_14
REMARK    3  A    between atoms: C_16  and  O_17
REMARK    4  A    between atoms: O_17  and  C_18
REMARK                            x       y       z     vdW  Elec       q    Type
REMARK                         _______ _______ _______ _____ _____    ______ ____
ROOT
ATOM      1  O   UNL     1      31.651 -12.694 -21.875  0.00  0.00    -0.283 OA
ATOM      2  O   UNL     1      33.087  -7.490 -22.101  0.00  0.00    -0.285 OA
ATOM      3  N   UNL     1      34.080  -9.498 -24.083  0.00  0.00    -0.326 N 
ATOM      4  C   UNL     1      33.527 -11.654 -24.046  0.00  0.00    +0.038 A 
ATOM      5  C   UNL     1      32.879 -11.002 -22.968  0.00  0.00    +0.062 A 
ATOM      6  C   UNL     1      33.240  -9.671 -23.015  0.00  0.00    +0.102 A 
ATOM      7  C   UNL     1      34.262 -10.700 -24.718  0.00  0.00    +0.037 A 
ATOM      8  C   UNL     1      31.993 -11.520 -21.950  0.00  0.00    +0.231 C 
ATOM      9  C   UNL     1      32.785  -8.679 -22.083  0.00  0.00    +0.215 C 
ATOM     10  C   UNL     1      35.121 -10.832 -25.914  0.00  0.00    +0.050 C 
ATOM     11  C   UNL     1      34.686  -8.248 -24.488  0.00  0.00    +0.130 C 
ATOM     12  C   UNL     1      31.509 -10.490 -20.968  0.00  0.00    +0.181 C 
ATOM     13  C   UNL     1      31.867  -9.197 -21.026  0.00  0.00    +0.084 C 
ENDROOT
BRANCH  12  14
ATOM     14  O   UNL     1      30.656 -10.922 -19.969  0.00  0.00    -0.468 OA
ATOM     15  C   UNL     1      31.256 -10.769 -18.700  0.00  0.00    +0.253 C 
ENDBRANCH  12  14
BRANCH   4  16
ATOM     16  C   UNL     1      33.439 -13.087 -24.395  0.00  0.00    +0.233 C 
BRANCH  16  17
ATOM     17  O   UNL     1      34.224 -13.814 -23.453  0.00  0.00    -0.471 OA
BRANCH  17  18
ATOM     18  C   UNL     1      34.413 -15.145 -23.709  0.00  0.00    +0.139 C 
ATOM     19  C   UNL     1      34.031 -15.672 -24.939  0.00  0.00    +0.037 C 
ATOM     20  C   UNL     1      34.984 -15.962 -22.739  0.00  0.00    +0.037 C 
ATOM     21  C   UNL     1      34.224 -17.028 -25.201  0.00  0.00    +0.003 C 
ATOM     22  C   UNL     1      35.177 -17.318 -22.999  0.00  0.00    +0.003 C 
ATOM     23  C   UNL     1      34.796 -17.851 -24.231  0.00  0.00    +0.000 C 
ENDBRANCH  17  18
ENDBRANCH  16  17
ENDBRANCH   4  16
TORSDOF 4
ENDMDL
MODEL 8
REMARK VINA RESULT:      -9.6      2.148      5.844
REMARK  Name = 4469805
REMARK  4 active torsions:
REMARK  status: ('A' for Active; 'I' for Inactive)
REMARK    1  A    between atoms: C_4  and  C_16
REMARK    2  A    between atoms: C_12  and  O_14
REMARK    3  A    between atoms: C_16  and  O_17
REMARK    4  A    between atoms: O_17  and  C_18
REMARK                            x       y       z     vdW  Elec       q    Type
REMARK                         _______ _______ _______ _____ _____    ______ ____
ROOT
ATOM      1  O   UNL     1      32.944 -23.543 -16.974  0.00  0.00    -0.283 OA
ATOM      2  O   UNL     1      37.997 -21.994 -15.852  0.00  0.00    -0.285 OA
ATOM      3  N   UNL     1      36.287 -23.406 -13.844  0.00  0.00    -0.326 N 
ATOM      4  C   UNL     1      34.200 -24.069 -14.243  0.00  0.00    +0.038 A 
ATOM      5  C   UNL     1      34.705 -23.440 -15.407  0.00  0.00    +0.062 A 
ATOM      6  C   UNL     1      35.996 -23.040 -15.132  0.00  0.00    +0.102 A 
ATOM      7  C   UNL     1      35.200 -24.034 -13.293  0.00  0.00    +0.037 A 
ATOM      8  C   UNL     1      34.086 -23.203 -16.692  0.00  0.00    +0.231 C 
ATOM      9  C   UNL     1      36.846 -22.360 -16.067  0.00  0.00    +0.215 C 
ATOM     10  C   UNL     1      35.212 -24.547 -11.906  0.00  0.00    +0.050 C 
ATOM     11  C   UNL     1      37.542 -23.171 -13.162  0.00  0.00    +0.130 C 
ATOM     12  C   UNL     1      34.967 -22.493 -17.681  0.00  0.00    +0.181 C 
ATOM     13  C   UNL     1      36.223 -22.108 -17.400  0.00  0.00    +0.084 C 
ENDROOT
BRANCH  12  14
ATOM     14  O   UNL     1      34.434 -22.237 -18.931  0.00  0.00    -0.468 OA
ATOM     15  C   UNL     1      35.269 -21.360 -19.659  0.00  0.00    +0.253 C 
ENDBRANCH  12  14
BRANCH   4  16
ATOM     16  C   UNL     1      32.856 -24.659 -14.067  0.00  0.00    +0.233 C 
BRANCH  16  17
ATOM     17  O   UNL     1      31.947 -23.595 -13.790  0.00  0.00    -0.471 OA
BRANCH  17  18
ATOM     18  C   UNL     1      30.740 -23.637 -14.433  0.00  0.00    +0.139 C 
ATOM     19  C   UNL     1      30.229 -22.483 -15.018  0.00  0.00    +0.037 C 
ATOM     20  C   UNL     1      30.033 -24.833 -14.497  0.00  0.00    +0.037 C 
ATOM     21  C   UNL     1      28.999 -22.525 -15.673  0.00  0.00    +0.003 C 
ATOM     22  C   UNL     1      28.803 -24.877 -15.152  0.00  0.00    +0.003 C 
ATOM     23  C   UNL     1      28.285 -23.722 -15.739  0.00  0.00    +0.000 C 
ENDBRANCH  17  18
ENDBRANCH  16  17
ENDBRANCH   4  16
TORSDOF 4
ENDMDL
MODEL 9
REMARK VINA RESULT:      -9.4      2.186      6.734
REMARK  Name = 4469805
REMARK  4 active torsions:
REMARK  status: ('A' for Active; 'I' for Inactive)
REMARK    1  A    between atoms: C_4  and  C_16
REMARK    2  A    between atoms: C_12  and  O_14
REMARK    3  A    between atoms: C_16  and  O_17
REMARK    4  A    between atoms: O_17  and  C_18
REMARK                            x       y       z     vdW  Elec       q    Type
REMARK                         _______ _______ _______ _____ _____    ______ ____
ROOT
ATOM      1  O   UNL     1      32.624 -24.080 -13.101  0.00  0.00    -0.283 OA
ATOM      2  O   UNL     1      32.497 -22.708 -18.326  0.00  0.00    -0.285 OA
ATOM      3  N   UNL     1      35.032 -22.676 -16.737  0.00  0.00    -0.326 N 
ATOM      4  C   UNL     1      35.152 -23.229 -14.584  0.00  0.00    +0.038 A 
ATOM      5  C   UNL     1      33.807 -23.358 -15.010  0.00  0.00    +0.062 A 
ATOM      6  C   UNL     1      33.762 -23.009 -16.344  0.00  0.00    +0.102 A 
ATOM      7  C   UNL     1      35.886 -22.807 -15.673  0.00  0.00    +0.037 A 
ATOM      8  C   UNL     1      32.625 -23.764 -14.284  0.00  0.00    +0.231 C 
ATOM      9  C   UNL     1      32.567 -23.011 -17.139  0.00  0.00    +0.215 C 
ATOM     10  C   UNL     1      37.332 -22.518 -15.789  0.00  0.00    +0.050 C 
ATOM     11  C   UNL     1      35.422 -22.252 -18.065  0.00  0.00    +0.130 C 
ATOM     12  C   UNL     1      31.366 -23.771 -15.106  0.00  0.00    +0.181 C 
ATOM     13  C   UNL     1      31.336 -23.429 -16.404  0.00  0.00    +0.084 C 
ENDROOT
BRANCH  12  14
ATOM     14  O   UNL     1      30.199 -24.152 -14.469  0.00  0.00    -0.468 OA
ATOM     15  C   UNL     1      29.785 -25.429 -14.910  0.00  0.00    +0.253 C 
ENDBRANCH  12  14
BRANCH   4  16
ATOM     16  C   UNL     1      35.681 -23.497 -13.231  0.00  0.00    +0.233 C 
BRANCH  16  17
ATOM     17  O   UNL     1      35.970 -24.891 -13.144  0.00  0.00    -0.471 OA
BRANCH  17  18
ATOM     18  C   UNL     1      37.208 -25.289 -13.570  0.00  0.00    +0.139 C 
ATOM     19  C   UNL     1      37.318 -26.222 -14.596  0.00  0.00    +0.037 C 
ATOM     20  C   UNL     1      38.347 -24.758 -12.974  0.00  0.00    +0.037 C 
ATOM     21  C   UNL     1      38.579 -26.627 -15.031  0.00  0.00    +0.003 C 
ATOM     22  C   UNL     1      39.609 -25.163 -13.408  0.00  0.00    +0.003 C 
ATOM     23  C   UNL     1      39.724 -26.098 -14.436  0.00  0.00    +0.000 C 
ENDBRANCH  17  18
ENDBRANCH  16  17
ENDBRANCH   4  16
TORSDOF 4
ENDMDL
