MODEL 1
REMARK VINA RESULT:      -4.5      0.000      0.000
REMARK  Name = 6857549
REMARK  4 active torsions:
REMARK  status: ('A' for Active; 'I' for Inactive)
REMARK    1  A    between atoms: CA_1  and  N_2
REMARK    2  A    between atoms: CA_1  and  C_8
REMARK    3  A    between atoms: CA_1  and  CB_9
REMARK    4  A    between atoms: CB_9  and  OG_10
REMARK                            x       y       z     vdW  Elec       q    Type
REMARK                         _______ _______ _______ _____ _____    ______ ____
ROOT
ATOM      1  CA  SER A   1      38.865 -25.411 -14.271  0.00  0.00    +0.070 C 
ENDROOT
BRANCH   1   2
ATOM      2  N   SER A   1      38.251 -26.772 -14.384  0.00  0.00    +0.391 N 
ATOM      3  H1  SER A   1      38.983 -27.463 -14.548  0.00  0.00    -0.088 HD
ATOM      4  H2  SER A   1      37.592 -26.784 -15.163  0.00  0.00    -0.088 HD
ATOM      5  H3  SER A   1      37.758 -26.996 -13.519  0.00  0.00    -0.088 HD
ENDBRANCH   1   2
BRANCH   1   8
ATOM      6  O   SER A   1      41.085 -24.539 -14.261  0.00  0.00    -0.248 OA
ATOM      7  OXT SER A   1      40.511 -26.099 -15.823  0.00  0.00    -0.248 OA
ATOM      8  C   SER A   1      40.298 -25.343 -14.831  0.00  0.00    +0.347 C 
ENDBRANCH   1   8
BRANCH   1   9
ATOM      9  CB  SER A   1      37.869 -24.426 -14.874  0.00  0.00    +0.126 C 
BRANCH   9  10
ATOM     10  OG  SER A   1      38.532 -23.533 -15.761  0.00  0.00    -0.384 OA
ATOM     11  H   SER A   1      39.409 -23.885 -15.980  0.00  0.00    +0.210 HD
ENDBRANCH   9  10
ENDBRANCH   1   9
TORSDOF 4
ENDMDL
MODEL 2
REMARK VINA RESULT:      -4.4      2.142      3.070
REMARK  Name = 6857549
REMARK  4 active torsions:
REMARK  status: ('A' for Active; 'I' for Inactive)
REMARK    1  A    between atoms: CA_1  and  N_2
REMARK    2  A    between atoms: CA_1  and  C_8
REMARK    3  A    between atoms: CA_1  and  CB_9
REMARK    4  A    between atoms: CB_9  and  OG_10
REMARK                            x       y       z     vdW  Elec       q    Type
REMARK                         _______ _______ _______ _____ _____    ______ ____
ROOT
ATOM      1  CA  SER A   1      38.550 -25.000 -14.725  0.00  0.00    +0.070 C 
ENDROOT
BRANCH   1   2
ATOM      2  N   SER A   1      38.231 -23.839 -15.616  0.00  0.00    +0.391 N 
ATOM      3  H1  SER A   1      38.849 -23.854 -16.428  0.00  0.00    -0.088 HD
ATOM      4  H2  SER A   1      38.368 -22.968 -15.102  0.00  0.00    -0.088 HD
ATOM      5  H3  SER A   1      37.261 -23.902 -15.925  0.00  0.00    -0.088 HD
ENDBRANCH   1   2
BRANCH   1   8
ATOM      6  O   SER A   1      36.510 -25.986 -15.468  0.00  0.00    -0.248 OA
ATOM      7  OXT SER A   1      38.151 -27.328 -14.627  0.00  0.00    -0.248 OA
ATOM      8  C   SER A   1      37.646 -26.221 -14.973  0.00  0.00    +0.347 C 
ENDBRANCH   1   8
BRANCH   1   9
ATOM      9  CB  SER A   1      40.050 -25.249 -14.845  0.00  0.00    +0.126 C 
BRANCH   9  10
ATOM     10  OG  SER A   1      40.343 -25.933 -16.057  0.00  0.00    -0.384 OA
ATOM     11  H   SER A   1      39.525 -26.057 -16.564  0.00  0.00    +0.210 HD
ENDBRANCH   9  10
ENDBRANCH   1   9
TORSDOF 4
ENDMDL
MODEL 3
REMARK VINA RESULT:      -4.3      1.589      1.736
REMARK  Name = 6857549
REMARK  4 active torsions:
REMARK  status: ('A' for Active; 'I' for Inactive)
REMARK    1  A    between atoms: CA_1  and  N_2
REMARK    2  A    between atoms: CA_1  and  C_8
REMARK    3  A    between atoms: CA_1  and  CB_9
REMARK    4  A    between atoms: CB_9  and  OG_10
REMARK                            x       y       z     vdW  Elec       q    Type
REMARK                         _______ _______ _______ _____ _____    ______ ____
ROOT
ATOM      1  CA  SER A   1      38.808 -25.555 -14.549  0.00  0.00    +0.070 C 
ENDROOT
BRANCH   1   2
ATOM      2  N   SER A   1      37.934 -24.562 -15.251  0.00  0.00    +0.391 N 
ATOM      3  H1  SER A   1      37.933 -24.758 -16.252  0.00  0.00    -0.088 HD
ATOM      4  H2  SER A   1      38.291 -23.621 -15.089  0.00  0.00    -0.088 HD
ATOM      5  H3  SER A   1      36.982 -24.632 -14.890  0.00  0.00    -0.088 HD
ENDBRANCH   1   2
BRANCH   1   8
ATOM      6  O   SER A   1      40.978 -24.619 -14.228  0.00  0.00    -0.248 OA
ATOM      7  OXT SER A   1      40.658 -26.134 -15.903  0.00  0.00    -0.248 OA
ATOM      8  C   SER A   1      40.296 -25.423 -14.921  0.00  0.00    +0.347 C 
ENDBRANCH   1   8
BRANCH   1   9
ATOM      9  CB  SER A   1      38.484 -25.455 -13.062  0.00  0.00    +0.126 C 
BRANCH   9  10
ATOM     10  OG  SER A   1      38.738 -24.138 -12.588  0.00  0.00    -0.384 OA
ATOM     11  H   SER A   1      37.960 -23.581 -12.750  0.00  0.00    +0.210 HD
ENDBRANCH   9  10
ENDBRANCH   1   9
TORSDOF 4
ENDMDL
MODEL 4
REMARK VINA RESULT:      -4.3      2.476      3.054
REMARK  Name = 6857549
REMARK  4 active torsions:
REMARK  status: ('A' for Active; 'I' for Inactive)
REMARK    1  A    between atoms: CA_1  and  N_2
REMARK    2  A    between atoms: CA_1  and  C_8
REMARK    3  A    between atoms: CA_1  and  CB_9
REMARK    4  A    between atoms: CB_9  and  OG_10
REMARK                            x       y       z     vdW  Elec       q    Type
REMARK                         _______ _______ _______ _____ _____    ______ ____
ROOT
ATOM      1  CA  SER A   1      36.691 -25.380 -14.565  0.00  0.00    +0.070 C 
ENDROOT
BRANCH   1   2
ATOM      2  N   SER A   1      35.198 -25.330 -14.673  0.00  0.00    +0.391 N 
ATOM      3  H1  SER A   1      34.907 -24.385 -14.924  0.00  0.00    -0.088 HD
ATOM      4  H2  SER A   1      34.784 -25.587 -13.777  0.00  0.00    -0.088 HD
ATOM      5  H3  SER A   1      34.886 -25.985 -15.391  0.00  0.00    -0.088 HD
ENDBRANCH   1   2
BRANCH   1   8
ATOM      6  O   SER A   1      36.659 -27.205 -16.101  0.00  0.00    -0.248 OA
ATOM      7  OXT SER A   1      38.378 -27.036 -14.610  0.00  0.00    -0.248 OA
ATOM      8  C   SER A   1      37.301 -26.663 -15.159  0.00  0.00    +0.347 C 
ENDBRANCH   1   8
BRANCH   1   9
ATOM      9  CB  SER A   1      37.219 -24.068 -15.137  0.00  0.00    +0.126 C 
BRANCH   9  10
ATOM     10  OG  SER A   1      38.623 -24.152 -15.351  0.00  0.00    -0.384 OA
ATOM     11  H   SER A   1      38.993 -23.257 -15.421  0.00  0.00    +0.210 HD
ENDBRANCH   9  10
ENDBRANCH   1   9
TORSDOF 4
ENDMDL
MODEL 5
REMARK VINA RESULT:      -4.3      1.710      1.827
REMARK  Name = 6857549
REMARK  4 active torsions:
REMARK  status: ('A' for Active; 'I' for Inactive)
REMARK    1  A    between atoms: CA_1  and  N_2
REMARK    2  A    between atoms: CA_1  and  C_8
REMARK    3  A    between atoms: CA_1  and  CB_9
REMARK    4  A    between atoms: CB_9  and  OG_10
REMARK                            x       y       z     vdW  Elec       q    Type
REMARK                         _______ _______ _______ _____ _____    ______ ____
ROOT
ATOM      1  CA  SER A   1      38.767 -25.234 -14.175  0.00  0.00    +0.070 C 
ENDROOT
BRANCH   1   2
ATOM      2  N   SER A   1      38.593 -24.725 -12.777  0.00  0.00    +0.391 N 
ATOM      3  H1  SER A   1      37.670 -24.988 -12.433  0.00  0.00    -0.088 HD
ATOM      4  H2  SER A   1      38.680 -23.709 -12.772  0.00  0.00    -0.088 HD
ATOM      5  H3  SER A   1      39.310 -25.131 -12.175  0.00  0.00    -0.088 HD
ENDBRANCH   1   2
BRANCH   1   8
ATOM      6  O   SER A   1      41.063 -24.724 -14.568  0.00  0.00    -0.248 OA
ATOM      7  OXT SER A   1      40.375 -26.896 -14.664  0.00  0.00    -0.248 OA
ATOM      8  C   SER A   1      40.213 -25.653 -14.494  0.00  0.00    +0.347 C 
ENDBRANCH   1   8
BRANCH   1   9
ATOM      9  CB  SER A   1      37.702 -26.305 -14.390  0.00  0.00    +0.126 C 
BRANCH   9  10
ATOM     10  OG  SER A   1      37.557 -26.587 -15.777  0.00  0.00    -0.384 OA
ATOM     11  H   SER A   1      38.401 -26.911 -16.131  0.00  0.00    +0.210 HD
ENDBRANCH   9  10
ENDBRANCH   1   9
TORSDOF 4
ENDMDL
MODEL 6
REMARK VINA RESULT:      -4.2      2.535      3.560
REMARK  Name = 6857549
REMARK  4 active torsions:
REMARK  status: ('A' for Active; 'I' for Inactive)
REMARK    1  A    between atoms: CA_1  and  N_2
REMARK    2  A    between atoms: CA_1  and  C_8
REMARK    3  A    between atoms: CA_1  and  CB_9
REMARK    4  A    between atoms: CB_9  and  OG_10
REMARK                            x       y       z     vdW  Elec       q    Type
REMARK                         _______ _______ _______ _____ _____    ______ ____
ROOT
ATOM      1  CA  SER A   1      37.362 -26.548 -14.110  0.00  0.00    +0.070 C 
ENDROOT
BRANCH   1   2
ATOM      2  N   SER A   1      36.652 -25.968 -12.926  0.00  0.00    +0.391 N 
ATOM      3  H1  SER A   1      35.769 -26.459 -12.785  0.00  0.00    -0.088 HD
ATOM      4  H2  SER A   1      36.466 -24.978 -13.092  0.00  0.00    -0.088 HD
ATOM      5  H3  SER A   1      37.235 -26.069 -12.095  0.00  0.00    -0.088 HD
ENDBRANCH   1   2
BRANCH   1   8
ATOM      6  O   SER A   1      36.746 -27.401 -16.249  0.00  0.00    -0.248 OA
ATOM      7  OXT SER A   1      35.743 -25.503 -15.479  0.00  0.00    -0.248 OA
ATOM      8  C   SER A   1      36.534 -26.487 -15.406  0.00  0.00    +0.347 C 
ENDBRANCH   1   8
BRANCH   1   9
ATOM      9  CB  SER A   1      38.735 -25.886 -14.168  0.00  0.00    +0.126 C 
BRANCH   9  10
ATOM     10  OG  SER A   1      39.258 -25.946 -15.489  0.00  0.00    -0.384 OA
ATOM     11  H   SER A   1      39.668 -26.813 -15.636  0.00  0.00    +0.210 HD
ENDBRANCH   9  10
ENDBRANCH   1   9
TORSDOF 4
ENDMDL
MODEL 7
REMARK VINA RESULT:      -4.1      4.628      5.128
REMARK  Name = 6857549
REMARK  4 active torsions:
REMARK  status: ('A' for Active; 'I' for Inactive)
REMARK    1  A    between atoms: CA_1  and  N_2
REMARK    2  A    between atoms: CA_1  and  C_8
REMARK    3  A    between atoms: CA_1  and  CB_9
REMARK    4  A    between atoms: CB_9  and  OG_10
REMARK                            x       y       z     vdW  Elec       q    Type
REMARK                         _______ _______ _______ _____ _____    ______ ____
ROOT
ATOM      1  CA  SER A   1      35.941 -23.509 -11.933  0.00  0.00    +0.070 C 
ENDROOT
BRANCH   1   2
ATOM      2  N   SER A   1      34.919 -23.497 -13.028  0.00  0.00    +0.391 N 
ATOM      3  H1  SER A   1      33.996 -23.678 -12.633  0.00  0.00    -0.088 HD
ATOM      4  H2  SER A   1      35.144 -24.221 -13.711  0.00  0.00    -0.088 HD
ATOM      5  H3  SER A   1      34.921 -22.585 -13.486  0.00  0.00    -0.088 HD
ENDBRANCH   1   2
BRANCH   1   8
ATOM      6  O   SER A   1      35.294 -24.778 -10.021  0.00  0.00    -0.248 OA
ATOM      7  OXT SER A   1      36.594 -25.759 -11.618  0.00  0.00    -0.248 OA
ATOM      8  C   SER A   1      35.934 -24.809 -11.108  0.00  0.00    +0.347 C 
ENDBRANCH   1   8
BRANCH   1   9
ATOM      9  CB  SER A   1      37.275 -23.136 -12.571  0.00  0.00    +0.126 C 
BRANCH   9  10
ATOM     10  OG  SER A   1      38.308 -23.131 -11.593  0.00  0.00    -0.384 OA
ATOM     11  H   SER A   1      38.016 -23.629 -10.813  0.00  0.00    +0.210 HD
ENDBRANCH   9  10
ENDBRANCH   1   9
TORSDOF 4
ENDMDL
MODEL 8
REMARK VINA RESULT:      -4.1      3.863      4.090
REMARK  Name = 6857549
REMARK  4 active torsions:
REMARK  status: ('A' for Active; 'I' for Inactive)
REMARK    1  A    between atoms: CA_1  and  N_2
REMARK    2  A    between atoms: CA_1  and  C_8
REMARK    3  A    between atoms: CA_1  and  CB_9
REMARK    4  A    between atoms: CB_9  and  OG_10
REMARK                            x       y       z     vdW  Elec       q    Type
REMARK                         _______ _______ _______ _____ _____    ______ ____
ROOT
ATOM      1  CA  SER A   1      36.935 -24.943 -11.971  0.00  0.00    +0.070 C 
ENDROOT
BRANCH   1   2
ATOM      2  N   SER A   1      36.319 -25.496 -13.218  0.00  0.00    +0.391 N 
ATOM      3  H1  SER A   1      35.621 -26.198 -12.970  0.00  0.00    -0.088 HD
ATOM      4  H2  SER A   1      37.043 -25.926 -13.794  0.00  0.00    -0.088 HD
ATOM      5  H3  SER A   1      35.872 -24.742 -13.741  0.00  0.00    -0.088 HD
ENDBRANCH   1   2
BRANCH   1   8
ATOM      6  O   SER A   1      38.296 -23.024 -11.578  0.00  0.00    -0.248 OA
ATOM      7  OXT SER A   1      38.969 -24.568 -13.115  0.00  0.00    -0.248 OA
ATOM      8  C   SER A   1      38.191 -24.094 -12.239  0.00  0.00    +0.347 C 
ENDBRANCH   1   8
BRANCH   1   9
ATOM      9  CB  SER A   1      35.818 -24.250 -11.196  0.00  0.00    +0.126 C 
BRANCH   9  10
ATOM     10  OG  SER A   1      36.157 -24.156  -9.818  0.00  0.00    -0.384 OA
ATOM     11  H   SER A   1      36.306 -23.226  -9.585  0.00  0.00    +0.210 HD
ENDBRANCH   9  10
ENDBRANCH   1   9
TORSDOF 4
ENDMDL
MODEL 9
REMARK VINA RESULT:      -4.1      4.660      5.300
REMARK  Name = 6857549
REMARK  4 active torsions:
REMARK  status: ('A' for Active; 'I' for Inactive)
REMARK    1  A    between atoms: CA_1  and  N_2
REMARK    2  A    between atoms: CA_1  and  C_8
REMARK    3  A    between atoms: CA_1  and  CB_9
REMARK    4  A    between atoms: CB_9  and  OG_10
REMARK                            x       y       z     vdW  Elec       q    Type
REMARK                         _______ _______ _______ _____ _____    ______ ____
ROOT
ATOM      1  CA  SER A   1      35.990 -24.422 -12.437  0.00  0.00    +0.070 C 
ENDROOT
BRANCH   1   2
ATOM      2  N   SER A   1      34.586 -24.660 -12.903  0.00  0.00    +0.391 N 
ATOM      3  H1  SER A   1      34.442 -25.659 -13.048  0.00  0.00    -0.088 HD
ATOM      4  H2  SER A   1      34.430 -24.163 -13.779  0.00  0.00    -0.088 HD
ATOM      5  H3  SER A   1      33.932 -24.320 -12.198  0.00  0.00    -0.088 HD
ENDBRANCH   1   2
BRANCH   1   8
ATOM      6  O   SER A   1      35.336 -24.854 -10.185  0.00  0.00    -0.248 OA
ATOM      7  OXT SER A   1      36.923 -23.269 -10.597  0.00  0.00    -0.248 OA
ATOM      8  C   SER A   1      36.093 -24.165 -10.923  0.00  0.00    +0.347 C 
ENDBRANCH   1   8
BRANCH   1   9
ATOM      9  CB  SER A   1      36.834 -25.574 -12.974  0.00  0.00    +0.126 C 
BRANCH   9  10
ATOM     10  OG  SER A   1      37.078 -26.528 -11.948  0.00  0.00    -0.384 OA
ATOM     11  H   SER A   1      37.871 -26.272 -11.450  0.00  0.00    +0.210 HD
ENDBRANCH   9  10
ENDBRANCH   1   9
TORSDOF 4
ENDMDL
