MODEL 1
REMARK VINA RESULT:      -6.8      0.000      0.000
REMARK  Name = 4099
REMARK  2 active torsions:
REMARK  status: ('A' for Active; 'I' for Inactive)
REMARK    1  A    between atoms: C_6  and  C_12
REMARK    2  A    between atoms: C_6  and  C_14
REMARK                            x       y       z     vdW  Elec       q    Type
REMARK                         _______ _______ _______ _____ _____    ______ ____
ROOT
ATOM      1  O   UNL     1      31.047  -8.477 -23.315  0.00  0.00    -0.274 OA
ATOM      2  O   UNL     1      32.954  -6.489 -19.594  0.00  0.00    -0.274 OA
ATOM      3  O   UNL     1      31.899 -10.941 -19.469  0.00  0.00    -0.252 OA
ATOM      4  N   UNL     1      31.606  -9.816 -21.494  0.00  0.00    -0.212 N 
ATOM      5  N   UNL     1      32.478  -8.733 -19.581  0.00  0.00    -0.239 N 
ATOM      6  C   UNL     1      32.635  -7.588 -21.730  0.00  0.00    +0.138 C 
ATOM      7  C   UNL     1      31.667  -8.642 -22.263  0.00  0.00    +0.240 C 
ATOM      8  C   UNL     1      32.684  -7.518 -20.213  0.00  0.00    +0.237 C 
ATOM      9  C   UNL     1      32.001  -9.914 -20.146  0.00  0.00    +0.316 C 
ATOM     10  C   UNL     1      30.943 -10.975 -22.079  0.00  0.00    +0.124 C 
ATOM     11  H   UNL     1      32.694  -8.766 -18.622  0.00  0.00    +0.159 HD
ENDROOT
BRANCH   6  12
ATOM     12  C   UNL     1      34.044  -7.966 -22.221  0.00  0.00    +0.017 C 
ATOM     13  C   UNL     1      34.332  -7.342 -23.568  0.00  0.00    +0.001 C 
ENDBRANCH   6  12
BRANCH   6  14
ATOM     14  C   UNL     1      32.262  -6.207 -22.293  0.00  0.00    +0.017 C 
ATOM     15  C   UNL     1      30.907  -5.762 -21.789  0.00  0.00    +0.001 C 
ENDBRANCH   6  14
TORSDOF 2
ENDMDL
MODEL 2
REMARK VINA RESULT:      -6.6      8.537     10.632
REMARK  Name = 4099
REMARK  2 active torsions:
REMARK  status: ('A' for Active; 'I' for Inactive)
REMARK    1  A    between atoms: C_6  and  C_12
REMARK    2  A    between atoms: C_6  and  C_14
REMARK                            x       y       z     vdW  Elec       q    Type
REMARK                         _______ _______ _______ _____ _____    ______ ____
ROOT
ATOM      1  O   UNL     1      35.246 -19.694 -23.613  0.00  0.00    -0.274 OA
ATOM      2  O   UNL     1      35.383 -16.756 -20.036  0.00  0.00    -0.274 OA
ATOM      3  O   UNL     1      34.111 -15.221 -24.156  0.00  0.00    -0.252 OA
ATOM      4  N   UNL     1      34.493 -17.513 -23.926  0.00  0.00    -0.212 N 
ATOM      5  N   UNL     1      34.685 -16.028 -22.096  0.00  0.00    -0.239 N 
ATOM      6  C   UNL     1      34.670 -18.425 -21.642  0.00  0.00    +0.138 C 
ATOM      7  C   UNL     1      34.859 -18.622 -23.145  0.00  0.00    +0.240 C 
ATOM      8  C   UNL     1      34.977 -17.014 -21.169  0.00  0.00    +0.237 C 
ATOM      9  C   UNL     1      34.390 -16.193 -23.447  0.00  0.00    +0.316 C 
ATOM     10  C   UNL     1      34.362 -17.712 -25.364  0.00  0.00    +0.124 C 
ATOM     11  H   UNL     1      34.684 -15.102 -21.761  0.00  0.00    +0.159 HD
ENDROOT
BRANCH   6  12
ATOM     12  C   UNL     1      33.190 -18.707 -21.324  0.00  0.00    +0.017 C 
ATOM     13  C   UNL     1      33.038 -20.008 -20.569  0.00  0.00    +0.001 C 
ENDBRANCH   6  12
BRANCH   6  14
ATOM     14  C   UNL     1      35.547 -19.424 -20.871  0.00  0.00    +0.017 C 
ATOM     15  C   UNL     1      37.017 -19.135 -21.085  0.00  0.00    +0.001 C 
ENDBRANCH   6  14
TORSDOF 2
ENDMDL
MODEL 3
REMARK VINA RESULT:      -6.4     17.350     19.147
REMARK  Name = 4099
REMARK  2 active torsions:
REMARK  status: ('A' for Active; 'I' for Inactive)
REMARK    1  A    between atoms: C_6  and  C_12
REMARK    2  A    between atoms: C_6  and  C_14
REMARK                            x       y       z     vdW  Elec       q    Type
REMARK                         _______ _______ _______ _____ _____    ______ ____
ROOT
ATOM      1  O   UNL     1      38.021 -25.367 -11.814  0.00  0.00    -0.274 OA
ATOM      2  O   UNL     1      36.030 -26.232 -15.904  0.00  0.00    -0.274 OA
ATOM      3  O   UNL     1      33.642 -24.061 -12.659  0.00  0.00    -0.252 OA
ATOM      4  N   UNL     1      35.888 -24.525 -12.222  0.00  0.00    -0.212 N 
ATOM      5  N   UNL     1      34.878 -25.087 -14.285  0.00  0.00    -0.239 N 
ATOM      6  C   UNL     1      37.309 -25.214 -14.116  0.00  0.00    +0.138 C 
ATOM      7  C   UNL     1      37.123 -25.073 -12.606  0.00  0.00    +0.240 C 
ATOM      8  C   UNL     1      36.035 -25.593 -14.853  0.00  0.00    +0.237 C 
ATOM      9  C   UNL     1      34.733 -24.506 -13.027  0.00  0.00    +0.316 C 
ATOM     10  C   UNL     1      35.744 -24.085 -10.840  0.00  0.00    +0.124 C 
ATOM     11  H   UNL     1      34.064 -25.144 -14.834  0.00  0.00    +0.159 HD
ENDROOT
BRANCH   6  12
ATOM     12  C   UNL     1      37.765 -23.846 -14.653  0.00  0.00    +0.017 C 
ATOM     13  C   UNL     1      36.823 -23.345 -15.725  0.00  0.00    +0.001 C 
ENDBRANCH   6  12
BRANCH   6  14
ATOM     14  C   UNL     1      38.399 -26.257 -14.411  0.00  0.00    +0.017 C 
ATOM     15  C   UNL     1      39.686 -25.590 -14.844  0.00  0.00    +0.001 C 
ENDBRANCH   6  14
TORSDOF 2
ENDMDL
MODEL 4
REMARK VINA RESULT:      -6.3     16.226     18.315
REMARK  Name = 4099
REMARK  2 active torsions:
REMARK  status: ('A' for Active; 'I' for Inactive)
REMARK    1  A    between atoms: C_6  and  C_12
REMARK    2  A    between atoms: C_6  and  C_14
REMARK                            x       y       z     vdW  Elec       q    Type
REMARK                         _______ _______ _______ _____ _____    ______ ____
ROOT
ATOM      1  O   UNL     1      37.545 -22.866 -14.635  0.00  0.00    -0.274 OA
ATOM      2  O   UNL     1      35.227 -24.978 -11.228  0.00  0.00    -0.274 OA
ATOM      3  O   UNL     1      33.054 -23.956 -15.124  0.00  0.00    -0.252 OA
ATOM      4  N   UNL     1      35.349 -23.538 -15.023  0.00  0.00    -0.212 N 
ATOM      5  N   UNL     1      34.180 -24.515 -13.215  0.00  0.00    -0.239 N 
ATOM      6  C   UNL     1      36.618 -24.539 -13.162  0.00  0.00    +0.138 C 
ATOM      7  C   UNL     1      36.566 -23.547 -14.323  0.00  0.00    +0.240 C 
ATOM      8  C   UNL     1      35.301 -24.677 -12.419  0.00  0.00    +0.237 C 
ATOM      9  C   UNL     1      34.125 -24.012 -14.513  0.00  0.00    +0.316 C 
ATOM     10  C   UNL     1      35.313 -22.848 -16.307  0.00  0.00    +0.124 C 
ATOM     11  H   UNL     1      33.321 -24.787 -12.818  0.00  0.00    +0.159 HD
ENDROOT
BRANCH   6  12
ATOM     12  C   UNL     1      36.963 -25.919 -13.751  0.00  0.00    +0.017 C 
ATOM     13  C   UNL     1      38.455 -26.066 -13.947  0.00  0.00    +0.001 C 
ENDBRANCH   6  12
BRANCH   6  14
ATOM     14  C   UNL     1      37.722 -24.127 -12.174  0.00  0.00    +0.017 C 
ATOM     15  C   UNL     1      37.436 -22.768 -11.576  0.00  0.00    +0.001 C 
ENDBRANCH   6  14
TORSDOF 2
ENDMDL
MODEL 5
REMARK VINA RESULT:      -6.3     17.139     18.930
REMARK  Name = 4099
REMARK  2 active torsions:
REMARK  status: ('A' for Active; 'I' for Inactive)
REMARK    1  A    between atoms: C_6  and  C_12
REMARK    2  A    between atoms: C_6  and  C_14
REMARK                            x       y       z     vdW  Elec       q    Type
REMARK                         _______ _______ _______ _____ _____    ______ ____
ROOT
ATOM      1  O   UNL     1      37.009 -23.879 -15.743  0.00  0.00    -0.274 OA
ATOM      2  O   UNL     1      37.725 -24.732 -11.249  0.00  0.00    -0.274 OA
ATOM      3  O   UNL     1      33.445 -24.207 -12.781  0.00  0.00    -0.252 OA
ATOM      4  N   UNL     1      35.166 -24.206 -14.358  0.00  0.00    -0.212 N 
ATOM      5  N   UNL     1      35.587 -24.532 -12.054  0.00  0.00    -0.239 N 
ATOM      6  C   UNL     1      37.388 -24.990 -13.634  0.00  0.00    +0.138 C 
ATOM      7  C   UNL     1      36.530 -24.284 -14.683  0.00  0.00    +0.240 C 
ATOM      8  C   UNL     1      36.951 -24.718 -12.205  0.00  0.00    +0.237 C 
ATOM      9  C   UNL     1      34.642 -24.324 -13.057  0.00  0.00    +0.316 C 
ATOM     10  C   UNL     1      34.241 -23.819 -15.417  0.00  0.00    +0.124 C 
ATOM     11  H   UNL     1      35.245 -24.548 -11.132  0.00  0.00    +0.159 HD
ENDROOT
BRANCH   6  12
ATOM     12  C   UNL     1      37.258 -26.505 -13.877  0.00  0.00    +0.017 C 
ATOM     13  C   UNL     1      36.770 -26.787 -15.280  0.00  0.00    +0.001 C 
ENDBRANCH   6  12
BRANCH   6  14
ATOM     14  C   UNL     1      38.860 -24.581 -13.805  0.00  0.00    +0.017 C 
ATOM     15  C   UNL     1      39.758 -25.796 -13.876  0.00  0.00    +0.001 C 
ENDBRANCH   6  14
TORSDOF 2
ENDMDL
MODEL 6
REMARK VINA RESULT:      -6.2      9.857     11.563
REMARK  Name = 4099
REMARK  2 active torsions:
REMARK  status: ('A' for Active; 'I' for Inactive)
REMARK    1  A    between atoms: C_6  and  C_12
REMARK    2  A    between atoms: C_6  and  C_14
REMARK                            x       y       z     vdW  Elec       q    Type
REMARK                         _______ _______ _______ _____ _____    ______ ____
ROOT
ATOM      1  O   UNL     1      32.694 -18.820 -20.807  0.00  0.00    -0.274 OA
ATOM      2  O   UNL     1      37.212 -18.330 -21.690  0.00  0.00    -0.274 OA
ATOM      3  O   UNL     1      35.762 -22.001 -19.374  0.00  0.00    -0.252 OA
ATOM      4  N   UNL     1      34.144 -20.542 -20.213  0.00  0.00    -0.212 N 
ATOM      5  N   UNL     1      36.452 -20.193 -20.590  0.00  0.00    -0.239 N 
ATOM      6  C   UNL     1      34.857 -18.867 -21.875  0.00  0.00    +0.138 C 
ATOM      7  C   UNL     1      33.789 -19.374 -20.907  0.00  0.00    +0.240 C 
ATOM      8  C   UNL     1      36.278 -19.065 -21.374  0.00  0.00    +0.237 C 
ATOM      9  C   UNL     1      35.463 -20.997 -20.026  0.00  0.00    +0.316 C 
ATOM     10  C   UNL     1      33.088 -21.251 -19.500  0.00  0.00    +0.124 C 
ATOM     11  H   UNL     1      37.382 -20.459 -20.411  0.00  0.00    +0.159 HD
ENDROOT
BRANCH   6  12
ATOM     12  C   UNL     1      34.713 -19.671 -23.181  0.00  0.00    +0.017 C 
ATOM     13  C   UNL     1      34.612 -18.749 -24.375  0.00  0.00    +0.001 C 
ENDBRANCH   6  12
BRANCH   6  14
ATOM     14  C   UNL     1      34.624 -17.378 -22.176  0.00  0.00    +0.017 C 
ATOM     15  C   UNL     1      34.828 -16.535 -20.937  0.00  0.00    +0.001 C 
ENDBRANCH   6  14
TORSDOF 2
ENDMDL
MODEL 7
REMARK VINA RESULT:      -6.2     15.818     18.009
REMARK  Name = 4099
REMARK  2 active torsions:
REMARK  status: ('A' for Active; 'I' for Inactive)
REMARK    1  A    between atoms: C_6  and  C_12
REMARK    2  A    between atoms: C_6  and  C_14
REMARK                            x       y       z     vdW  Elec       q    Type
REMARK                         _______ _______ _______ _____ _____    ______ ____
ROOT
ATOM      1  O   UNL     1      34.767 -25.103 -14.664  0.00  0.00    -0.274 OA
ATOM      2  O   UNL     1      39.353 -24.481 -14.807  0.00  0.00    -0.274 OA
ATOM      3  O   UNL     1      36.644 -21.804 -17.345  0.00  0.00    -0.252 OA
ATOM      4  N   UNL     1      35.617 -23.316 -15.892  0.00  0.00    -0.212 N 
ATOM      5  N   UNL     1      37.969 -23.109 -16.017  0.00  0.00    -0.239 N 
ATOM      6  C   UNL     1      37.018 -24.386 -14.169  0.00  0.00    +0.138 C 
ATOM      7  C   UNL     1      35.695 -24.337 -14.931  0.00  0.00    +0.240 C 
ATOM      8  C   UNL     1      38.226 -24.037 -15.022  0.00  0.00    +0.237 C 
ATOM      9  C   UNL     1      36.727 -22.668 -16.467  0.00  0.00    +0.316 C 
ATOM     10  C   UNL     1      34.305 -23.013 -16.451  0.00  0.00    +0.124 C 
ATOM     11  H   UNL     1      38.756 -22.716 -16.458  0.00  0.00    +0.159 HD
ENDROOT
BRANCH   6  12
ATOM     12  C   UNL     1      36.935 -23.345 -13.037  0.00  0.00    +0.017 C 
ATOM     13  C   UNL     1      37.650 -23.836 -11.798  0.00  0.00    +0.001 C 
ENDBRANCH   6  12
BRANCH   6  14
ATOM     14  C   UNL     1      37.213 -25.781 -13.553  0.00  0.00    +0.017 C 
ATOM     15  C   UNL     1      37.331 -26.838 -14.629  0.00  0.00    +0.001 C 
ENDBRANCH   6  14
TORSDOF 2
ENDMDL
MODEL 8
REMARK VINA RESULT:      -6.1     16.940     18.266
REMARK  Name = 4099
REMARK  2 active torsions:
REMARK  status: ('A' for Active; 'I' for Inactive)
REMARK    1  A    between atoms: C_6  and  C_12
REMARK    2  A    between atoms: C_6  and  C_14
REMARK                            x       y       z     vdW  Elec       q    Type
REMARK                         _______ _______ _______ _____ _____    ______ ____
ROOT
ATOM      1  O   UNL     1      36.742 -25.758 -15.530  0.00  0.00    -0.274 OA
ATOM      2  O   UNL     1      33.624 -23.780 -12.736  0.00  0.00    -0.274 OA
ATOM      3  O   UNL     1      37.833 -24.635 -11.155  0.00  0.00    -0.252 OA
ATOM      4  N   UNL     1      37.417 -25.064 -13.412  0.00  0.00    -0.212 N 
ATOM      5  N   UNL     1      35.760 -24.158 -11.990  0.00  0.00    -0.239 N 
ATOM      6  C   UNL     1      35.352 -24.144 -14.395  0.00  0.00    +0.138 C 
ATOM      7  C   UNL     1      36.547 -25.087 -14.515  0.00  0.00    +0.240 C 
ATOM      8  C   UNL     1      34.803 -24.032 -12.982  0.00  0.00    +0.237 C 
ATOM      9  C   UNL     1      37.072 -24.607 -12.126  0.00  0.00    +0.316 C 
ATOM     10  C   UNL     1      38.720 -25.701 -13.565  0.00  0.00    +0.124 C 
ATOM     11  H   UNL     1      35.481 -23.899 -11.082  0.00  0.00    +0.159 HD
ENDROOT
BRANCH   6  12
ATOM     12  C   UNL     1      35.828 -22.742 -14.818  0.00  0.00    +0.017 C 
ATOM     13  C   UNL     1      37.067 -22.830 -15.680  0.00  0.00    +0.001 C 
ENDBRANCH   6  12
BRANCH   6  14
ATOM     14  C   UNL     1      34.232 -24.600 -15.344  0.00  0.00    +0.017 C 
ATOM     15  C   UNL     1      33.668 -23.431 -16.120  0.00  0.00    +0.001 C 
ENDBRANCH   6  14
TORSDOF 2
ENDMDL
MODEL 9
REMARK VINA RESULT:      -6.0      1.628      3.212
REMARK  Name = 4099
REMARK  2 active torsions:
REMARK  status: ('A' for Active; 'I' for Inactive)
REMARK    1  A    between atoms: C_6  and  C_12
REMARK    2  A    between atoms: C_6  and  C_14
REMARK                            x       y       z     vdW  Elec       q    Type
REMARK                         _______ _______ _______ _____ _____    ______ ____
ROOT
ATOM      1  O   UNL     1      33.138  -7.654 -20.521  0.00  0.00    -0.274 OA
ATOM      2  O   UNL     1      33.898 -10.025 -24.425  0.00  0.00    -0.274 OA
ATOM      3  O   UNL     1      31.074 -11.750 -21.264  0.00  0.00    -0.252 OA
ATOM      4  N   UNL     1      31.930  -9.609 -20.897  0.00  0.00    -0.212 N 
ATOM      5  N   UNL     1      32.436 -10.835 -22.855  0.00  0.00    -0.239 N 
ATOM      6  C   UNL     1      33.019  -8.467 -22.791  0.00  0.00    +0.138 C 
ATOM      7  C   UNL     1      32.734  -8.527 -21.291  0.00  0.00    +0.240 C 
ATOM      8  C   UNL     1      33.196  -9.833 -23.433  0.00  0.00    +0.237 C 
ATOM      9  C   UNL     1      31.747 -10.788 -21.645  0.00  0.00    +0.316 C 
ATOM     10  C   UNL     1      31.371  -9.581 -19.551  0.00  0.00    +0.124 C 
ATOM     11  H   UNL     1      32.374 -11.679 -23.358  0.00  0.00    +0.159 HD
ENDROOT
BRANCH   6  12
ATOM     12  C   UNL     1      31.808  -7.795 -23.463  0.00  0.00    +0.017 C 
ATOM     13  C   UNL     1      31.202  -6.745 -22.558  0.00  0.00    +0.001 C 
ENDBRANCH   6  12
BRANCH   6  14
ATOM     14  C   UNL     1      34.272  -7.615 -23.049  0.00  0.00    +0.017 C 
ATOM     15  C   UNL     1      34.171  -6.885 -24.369  0.00  0.00    +0.001 C 
ENDBRANCH   6  14
TORSDOF 2
ENDMDL
