MODEL 1
REMARK VINA RESULT:      -8.7      0.000      0.000
REMARK  Name = 446948
REMARK  3 active torsions:
REMARK  status: ('A' for Active; 'I' for Inactive)
REMARK    1  A    between atoms: C_1  and  C_9
REMARK    2  A    between atoms: C_2  and  O_15
REMARK    3  A    between atoms: C_4  and  O_17
REMARK                            x       y       z     vdW  Elec       q    Type
REMARK                         _______ _______ _______ _____ _____    ______ ____
ROOT
ATOM      1  C   UNL     1      34.596 -19.000 -21.521  0.00  0.00    +0.038 C 
ATOM      2  C   UNL     1      35.751 -19.544 -20.959  0.00  0.00    +0.167 C 
ATOM      3  C   UNL     1      33.345 -19.512 -21.178  0.00  0.00    +0.003 C 
ATOM      4  C   UNL     1      35.655 -20.601 -20.054  0.00  0.00    +0.167 C 
ATOM      5  C   UNL     1      33.249 -20.569 -20.273  0.00  0.00    +0.003 C 
ATOM      6  C   UNL     1      34.404 -21.114 -19.710  0.00  0.00    +0.040 C 
ENDROOT
BRANCH   1   9
ATOM      7 CL   UNL     1      34.547 -16.191 -20.323  0.00  0.00    -0.082 Cl
ATOM      8 CL   UNL     1      34.786 -19.765 -24.472  0.00  0.00    -0.082 Cl
ATOM      9  C   UNL     1      34.673 -17.901 -22.463  0.00  0.00    +0.024 C 
ATOM     10  C   UNL     1      34.658 -16.581 -22.006  0.00  0.00    +0.059 C 
ATOM     11  C   UNL     1      34.763 -18.156 -23.835  0.00  0.00    +0.059 C 
ATOM     12  C   UNL     1      34.731 -15.523 -22.914  0.00  0.00    +0.011 C 
ATOM     13  C   UNL     1      34.835 -17.098 -24.741  0.00  0.00    +0.011 C 
ATOM     14  C   UNL     1      34.820 -15.782 -24.281  0.00  0.00    +0.002 C 
ENDBRANCH   1   9
BRANCH   2  15
ATOM     15  O   UNL     1      36.982 -19.053 -21.286  0.00  0.00    -0.503 OA
ATOM     16  H   UNL     1      37.461 -18.538 -20.666  0.00  0.00    +0.292 HD
ENDBRANCH   2  15
BRANCH   4  17
ATOM     17  O   UNL     1      36.774 -21.142 -19.497  0.00  0.00    -0.503 OA
ATOM     18  H   UNL     1      36.912 -22.069 -19.528  0.00  0.00    +0.292 HD
ENDBRANCH   4  17
TORSDOF 3
ENDMDL
MODEL 2
REMARK VINA RESULT:      -8.7      0.001      2.283
REMARK  Name = 446948
REMARK  3 active torsions:
REMARK  status: ('A' for Active; 'I' for Inactive)
REMARK    1  A    between atoms: C_1  and  C_9
REMARK    2  A    between atoms: C_2  and  O_15
REMARK    3  A    between atoms: C_4  and  O_17
REMARK                            x       y       z     vdW  Elec       q    Type
REMARK                         _______ _______ _______ _____ _____    ______ ____
ROOT
ATOM      1  C   UNL     1      34.596 -19.001 -21.522  0.00  0.00    +0.038 C 
ATOM      2  C   UNL     1      35.751 -19.545 -20.958  0.00  0.00    +0.167 C 
ATOM      3  C   UNL     1      33.345 -19.514 -21.179  0.00  0.00    +0.003 C 
ATOM      4  C   UNL     1      35.655 -20.601 -20.053  0.00  0.00    +0.167 C 
ATOM      5  C   UNL     1      33.249 -20.570 -20.273  0.00  0.00    +0.003 C 
ATOM      6  C   UNL     1      34.404 -21.114 -19.710  0.00  0.00    +0.040 C 
ENDROOT
BRANCH   1   9
ATOM      7 CL   UNL     1      34.787 -19.766 -24.472  0.00  0.00    -0.082 Cl
ATOM      8 CL   UNL     1      34.549 -16.192 -20.323  0.00  0.00    -0.082 Cl
ATOM      9  C   UNL     1      34.673 -17.903 -22.464  0.00  0.00    +0.024 C 
ATOM     10  C   UNL     1      34.762 -18.157 -23.835  0.00  0.00    +0.059 C 
ATOM     11  C   UNL     1      34.657 -16.582 -22.006  0.00  0.00    +0.059 C 
ATOM     12  C   UNL     1      34.836 -17.099 -24.741  0.00  0.00    +0.011 C 
ATOM     13  C   UNL     1      34.732 -15.524 -22.913  0.00  0.00    +0.011 C 
ATOM     14  C   UNL     1      34.821 -15.783 -24.281  0.00  0.00    +0.002 C 
ENDBRANCH   1   9
BRANCH   2  15
ATOM     15  O   UNL     1      36.982 -19.053 -21.285  0.00  0.00    -0.503 OA
ATOM     16  H   UNL     1      37.516 -19.503 -21.910  0.00  0.00    +0.292 HD
ENDBRANCH   2  15
BRANCH   4  17
ATOM     17  O   UNL     1      36.774 -21.143 -19.495  0.00  0.00    -0.503 OA
ATOM     18  H   UNL     1      37.157 -21.913 -19.867  0.00  0.00    +0.292 HD
ENDBRANCH   4  17
TORSDOF 3
ENDMDL
MODEL 3
REMARK VINA RESULT:      -8.6      2.238      4.970
REMARK  Name = 446948
REMARK  3 active torsions:
REMARK  status: ('A' for Active; 'I' for Inactive)
REMARK    1  A    between atoms: C_1  and  C_9
REMARK    2  A    between atoms: C_2  and  O_15
REMARK    3  A    between atoms: C_4  and  O_17
REMARK                            x       y       z     vdW  Elec       q    Type
REMARK                         _______ _______ _______ _____ _____    ______ ____
ROOT
ATOM      1  C   UNL     1      34.870 -18.303 -21.891  0.00  0.00    +0.038 C 
ATOM      2  C   UNL     1      34.845 -18.445 -23.279  0.00  0.00    +0.167 C 
ATOM      3  C   UNL     1      34.761 -17.035 -21.318  0.00  0.00    +0.003 C 
ATOM      4  C   UNL     1      34.710 -17.321 -24.093  0.00  0.00    +0.167 C 
ATOM      5  C   UNL     1      34.626 -15.911 -22.133  0.00  0.00    +0.003 C 
ATOM      6  C   UNL     1      34.600 -16.054 -23.520  0.00  0.00    +0.040 C 
ENDROOT
BRANCH   1   9
ATOM      7 CL   UNL     1      37.727 -19.159 -21.232  0.00  0.00    -0.082 Cl
ATOM      8 CL   UNL     1      32.271 -19.594 -20.941  0.00  0.00    -0.082 Cl
ATOM      9  C   UNL     1      35.009 -19.457 -21.026  0.00  0.00    +0.024 C 
ATOM     10  C   UNL     1      36.278 -19.921 -20.670  0.00  0.00    +0.059 C 
ATOM     11  C   UNL     1      33.873 -20.112 -20.542  0.00  0.00    +0.059 C 
ATOM     12  C   UNL     1      36.410 -21.032 -19.837  0.00  0.00    +0.011 C 
ATOM     13  C   UNL     1      34.006 -21.224 -19.709  0.00  0.00    +0.011 C 
ATOM     14  C   UNL     1      35.275 -21.683 -19.356  0.00  0.00    +0.002 C 
ENDBRANCH   1   9
BRANCH   2  15
ATOM     15  O   UNL     1      34.951 -19.679 -23.853  0.00  0.00    -0.503 OA
ATOM     16  H   UNL     1      34.192 -20.220 -23.946  0.00  0.00    +0.292 HD
ENDBRANCH   2  15
BRANCH   4  17
ATOM     17  O   UNL     1      34.683 -17.445 -25.450  0.00  0.00    -0.503 OA
ATOM     18  H   UNL     1      35.197 -16.870 -25.983  0.00  0.00    +0.292 HD
ENDBRANCH   4  17
TORSDOF 3
ENDMDL
MODEL 4
REMARK VINA RESULT:      -8.6      2.237      4.953
REMARK  Name = 446948
REMARK  3 active torsions:
REMARK  status: ('A' for Active; 'I' for Inactive)
REMARK    1  A    between atoms: C_1  and  C_9
REMARK    2  A    between atoms: C_2  and  O_15
REMARK    3  A    between atoms: C_4  and  O_17
REMARK                            x       y       z     vdW  Elec       q    Type
REMARK                         _______ _______ _______ _____ _____    ______ ____
ROOT
ATOM      1  C   UNL     1      34.871 -18.302 -21.889  0.00  0.00    +0.038 C 
ATOM      2  C   UNL     1      34.845 -18.444 -23.277  0.00  0.00    +0.167 C 
ATOM      3  C   UNL     1      34.762 -17.035 -21.316  0.00  0.00    +0.003 C 
ATOM      4  C   UNL     1      34.711 -17.319 -24.091  0.00  0.00    +0.167 C 
ATOM      5  C   UNL     1      34.627 -15.911 -22.130  0.00  0.00    +0.003 C 
ATOM      6  C   UNL     1      34.602 -16.052 -23.518  0.00  0.00    +0.040 C 
ENDROOT
BRANCH   1   9
ATOM      7 CL   UNL     1      32.271 -19.591 -20.936  0.00  0.00    -0.082 Cl
ATOM      8 CL   UNL     1      37.727 -19.160 -21.233  0.00  0.00    -0.082 Cl
ATOM      9  C   UNL     1      35.009 -19.456 -21.024  0.00  0.00    +0.024 C 
ATOM     10  C   UNL     1      33.873 -20.112 -20.540  0.00  0.00    +0.059 C 
ATOM     11  C   UNL     1      36.278 -19.922 -20.670  0.00  0.00    +0.059 C 
ATOM     12  C   UNL     1      34.007 -21.223 -19.707  0.00  0.00    +0.011 C 
ATOM     13  C   UNL     1      36.411 -21.033 -19.837  0.00  0.00    +0.011 C 
ATOM     14  C   UNL     1      35.275 -21.684 -19.356  0.00  0.00    +0.002 C 
ENDBRANCH   1   9
BRANCH   2  15
ATOM     15  O   UNL     1      34.951 -19.678 -23.852  0.00  0.00    -0.503 OA
ATOM     16  H   UNL     1      35.796 -20.050 -24.010  0.00  0.00    +0.292 HD
ENDBRANCH   2  15
BRANCH   4  17
ATOM     17  O   UNL     1      34.685 -17.443 -25.447  0.00  0.00    -0.503 OA
ATOM     18  H   UNL     1      35.389 -17.102 -25.963  0.00  0.00    +0.292 HD
ENDBRANCH   4  17
TORSDOF 3
ENDMDL
MODEL 5
REMARK VINA RESULT:      -8.4      1.486      1.926
REMARK  Name = 446948
REMARK  3 active torsions:
REMARK  status: ('A' for Active; 'I' for Inactive)
REMARK    1  A    between atoms: C_1  and  C_9
REMARK    2  A    between atoms: C_2  and  O_15
REMARK    3  A    between atoms: C_4  and  O_17
REMARK                            x       y       z     vdW  Elec       q    Type
REMARK                         _______ _______ _______ _____ _____    ______ ____
ROOT
ATOM      1  C   UNL     1      35.025 -19.003 -21.478  0.00  0.00    +0.038 C 
ATOM      2  C   UNL     1      33.943 -19.716 -20.961  0.00  0.00    +0.167 C 
ATOM      3  C   UNL     1      36.323 -19.311 -21.069  0.00  0.00    +0.003 C 
ATOM      4  C   UNL     1      34.158 -20.737 -20.035  0.00  0.00    +0.167 C 
ATOM      5  C   UNL     1      36.538 -20.332 -20.143  0.00  0.00    +0.003 C 
ATOM      6  C   UNL     1      35.456 -21.045 -19.626  0.00  0.00    +0.040 C 
ENDROOT
BRANCH   1   9
ATOM      7 CL   UNL     1      34.745 -16.185 -20.337  0.00  0.00    -0.082 Cl
ATOM      8 CL   UNL     1      34.932 -19.844 -24.413  0.00  0.00    -0.082 Cl
ATOM      9  C   UNL     1      34.825 -17.940 -22.442  0.00  0.00    +0.024 C 
ATOM     10  C   UNL     1      34.687 -16.617 -22.011  0.00  0.00    +0.059 C 
ATOM     11  C   UNL     1      34.769 -18.230 -23.808  0.00  0.00    +0.059 C 
ATOM     12  C   UNL     1      34.494 -15.594 -22.940  0.00  0.00    +0.011 C 
ATOM     13  C   UNL     1      34.576 -17.206 -24.736  0.00  0.00    +0.011 C 
ATOM     14  C   UNL     1      34.439 -15.888 -24.301  0.00  0.00    +0.002 C 
ENDBRANCH   1   9
BRANCH   2  15
ATOM     15  O   UNL     1      32.668 -19.426 -21.353  0.00  0.00    -0.503 OA
ATOM     16  H   UNL     1      32.396 -19.601 -22.232  0.00  0.00    +0.292 HD
ENDBRANCH   2  15
BRANCH   4  17
ATOM     17  O   UNL     1      33.111 -21.442 -19.522  0.00  0.00    -0.503 OA
ATOM     18  H   UNL     1      33.097 -22.376 -19.592  0.00  0.00    +0.292 HD
ENDBRANCH   4  17
TORSDOF 3
ENDMDL
MODEL 6
REMARK VINA RESULT:      -7.6      4.231      6.676
REMARK  Name = 446948
REMARK  3 active torsions:
REMARK  status: ('A' for Active; 'I' for Inactive)
REMARK    1  A    between atoms: C_1  and  C_9
REMARK    2  A    between atoms: C_2  and  O_15
REMARK    3  A    between atoms: C_4  and  O_17
REMARK                            x       y       z     vdW  Elec       q    Type
REMARK                         _______ _______ _______ _____ _____    ______ ____
ROOT
ATOM      1  C   UNL     1      33.388 -13.425 -23.425  0.00  0.00    +0.038 C 
ATOM      2  C   UNL     1      32.320 -13.224 -22.550  0.00  0.00    +0.167 C 
ATOM      3  C   UNL     1      33.982 -12.336 -24.062  0.00  0.00    +0.003 C 
ATOM      4  C   UNL     1      31.845 -11.935 -22.313  0.00  0.00    +0.167 C 
ATOM      5  C   UNL     1      33.507 -11.046 -23.825  0.00  0.00    +0.003 C 
ATOM      6  C   UNL     1      32.439 -10.845 -22.950  0.00  0.00    +0.040 C 
ENDROOT
BRANCH   1   9
ATOM      7 CL   UNL     1      34.939 -14.745 -21.148  0.00  0.00    -0.082 Cl
ATOM      8 CL   UNL     1      32.787 -14.582 -26.187  0.00  0.00    -0.082 Cl
ATOM      9  C   UNL     1      33.898 -14.756 -23.685  0.00  0.00    +0.024 C 
ATOM     10  C   UNL     1      34.619 -15.438 -22.701  0.00  0.00    +0.059 C 
ATOM     11  C   UNL     1      33.671 -15.367 -24.922  0.00  0.00    +0.059 C 
ATOM     12  C   UNL     1      35.110 -16.720 -22.953  0.00  0.00    +0.011 C 
ATOM     13  C   UNL     1      34.163 -16.648 -25.173  0.00  0.00    +0.011 C 
ATOM     14  C   UNL     1      34.882 -17.325 -24.188  0.00  0.00    +0.002 C 
ENDBRANCH   1   9
BRANCH   2  15
ATOM     15  O   UNL     1      31.729 -14.282 -21.919  0.00  0.00    -0.503 OA
ATOM     16  H   UNL     1      31.572 -15.078 -22.387  0.00  0.00    +0.292 HD
ENDBRANCH   2  15
BRANCH   4  17
ATOM     17  O   UNL     1      30.803 -11.724 -21.461  0.00  0.00    -0.503 OA
ATOM     18  H   UNL     1      29.944 -12.020 -21.690  0.00  0.00    +0.292 HD
ENDBRANCH   4  17
TORSDOF 3
ENDMDL
MODEL 7
REMARK VINA RESULT:      -7.5      4.104      6.808
REMARK  Name = 446948
REMARK  3 active torsions:
REMARK  status: ('A' for Active; 'I' for Inactive)
REMARK    1  A    between atoms: C_1  and  C_9
REMARK    2  A    between atoms: C_2  and  O_15
REMARK    3  A    between atoms: C_4  and  O_17
REMARK                            x       y       z     vdW  Elec       q    Type
REMARK                         _______ _______ _______ _____ _____    ______ ____
ROOT
ATOM      1  C   UNL     1      33.445 -13.628 -23.497  0.00  0.00    +0.038 C 
ATOM      2  C   UNL     1      32.388 -13.407 -22.613  0.00  0.00    +0.167 C 
ATOM      3  C   UNL     1      34.032 -12.554 -24.165  0.00  0.00    +0.003 C 
ATOM      4  C   UNL     1      31.920 -12.111 -22.397  0.00  0.00    +0.167 C 
ATOM      5  C   UNL     1      33.563 -11.258 -23.949  0.00  0.00    +0.003 C 
ATOM      6  C   UNL     1      32.507 -11.036 -23.065  0.00  0.00    +0.040 C 
ENDROOT
BRANCH   1   9
ATOM      7 CL   UNL     1      32.853 -14.821 -26.246  0.00  0.00    -0.082 Cl
ATOM      8 CL   UNL     1      34.972 -14.925 -21.192  0.00  0.00    -0.082 Cl
ATOM      9  C   UNL     1      33.948 -14.966 -23.736  0.00  0.00    +0.024 C 
ATOM     10  C   UNL     1      33.726 -15.592 -24.966  0.00  0.00    +0.059 C 
ATOM     11  C   UNL     1      34.660 -15.638 -22.738  0.00  0.00    +0.059 C 
ATOM     12  C   UNL     1      34.211 -16.880 -25.195  0.00  0.00    +0.011 C 
ATOM     13  C   UNL     1      35.144 -16.926 -22.968  0.00  0.00    +0.011 C 
ATOM     14  C   UNL     1      34.920 -17.546 -24.197  0.00  0.00    +0.002 C 
ENDBRANCH   1   9
BRANCH   2  15
ATOM     15  O   UNL     1      31.804 -14.449 -21.952  0.00  0.00    -0.503 OA
ATOM     16  H   UNL     1      32.048 -15.330 -22.158  0.00  0.00    +0.292 HD
ENDBRANCH   2  15
BRANCH   4  17
ATOM     17  O   UNL     1      30.889 -11.880 -21.536  0.00  0.00    -0.503 OA
ATOM     18  H   UNL     1      30.677 -12.513 -20.879  0.00  0.00    +0.292 HD
ENDBRANCH   4  17
TORSDOF 3
ENDMDL
MODEL 8
REMARK VINA RESULT:      -7.4      9.079     11.411
REMARK  Name = 446948
REMARK  3 active torsions:
REMARK  status: ('A' for Active; 'I' for Inactive)
REMARK    1  A    between atoms: C_1  and  C_9
REMARK    2  A    between atoms: C_2  and  O_15
REMARK    3  A    between atoms: C_4  and  O_17
REMARK                            x       y       z     vdW  Elec       q    Type
REMARK                         _______ _______ _______ _____ _____    ______ ____
ROOT
ATOM      1  C   UNL     1      32.618  -7.998 -22.362  0.00  0.00    +0.038 C 
ATOM      2  C   UNL     1      31.705  -7.111 -22.934  0.00  0.00    +0.167 C 
ATOM      3  C   UNL     1      32.945  -7.887 -21.010  0.00  0.00    +0.003 C 
ATOM      4  C   UNL     1      31.120  -6.114 -22.154  0.00  0.00    +0.167 C 
ATOM      5  C   UNL     1      32.359  -6.890 -20.231  0.00  0.00    +0.003 C 
ATOM      6  C   UNL     1      31.446  -6.003 -20.803  0.00  0.00    +0.040 C 
ENDROOT
BRANCH   1   9
ATOM      7 CL   UNL     1      35.099  -7.194 -23.951  0.00  0.00    -0.082 Cl
ATOM      8 CL   UNL     1      31.289 -10.745 -22.244  0.00  0.00    -0.082 Cl
ATOM      9  C   UNL     1      33.238  -9.042 -23.153  0.00  0.00    +0.024 C 
ATOM     10  C   UNL     1      34.378  -8.767 -23.912  0.00  0.00    +0.059 C 
ATOM     11  C   UNL     1      32.699 -10.332 -23.160  0.00  0.00    +0.059 C 
ATOM     12  C   UNL     1      34.974  -9.773 -24.673  0.00  0.00    +0.011 C 
ATOM     13  C   UNL     1      33.295 -11.338 -23.922  0.00  0.00    +0.011 C 
ATOM     14  C   UNL     1      34.433 -11.058 -24.678  0.00  0.00    +0.002 C 
ENDBRANCH   1   9
BRANCH   2  15
ATOM     15  O   UNL     1      31.376  -7.208 -24.255  0.00  0.00    -0.503 OA
ATOM     16  H   UNL     1      31.085  -8.026 -24.607  0.00  0.00    +0.292 HD
ENDBRANCH   2  15
BRANCH   4  17
ATOM     17  O   UNL     1      30.227  -5.241 -22.699  0.00  0.00    -0.503 OA
ATOM     18  H   UNL     1      29.342  -5.511 -22.854  0.00  0.00    +0.292 HD
ENDBRANCH   4  17
TORSDOF 3
ENDMDL
MODEL 9
REMARK VINA RESULT:      -7.4      9.079     11.446
REMARK  Name = 446948
REMARK  3 active torsions:
REMARK  status: ('A' for Active; 'I' for Inactive)
REMARK    1  A    between atoms: C_1  and  C_9
REMARK    2  A    between atoms: C_2  and  O_15
REMARK    3  A    between atoms: C_4  and  O_17
REMARK                            x       y       z     vdW  Elec       q    Type
REMARK                         _______ _______ _______ _____ _____    ______ ____
ROOT
ATOM      1  C   UNL     1      32.617  -7.998 -22.360  0.00  0.00    +0.038 C 
ATOM      2  C   UNL     1      31.706  -7.110 -22.933  0.00  0.00    +0.167 C 
ATOM      3  C   UNL     1      32.943  -7.888 -21.009  0.00  0.00    +0.003 C 
ATOM      4  C   UNL     1      31.120  -6.112 -22.154  0.00  0.00    +0.167 C 
ATOM      5  C   UNL     1      32.358  -6.890 -20.230  0.00  0.00    +0.003 C 
ATOM      6  C   UNL     1      31.446  -6.002 -20.802  0.00  0.00    +0.040 C 
ENDROOT
BRANCH   1   9
ATOM      7 CL   UNL     1      31.288 -10.745 -22.242  0.00  0.00    -0.082 Cl
ATOM      8 CL   UNL     1      35.099  -7.195 -23.948  0.00  0.00    -0.082 Cl
ATOM      9  C   UNL     1      33.236  -9.043 -23.151  0.00  0.00    +0.024 C 
ATOM     10  C   UNL     1      32.697 -10.332 -23.159  0.00  0.00    +0.059 C 
ATOM     11  C   UNL     1      34.377  -8.767 -23.911  0.00  0.00    +0.059 C 
ATOM     12  C   UNL     1      33.294 -11.338 -23.920  0.00  0.00    +0.011 C 
ATOM     13  C   UNL     1      34.973  -9.774 -24.671  0.00  0.00    +0.011 C 
ATOM     14  C   UNL     1      34.431 -11.058 -24.676  0.00  0.00    +0.002 C 
ENDBRANCH   1   9
BRANCH   2  15
ATOM     15  O   UNL     1      31.377  -7.206 -24.254  0.00  0.00    -0.503 OA
ATOM     16  H   UNL     1      31.754  -6.615 -24.875  0.00  0.00    +0.292 HD
ENDBRANCH   2  15
BRANCH   4  17
ATOM     17  O   UNL     1      30.229  -5.238 -22.699  0.00  0.00    -0.503 OA
ATOM     18  H   UNL     1      29.760  -4.643 -22.148  0.00  0.00    +0.292 HD
ENDBRANCH   4  17
TORSDOF 3
ENDMDL
