MODEL 1
REMARK VINA RESULT:      -9.6      0.000      0.000
REMARK  Name = 11198924
REMARK  5 active torsions:
REMARK  status: ('A' for Active; 'I' for Inactive)
REMARK    1  A    between atoms: C_5  and  C_11
REMARK    2  A    between atoms: C_6  and  C_14
REMARK    3  A    between atoms: C_11  and  C_12
REMARK    4  A    between atoms: C_14  and  N_15
REMARK    5  A    between atoms: C_17  and  C_22
REMARK                            x       y       z     vdW  Elec       q    Type
REMARK                         _______ _______ _______ _____ _____    ______ ____
ROOT
ATOM      1  N   UNL     1      33.007 -13.728 -22.204  0.00  0.00    -0.153 N 
ATOM      2  N   UNL     1      31.763 -11.905 -21.531  0.00  0.00    -0.253 NA
ATOM      3  N   UNL     1      34.252 -14.007 -23.972  0.00  0.00    -0.341 NA
ATOM      4  N   UNL     1      33.469 -14.976 -22.047  0.00  0.00    -0.113 NA
ATOM      5  C   UNL     1      33.042 -11.815 -23.612  0.00  0.00    +0.107 C 
ATOM      6  C   UNL     1      32.202 -11.264 -22.689  0.00  0.00    +0.062 C 
ATOM      7  C   UNL     1      33.472 -13.151 -23.348  0.00  0.00    +0.197 C 
ATOM      8  C   UNL     1      32.166 -13.116 -21.306  0.00  0.00    +0.243 C 
ATOM      9  C   UNL     1      34.220 -15.099 -23.146  0.00  0.00    +0.082 C 
ATOM     10  C   UNL     1      34.962 -16.327 -23.448  0.00  0.00    +0.131 C 
ENDROOT
BRANCH   5  11
ATOM     11  C   UNL     1      33.522 -11.064 -24.832  0.00  0.00    +0.014 C 
BRANCH  11  12
ATOM     12  C   UNL     1      34.909 -10.482 -24.610  0.00  0.00    +0.001 C 
ATOM     13  C   UNL     1      35.634 -10.296 -25.934  0.00  0.00    +0.000 C 
ENDBRANCH  11  12
ENDBRANCH   5  11
BRANCH   6  14
ATOM     14  C   UNL     1      31.615  -9.883 -22.836  0.00  0.00    +0.138 C 
BRANCH  14  15
ATOM     15  N   UNL     1      32.005  -9.026 -21.730  0.00  0.00    -0.263 N 
ATOM     16  N   UNL     1      32.795  -7.281 -20.619  0.00  0.00    -0.226 NA
ATOM     17  C   UNL     1      32.562  -7.785 -21.811  0.00  0.00    +0.156 C 
ATOM     18  C   UNL     1      31.869  -9.340 -20.412  0.00  0.00    +0.088 C 
ATOM     19  C   UNL     1      32.365  -8.246 -19.742  0.00  0.00    +0.116 C 
BRANCH  17  22
ATOM     20  F   UNL     1      35.131  -7.813 -23.026  0.00  0.00    -0.202 F 
ATOM     21  N   UNL     1      31.798  -6.490 -23.615  0.00  0.00    -0.239 NA
ATOM     22  C   UNL     1      32.854  -7.126 -23.064  0.00  0.00    +0.140 C 
ATOM     23  C   UNL     1      34.119  -7.166 -23.618  0.00  0.00    +0.160 C 
ATOM     24  C   UNL     1      34.318  -6.506 -24.826  0.00  0.00    +0.033 C 
ATOM     25  C   UNL     1      32.029  -5.861 -24.788  0.00  0.00    +0.099 C 
ATOM     26  C   UNL     1      33.257  -5.840 -25.429  0.00  0.00    +0.023 C 
ENDBRANCH  17  22
ENDBRANCH  14  15
ENDBRANCH   6  14
TORSDOF 5
ENDMDL
MODEL 2
REMARK VINA RESULT:      -9.4      2.760      7.919
REMARK  Name = 11198924
REMARK  5 active torsions:
REMARK  status: ('A' for Active; 'I' for Inactive)
REMARK    1  A    between atoms: C_5  and  C_11
REMARK    2  A    between atoms: C_6  and  C_14
REMARK    3  A    between atoms: C_11  and  C_12
REMARK    4  A    between atoms: C_14  and  N_15
REMARK    5  A    between atoms: C_17  and  C_22
REMARK                            x       y       z     vdW  Elec       q    Type
REMARK                         _______ _______ _______ _____ _____    ______ ____
ROOT
ATOM      1  N   UNL     1      33.500  -9.810 -23.627  0.00  0.00    -0.153 N 
ATOM      2  N   UNL     1      33.941 -12.014 -24.149  0.00  0.00    -0.253 NA
ATOM      3  N   UNL     1      32.067  -8.957 -22.222  0.00  0.00    -0.341 NA
ATOM      4  N   UNL     1      33.703  -8.493 -23.760  0.00  0.00    -0.113 NA
ATOM      5  C   UNL     1      32.231 -11.467 -22.491  0.00  0.00    +0.107 C 
ATOM      6  C   UNL     1      32.952 -12.359 -23.229  0.00  0.00    +0.062 C 
ATOM      7  C   UNL     1      32.527 -10.088 -22.712  0.00  0.00    +0.197 C 
ATOM      8  C   UNL     1      34.199 -10.758 -24.335  0.00  0.00    +0.243 C 
ATOM      9  C   UNL     1      32.810  -8.018 -22.886  0.00  0.00    +0.082 C 
ATOM     10  C   UNL     1      32.636  -6.580 -22.655  0.00  0.00    +0.131 C 
ENDROOT
BRANCH   5  11
ATOM     11  C   UNL     1      31.197 -11.892 -21.475  0.00  0.00    +0.014 C 
BRANCH  11  12
ATOM     12  C   UNL     1      31.772 -11.884 -20.067  0.00  0.00    +0.001 C 
ATOM     13  C   UNL     1      31.177 -10.750 -19.248  0.00  0.00    +0.000 C 
ENDBRANCH  11  12
ENDBRANCH   5  11
BRANCH   6  14
ATOM     14  C   UNL     1      32.734 -13.849 -23.154  0.00  0.00    +0.138 C 
BRANCH  14  15
ATOM     15  N   UNL     1      33.085 -14.496 -24.407  0.00  0.00    -0.263 N 
ATOM     16  N   UNL     1      33.947 -15.952 -25.835  0.00  0.00    -0.226 NA
ATOM     17  C   UNL     1      33.809 -15.639 -24.565  0.00  0.00    +0.156 C 
ATOM     18  C   UNL     1      32.735 -14.045 -25.644  0.00  0.00    +0.088 C 
ATOM     19  C   UNL     1      33.280 -14.962 -26.513  0.00  0.00    +0.116 C 
BRANCH  17  22
ATOM     20  F   UNL     1      34.569 -18.369 -24.771  0.00  0.00    -0.202 F 
ATOM     21  N   UNL     1      34.463 -15.697 -22.311  0.00  0.00    -0.239 NA
ATOM     22  C   UNL     1      34.349 -16.397 -23.459  0.00  0.00    +0.140 C 
ATOM     23  C   UNL     1      34.706 -17.724 -23.605  0.00  0.00    +0.160 C 
ATOM     24  C   UNL     1      35.218 -18.382 -22.493  0.00  0.00    +0.033 C 
ATOM     25  C   UNL     1      34.965 -16.369 -21.252  0.00  0.00    +0.099 C 
ATOM     26  C   UNL     1      35.354 -17.698 -21.290  0.00  0.00    +0.023 C 
ENDBRANCH  17  22
ENDBRANCH  14  15
ENDBRANCH   6  14
TORSDOF 5
ENDMDL
MODEL 3
REMARK VINA RESULT:      -9.4      1.292      1.530
REMARK  Name = 11198924
REMARK  5 active torsions:
REMARK  status: ('A' for Active; 'I' for Inactive)
REMARK    1  A    between atoms: C_5  and  C_11
REMARK    2  A    between atoms: C_6  and  C_14
REMARK    3  A    between atoms: C_11  and  C_12
REMARK    4  A    between atoms: C_14  and  N_15
REMARK    5  A    between atoms: C_17  and  C_22
REMARK                            x       y       z     vdW  Elec       q    Type
REMARK                         _______ _______ _______ _____ _____    ______ ____
ROOT
ATOM      1  N   UNL     1      33.211 -14.392 -22.140  0.00  0.00    -0.153 N 
ATOM      2  N   UNL     1      31.917 -12.649 -21.354  0.00  0.00    -0.253 NA
ATOM      3  N   UNL     1      34.380 -14.561 -23.973  0.00  0.00    -0.341 NA
ATOM      4  N   UNL     1      33.737 -15.620 -22.043  0.00  0.00    -0.113 NA
ATOM      5  C   UNL     1      33.088 -12.440 -23.489  0.00  0.00    +0.107 C 
ATOM      6  C   UNL     1      32.270 -11.956 -22.511  0.00  0.00    +0.062 C 
ATOM      7  C   UNL     1      33.593 -13.760 -23.287  0.00  0.00    +0.197 C 
ATOM      8  C   UNL     1      32.387 -13.845 -21.185  0.00  0.00    +0.243 C 
ATOM      9  C   UNL     1      34.438 -15.675 -23.180  0.00  0.00    +0.082 C 
ATOM     10  C   UNL     1      35.221 -16.858 -23.554  0.00  0.00    +0.131 C 
ENDROOT
BRANCH   5  11
ATOM     11  C   UNL     1      33.474 -11.633 -24.707  0.00  0.00    +0.014 C 
BRANCH  11  12
ATOM     12  C   UNL     1      34.746 -10.838 -24.461  0.00  0.00    +0.001 C 
ATOM     13  C   UNL     1      35.365 -10.391 -25.776  0.00  0.00    +0.000 C 
ENDBRANCH  11  12
ENDBRANCH   5  11
BRANCH   6  14
ATOM     14  C   UNL     1      31.613 -10.601 -22.588  0.00  0.00    +0.138 C 
BRANCH  14  15
ATOM     15  N   UNL     1      31.858  -9.828 -21.383  0.00  0.00    -0.263 N 
ATOM     16  N   UNL     1      32.538  -8.193 -20.053  0.00  0.00    -0.226 NA
ATOM     17  C   UNL     1      32.478  -8.618 -21.296  0.00  0.00    +0.156 C 
ATOM     18  C   UNL     1      31.497 -10.206 -20.125  0.00  0.00    +0.088 C 
ATOM     19  C   UNL     1      31.928  -9.179 -19.318  0.00  0.00    +0.116 C 
BRANCH  17  22
ATOM     20  F   UNL     1      30.841  -7.133 -23.082  0.00  0.00    -0.202 F 
ATOM     21  N   UNL     1      34.335  -8.009 -22.598  0.00  0.00    -0.239 NA
ATOM     22  C   UNL     1      32.998  -7.908 -22.443  0.00  0.00    +0.140 C 
ATOM     23  C   UNL     1      32.163  -7.197 -23.285  0.00  0.00    +0.160 C 
ATOM     24  C   UNL     1      32.742  -6.542 -24.367  0.00  0.00    +0.033 C 
ATOM     25  C   UNL     1      34.861  -7.358 -23.659  0.00  0.00    +0.099 C 
ATOM     26  C   UNL     1      34.116  -6.618 -24.563  0.00  0.00    +0.023 C 
ENDBRANCH  17  22
ENDBRANCH  14  15
ENDBRANCH   6  14
TORSDOF 5
ENDMDL
MODEL 4
REMARK VINA RESULT:      -9.3      2.963      5.690
REMARK  Name = 11198924
REMARK  5 active torsions:
REMARK  status: ('A' for Active; 'I' for Inactive)
REMARK    1  A    between atoms: C_5  and  C_11
REMARK    2  A    between atoms: C_6  and  C_14
REMARK    3  A    between atoms: C_11  and  C_12
REMARK    4  A    between atoms: C_14  and  N_15
REMARK    5  A    between atoms: C_17  and  C_22
REMARK                            x       y       z     vdW  Elec       q    Type
REMARK                         _______ _______ _______ _____ _____    ______ ____
ROOT
ATOM      1  N   UNL     1      35.006 -18.050 -22.929  0.00  0.00    -0.153 N 
ATOM      2  N   UNL     1      34.671 -16.267 -24.356  0.00  0.00    -0.253 NA
ATOM      3  N   UNL     1      34.953 -18.137 -20.751  0.00  0.00    -0.341 NA
ATOM      4  N   UNL     1      35.275 -19.338 -22.678  0.00  0.00    -0.113 NA
ATOM      5  C   UNL     1      34.519 -15.946 -21.938  0.00  0.00    +0.107 C 
ATOM      6  C   UNL     1      34.469 -15.484 -23.221  0.00  0.00    +0.062 C 
ATOM      7  C   UNL     1      34.814 -17.334 -21.784  0.00  0.00    +0.197 C 
ATOM      8  C   UNL     1      34.934 -17.527 -24.198  0.00  0.00    +0.243 C 
ATOM      9  C   UNL     1      35.231 -19.341 -21.342  0.00  0.00    +0.082 C 
ATOM     10  C   UNL     1      35.467 -20.558 -20.558  0.00  0.00    +0.131 C 
ENDROOT
BRANCH   5  11
ATOM     11  C   UNL     1      34.253 -15.064 -20.740  0.00  0.00    +0.014 C 
BRANCH  11  12
ATOM     12  C   UNL     1      32.761 -14.913 -20.488  0.00  0.00    +0.001 C 
ATOM     13  C   UNL     1      32.344 -13.454 -20.578  0.00  0.00    +0.000 C 
ENDBRANCH  11  12
ENDBRANCH   5  11
BRANCH   6  14
ATOM     14  C   UNL     1      34.217 -14.037 -23.562  0.00  0.00    +0.138 C 
BRANCH  14  15
ATOM     15  N   UNL     1      33.651 -13.901 -24.892  0.00  0.00    -0.263 N 
ATOM     16  N   UNL     1      32.979 -12.981 -26.791  0.00  0.00    -0.226 NA
ATOM     17  C   UNL     1      33.543 -12.757 -25.624  0.00  0.00    +0.156 C 
ATOM     18  C   UNL     1      33.129 -14.921 -25.628  0.00  0.00    +0.088 C 
ATOM     19  C   UNL     1      32.719 -14.329 -26.799  0.00  0.00    +0.116 C 
BRANCH  17  22
ATOM     20  F   UNL     1      35.572 -11.252 -26.925  0.00  0.00    -0.202 F 
ATOM     21  N   UNL     1      33.374 -11.033 -24.039  0.00  0.00    -0.239 NA
ATOM     22  C   UNL     1      33.997 -11.468 -25.155  0.00  0.00    +0.140 C 
ATOM     23  C   UNL     1      34.988 -10.770 -25.820  0.00  0.00    +0.160 C 
ATOM     24  C   UNL     1      35.368  -9.536 -25.304  0.00  0.00    +0.033 C 
ATOM     25  C   UNL     1      33.770  -9.830 -23.568  0.00  0.00    +0.099 C 
ATOM     26  C   UNL     1      34.752  -9.050 -24.157  0.00  0.00    +0.023 C 
ENDBRANCH  17  22
ENDBRANCH  14  15
ENDBRANCH   6  14
TORSDOF 5
ENDMDL
MODEL 5
REMARK VINA RESULT:      -9.0      2.031      4.302
REMARK  Name = 11198924
REMARK  5 active torsions:
REMARK  status: ('A' for Active; 'I' for Inactive)
REMARK    1  A    between atoms: C_5  and  C_11
REMARK    2  A    between atoms: C_6  and  C_14
REMARK    3  A    between atoms: C_11  and  C_12
REMARK    4  A    between atoms: C_14  and  N_15
REMARK    5  A    between atoms: C_17  and  C_22
REMARK                            x       y       z     vdW  Elec       q    Type
REMARK                         _______ _______ _______ _____ _____    ______ ____
ROOT
ATOM      1  N   UNL     1      33.787 -15.993 -25.144  0.00  0.00    -0.153 N 
ATOM      2  N   UNL     1      33.003 -13.847 -25.472  0.00  0.00    -0.253 NA
ATOM      3  N   UNL     1      34.646 -16.921 -23.368  0.00  0.00    -0.341 NA
ATOM      4  N   UNL     1      34.051 -17.239 -25.559  0.00  0.00    -0.113 NA
ATOM      5  C   UNL     1      33.901 -14.504 -23.296  0.00  0.00    +0.107 C 
ATOM      6  C   UNL     1      33.349 -13.591 -24.146  0.00  0.00    +0.062 C 
ATOM      7  C   UNL     1      34.141 -15.802 -23.841  0.00  0.00    +0.197 C 
ATOM      8  C   UNL     1      33.225 -15.032 -25.949  0.00  0.00    +0.243 C 
ATOM      9  C   UNL     1      34.571 -17.763 -24.445  0.00  0.00    +0.082 C 
ATOM     10  C   UNL     1      35.033 -19.153 -24.381  0.00  0.00    +0.131 C 
ENDROOT
BRANCH   5  11
ATOM     11  C   UNL     1      34.221 -14.190 -21.853  0.00  0.00    +0.014 C 
BRANCH  11  12
ATOM     12  C   UNL     1      32.965 -14.204 -20.995  0.00  0.00    +0.001 C 
ATOM     13  C   UNL     1      32.568 -15.629 -20.644  0.00  0.00    +0.000 C 
ENDBRANCH  11  12
ENDBRANCH   5  11
BRANCH   6  14
ATOM     14  C   UNL     1      33.073 -12.163 -23.748  0.00  0.00    +0.138 C 
BRANCH  14  15
ATOM     15  N   UNL     1      33.944 -11.242 -24.458  0.00  0.00    -0.263 N 
ATOM     16  N   UNL     1      34.996  -9.377 -25.019  0.00  0.00    -0.226 NA
ATOM     17  C   UNL     1      34.143  -9.923 -24.180  0.00  0.00    +0.156 C 
ATOM     18  C   UNL     1      34.711 -11.566 -25.536  0.00  0.00    +0.088 C 
ATOM     19  C   UNL     1      35.354 -10.395 -25.867  0.00  0.00    +0.116 C 
BRANCH  17  22
ATOM     20  F   UNL     1      35.096  -7.480 -23.087  0.00  0.00    -0.202 F 
ATOM     21  N   UNL     1      32.375  -9.847 -22.637  0.00  0.00    -0.239 NA
ATOM     22  C   UNL     1      33.487  -9.232 -23.094  0.00  0.00    +0.140 C 
ATOM     23  C   UNL     1      33.986  -8.044 -22.594  0.00  0.00    +0.160 C 
ATOM     24  C   UNL     1      33.295  -7.442 -21.548  0.00  0.00    +0.033 C 
ATOM     25  C   UNL     1      31.731  -9.232 -21.622  0.00  0.00    +0.099 C 
ATOM     26  C   UNL     1      32.145  -8.040 -21.048  0.00  0.00    +0.023 C 
ENDBRANCH  17  22
ENDBRANCH  14  15
ENDBRANCH   6  14
TORSDOF 5
ENDMDL
MODEL 6
REMARK VINA RESULT:      -8.9     11.823     16.690
REMARK  Name = 11198924
REMARK  5 active torsions:
REMARK  status: ('A' for Active; 'I' for Inactive)
REMARK    1  A    between atoms: C_5  and  C_11
REMARK    2  A    between atoms: C_6  and  C_14
REMARK    3  A    between atoms: C_11  and  C_12
REMARK    4  A    between atoms: C_14  and  N_15
REMARK    5  A    between atoms: C_17  and  C_22
REMARK                            x       y       z     vdW  Elec       q    Type
REMARK                         _______ _______ _______ _____ _____    ______ ____
ROOT
ATOM      1  N   UNL     1      36.099 -21.784 -17.933  0.00  0.00    -0.153 N 
ATOM      2  N   UNL     1      36.452 -22.880 -15.932  0.00  0.00    -0.253 NA
ATOM      3  N   UNL     1      34.364 -21.791 -19.253  0.00  0.00    -0.341 NA
ATOM      4  N   UNL     1      36.480 -20.970 -18.926  0.00  0.00    -0.113 NA
ATOM      5  C   UNL     1      34.335 -23.153 -17.122  0.00  0.00    +0.107 C 
ATOM      6  C   UNL     1      35.173 -23.415 -16.079  0.00  0.00    +0.062 C 
ATOM      7  C   UNL     1      34.841 -22.273 -18.126  0.00  0.00    +0.197 C 
ATOM      8  C   UNL     1      36.894 -22.081 -16.852  0.00  0.00    +0.243 C 
ATOM      9  C   UNL     1      35.392 -21.006 -19.703  0.00  0.00    +0.082 C 
ATOM     10  C   UNL     1      35.307 -20.253 -20.958  0.00  0.00    +0.131 C 
ENDROOT
BRANCH   5  11
ATOM     11  C   UNL     1      32.940 -23.727 -17.214  0.00  0.00    +0.014 C 
BRANCH  11  12
ATOM     12  C   UNL     1      31.897 -22.715 -16.765  0.00  0.00    +0.001 C 
ATOM     13  C   UNL     1      31.360 -23.070 -15.387  0.00  0.00    +0.000 C 
ENDBRANCH  11  12
ENDBRANCH   5  11
BRANCH   6  14
ATOM     14  C   UNL     1      34.817 -24.359 -14.957  0.00  0.00    +0.138 C 
BRANCH  14  15
ATOM     15  N   UNL     1      35.836 -25.379 -14.784  0.00  0.00    -0.263 N 
ATOM     16  N   UNL     1      37.454 -26.578 -13.864  0.00  0.00    -0.226 NA
ATOM     17  C   UNL     1      36.636 -25.562 -13.697  0.00  0.00    +0.156 C 
ATOM     18  C   UNL     1      36.154 -26.330 -15.705  0.00  0.00    +0.088 C 
ATOM     19  C   UNL     1      37.159 -27.061 -15.115  0.00  0.00    +0.116 C 
BRANCH  17  22
ATOM     20  F   UNL     1      38.014 -23.088 -13.465  0.00  0.00    -0.202 F 
ATOM     21  N   UNL     1      35.806 -25.226 -11.526  0.00  0.00    -0.239 NA
ATOM     22  C   UNL     1      36.576 -24.729 -12.517  0.00  0.00    +0.140 C 
ATOM     23  C   UNL     1      37.263 -23.532 -12.449  0.00  0.00    +0.160 C 
ATOM     24  C   UNL     1      37.153 -22.789 -11.279  0.00  0.00    +0.033 C 
ATOM     25  C   UNL     1      35.723 -24.476 -10.405  0.00  0.00    +0.099 C 
ATOM     26  C   UNL     1      36.370 -23.263 -10.233  0.00  0.00    +0.023 C 
ENDBRANCH  17  22
ENDBRANCH  14  15
ENDBRANCH   6  14
TORSDOF 5
ENDMDL
MODEL 7
REMARK VINA RESULT:      -8.9     13.978     17.062
REMARK  Name = 11198924
REMARK  5 active torsions:
REMARK  status: ('A' for Active; 'I' for Inactive)
REMARK    1  A    between atoms: C_5  and  C_11
REMARK    2  A    between atoms: C_6  and  C_14
REMARK    3  A    between atoms: C_11  and  C_12
REMARK    4  A    between atoms: C_14  and  N_15
REMARK    5  A    between atoms: C_17  and  C_22
REMARK                            x       y       z     vdW  Elec       q    Type
REMARK                         _______ _______ _______ _____ _____    ______ ____
ROOT
ATOM      1  N   UNL     1      37.601 -26.094 -14.893  0.00  0.00    -0.153 N 
ATOM      2  N   UNL     1      35.367 -25.825 -15.405  0.00  0.00    -0.253 NA
ATOM      3  N   UNL     1      38.940 -24.826 -13.730  0.00  0.00    -0.341 NA
ATOM      4  N   UNL     1      38.760 -26.763 -14.944  0.00  0.00    -0.113 NA
ATOM      5  C   UNL     1      36.524 -24.151 -14.051  0.00  0.00    +0.107 C 
ATOM      6  C   UNL     1      35.415 -24.634 -14.683  0.00  0.00    +0.062 C 
ATOM      7  C   UNL     1      37.706 -24.942 -14.171  0.00  0.00    +0.197 C 
ATOM      8  C   UNL     1      36.449 -26.532 -15.500  0.00  0.00    +0.243 C 
ATOM      9  C   UNL     1      39.542 -25.953 -14.223  0.00  0.00    +0.082 C 
ATOM     10  C   UNL     1      40.957 -26.253 -13.977  0.00  0.00    +0.131 C 
ENDROOT
BRANCH   5  11
ATOM     11  C   UNL     1      36.515 -22.873 -13.245  0.00  0.00    +0.014 C 
BRANCH  11  12
ATOM     12  C   UNL     1      36.810 -23.144 -11.779  0.00  0.00    +0.001 C 
ATOM     13  C   UNL     1      35.790 -24.108 -11.192  0.00  0.00    +0.000 C 
ENDBRANCH  11  12
ENDBRANCH   5  11
BRANCH   6  14
ATOM     14  C   UNL     1      34.097 -23.901 -14.698  0.00  0.00    +0.138 C 
BRANCH  14  15
ATOM     15  N   UNL     1      33.770 -23.435 -16.034  0.00  0.00    -0.263 N 
ATOM     16  N   UNL     1      32.588 -22.918 -17.833  0.00  0.00    -0.226 NA
ATOM     17  C   UNL     1      32.536 -23.398 -16.610  0.00  0.00    +0.156 C 
ATOM     18  C   UNL     1      34.669 -22.951 -16.935  0.00  0.00    +0.088 C 
ATOM     19  C   UNL     1      33.915 -22.638 -18.042  0.00  0.00    +0.116 C 
BRANCH  17  22
ATOM     20  F   UNL     1      30.026 -22.098 -16.902  0.00  0.00    -0.202 F 
ATOM     21  N   UNL     1      31.499 -24.925 -15.159  0.00  0.00    -0.239 NA
ATOM     22  C   UNL     1      31.333 -23.838 -15.940  0.00  0.00    +0.140 C 
ATOM     23  C   UNL     1      30.132 -23.174 -16.113  0.00  0.00    +0.160 C 
ATOM     24  C   UNL     1      29.021 -23.661 -15.433  0.00  0.00    +0.033 C 
ATOM     25  C   UNL     1      30.398 -25.370 -14.515  0.00  0.00    +0.099 C 
ATOM     26  C   UNL     1      29.148 -24.779 -14.618  0.00  0.00    +0.023 C 
ENDBRANCH  17  22
ENDBRANCH  14  15
ENDBRANCH   6  14
TORSDOF 5
ENDMDL
MODEL 8
REMARK VINA RESULT:      -8.9      2.142      3.762
REMARK  Name = 11198924
REMARK  5 active torsions:
REMARK  status: ('A' for Active; 'I' for Inactive)
REMARK    1  A    between atoms: C_5  and  C_11
REMARK    2  A    between atoms: C_6  and  C_14
REMARK    3  A    between atoms: C_11  and  C_12
REMARK    4  A    between atoms: C_14  and  N_15
REMARK    5  A    between atoms: C_17  and  C_22
REMARK                            x       y       z     vdW  Elec       q    Type
REMARK                         _______ _______ _______ _____ _____    ______ ____
ROOT
ATOM      1  N   UNL     1      33.606 -15.539 -25.415  0.00  0.00    -0.153 N 
ATOM      2  N   UNL     1      33.219 -13.266 -25.534  0.00  0.00    -0.253 NA
ATOM      3  N   UNL     1      34.446 -16.740 -23.801  0.00  0.00    -0.341 NA
ATOM      4  N   UNL     1      33.582 -16.777 -25.924  0.00  0.00    -0.113 NA
ATOM      5  C   UNL     1      34.190 -14.240 -23.513  0.00  0.00    +0.107 C 
ATOM      6  C   UNL     1      33.740 -13.180 -24.244  0.00  0.00    +0.062 C 
ATOM      7  C   UNL     1      34.120 -15.515 -24.152  0.00  0.00    +0.197 C 
ATOM      8  C   UNL     1      33.160 -14.432 -26.097  0.00  0.00    +0.243 C 
ATOM      9  C   UNL     1      34.102 -17.471 -24.907  0.00  0.00    +0.082 C 
ATOM     10  C   UNL     1      34.292 -18.924 -24.971  0.00  0.00    +0.131 C 
ENDROOT
BRANCH   5  11
ATOM     11  C   UNL     1      34.709 -14.099 -22.101  0.00  0.00    +0.014 C 
BRANCH  11  12
ATOM     12  C   UNL     1      33.823 -14.842 -21.112  0.00  0.00    +0.001 C 
ATOM     13  C   UNL     1      34.618 -15.904 -20.368  0.00  0.00    +0.000 C 
ENDBRANCH  11  12
ENDBRANCH   5  11
BRANCH   6  14
ATOM     14  C   UNL     1      33.786 -11.759 -23.740  0.00  0.00    +0.138 C 
BRANCH  14  15
ATOM     15  N   UNL     1      32.603 -11.439 -22.961  0.00  0.00    -0.263 N 
ATOM     16  N   UNL     1      31.003 -10.261 -21.983  0.00  0.00    -0.226 NA
ATOM     17  C   UNL     1      32.083 -10.200 -22.731  0.00  0.00    +0.156 C 
ATOM     18  C   UNL     1      31.814 -12.350 -22.326  0.00  0.00    +0.088 C 
ATOM     19  C   UNL     1      30.830 -11.599 -21.727  0.00  0.00    +0.116 C 
BRANCH  17  22
ATOM     20  F   UNL     1      30.535  -8.046 -23.749  0.00  0.00    -0.202 F 
ATOM     21  N   UNL     1      34.013  -8.956 -23.220  0.00  0.00    -0.239 NA
ATOM     22  C   UNL     1      32.664  -8.985 -23.254  0.00  0.00    +0.140 C 
ATOM     23  C   UNL     1      31.872  -7.962 -23.739  0.00  0.00    +0.160 C 
ATOM     24  C   UNL     1      32.509  -6.825 -24.225  0.00  0.00    +0.033 C 
ATOM     25  C   UNL     1      34.597  -7.836 -23.700  0.00  0.00    +0.099 C 
ATOM     26  C   UNL     1      33.897  -6.753 -24.208  0.00  0.00    +0.023 C 
ENDBRANCH  17  22
ENDBRANCH  14  15
ENDBRANCH   6  14
TORSDOF 5
ENDMDL
MODEL 9
REMARK VINA RESULT:      -8.8      2.099      3.004
REMARK  Name = 11198924
REMARK  5 active torsions:
REMARK  status: ('A' for Active; 'I' for Inactive)
REMARK    1  A    between atoms: C_5  and  C_11
REMARK    2  A    between atoms: C_6  and  C_14
REMARK    3  A    between atoms: C_11  and  C_12
REMARK    4  A    between atoms: C_14  and  N_15
REMARK    5  A    between atoms: C_17  and  C_22
REMARK                            x       y       z     vdW  Elec       q    Type
REMARK                         _______ _______ _______ _____ _____    ______ ____
ROOT
ATOM      1  N   UNL     1      34.383 -15.702 -23.547  0.00  0.00    -0.153 N 
ATOM      2  N   UNL     1      34.179 -13.530 -22.792  0.00  0.00    -0.253 NA
ATOM      3  N   UNL     1      33.748 -16.602 -25.429  0.00  0.00    -0.341 NA
ATOM      4  N   UNL     1      34.770 -16.977 -23.411  0.00  0.00    -0.113 NA
ATOM      5  C   UNL     1      33.324 -14.146 -24.997  0.00  0.00    +0.107 C 
ATOM      6  C   UNL     1      33.545 -13.242 -24.000  0.00  0.00    +0.062 C 
ATOM      7  C   UNL     1      33.775 -15.477 -24.747  0.00  0.00    +0.197 C 
ATOM      8  C   UNL     1      34.585 -14.744 -22.583  0.00  0.00    +0.243 C 
ATOM      9  C   UNL     1      34.362 -17.483 -24.579  0.00  0.00    +0.082 C 
ATOM     10  C   UNL     1      34.559 -18.894 -24.927  0.00  0.00    +0.131 C 
ENDROOT
BRANCH   5  11
ATOM     11  C   UNL     1      32.669 -13.774 -26.307  0.00  0.00    +0.014 C 
BRANCH  11  12
ATOM     12  C   UNL     1      33.703 -13.582 -27.405  0.00  0.00    +0.001 C 
ATOM     13  C   UNL     1      34.385 -12.229 -27.274  0.00  0.00    +0.000 C 
ENDBRANCH  11  12
ENDBRANCH   5  11
BRANCH   6  14
ATOM     14  C   UNL     1      33.092 -11.806 -24.079  0.00  0.00    +0.138 C 
BRANCH  14  15
ATOM     15  N   UNL     1      32.390 -11.408 -22.871  0.00  0.00    -0.263 N 
ATOM     16  N   UNL     1      31.555 -10.132 -21.267  0.00  0.00    -0.226 NA
ATOM     17  C   UNL     1      32.248 -10.144 -22.384  0.00  0.00    +0.156 C 
ATOM     18  C   UNL     1      31.753 -12.261 -22.021  0.00  0.00    +0.088 C 
ATOM     19  C   UNL     1      31.244 -11.448 -21.034  0.00  0.00    +0.116 C 
BRANCH  17  22
ATOM     20  F   UNL     1      30.649  -8.141 -23.610  0.00  0.00    -0.202 F 
ATOM     21  N   UNL     1      34.148  -8.914 -23.009  0.00  0.00    -0.239 NA
ATOM     22  C   UNL     1      32.800  -8.976 -23.033  0.00  0.00    +0.140 C 
ATOM     23  C   UNL     1      31.983  -8.026 -23.616  0.00  0.00    +0.160 C 
ATOM     24  C   UNL     1      32.592  -6.932 -24.220  0.00  0.00    +0.033 C 
ATOM     25  C   UNL     1      34.704  -7.836 -23.604  0.00  0.00    +0.099 C 
ATOM     26  C   UNL     1      33.978  -6.827 -24.217  0.00  0.00    +0.023 C 
ENDBRANCH  17  22
ENDBRANCH  14  15
ENDBRANCH   6  14
TORSDOF 5
ENDMDL
