MODEL 1
REMARK VINA RESULT:      -7.0      0.000      0.000
REMARK  Name = 10836
REMARK  3 active torsions:
REMARK  status: ('A' for Active; 'I' for Inactive)
REMARK    1  A    between atoms: C_1  and  C_2
REMARK    2  A    between atoms: C_1  and  C_8
REMARK    3  A    between atoms: C_8  and  N_10
REMARK                            x       y       z     vdW  Elec       q    Type
REMARK                         _______ _______ _______ _____ _____    ______ ____
ROOT
ATOM      1  C   UNL     1      35.792 -18.637 -21.824  0.00  0.00    +0.005 C 
ENDROOT
BRANCH   1   2
ATOM      2  C   UNL     1      34.993 -19.618 -21.000  0.00  0.00    -0.024 C 
ATOM      3  C   UNL     1      35.652 -20.631 -20.322  0.00  0.00    -0.004 C 
ATOM      4  C   UNL     1      33.614 -19.488 -20.937  0.00  0.00    -0.004 C 
ATOM      5  C   UNL     1      34.915 -21.538 -19.560  0.00  0.00    -0.000 C 
ATOM      6  C   UNL     1      32.877 -20.395 -20.175  0.00  0.00    -0.000 C 
ATOM      7  C   UNL     1      33.527 -21.419 -19.488  0.00  0.00    -0.000 C 
ENDBRANCH   1   2
BRANCH   1   8
ATOM      8  C   UNL     1      34.998 -18.027 -22.994  0.00  0.00    -0.058 C 
ATOM      9  C   UNL     1      34.913 -18.964 -24.198  0.00  0.00    -0.023 C 
BRANCH   8  10
ATOM     10  N   UNL     1      35.643 -16.782 -23.423  0.00  0.00    +0.384 N 
ATOM     11  C   UNL     1      34.753 -15.650 -23.226  0.00  0.00    -0.106 C 
ATOM     12  H   UNL     1      35.882 -16.852 -24.412  0.00  0.00    -0.085 HD
ATOM     13  H   UNL     1      36.485 -16.638 -22.866  0.00  0.00    -0.085 HD
ENDBRANCH   8  10
ENDBRANCH   1   8
TORSDOF 3
ENDMDL
MODEL 2
REMARK VINA RESULT:      -7.0      0.055      1.458
REMARK  Name = 10836
REMARK  3 active torsions:
REMARK  status: ('A' for Active; 'I' for Inactive)
REMARK    1  A    between atoms: C_1  and  C_2
REMARK    2  A    between atoms: C_1  and  C_8
REMARK    3  A    between atoms: C_8  and  N_10
REMARK                            x       y       z     vdW  Elec       q    Type
REMARK                         _______ _______ _______ _____ _____    ______ ____
ROOT
ATOM      1  C   UNL     1      35.824 -18.665 -21.816  0.00  0.00    +0.005 C 
ENDROOT
BRANCH   1   2
ATOM      2  C   UNL     1      35.027 -19.648 -20.992  0.00  0.00    -0.024 C 
ATOM      3  C   UNL     1      33.650 -19.515 -20.920  0.00  0.00    -0.004 C 
ATOM      4  C   UNL     1      35.689 -20.664 -20.320  0.00  0.00    -0.004 C 
ATOM      5  C   UNL     1      32.913 -20.422 -20.158  0.00  0.00    -0.000 C 
ATOM      6  C   UNL     1      34.953 -21.572 -19.558  0.00  0.00    -0.000 C 
ATOM      7  C   UNL     1      33.566 -21.450 -19.477  0.00  0.00    -0.000 C 
ENDBRANCH   1   2
BRANCH   1   8
ATOM      8  C   UNL     1      35.012 -18.014 -22.951  0.00  0.00    -0.058 C 
ATOM      9  C   UNL     1      34.881 -18.922 -24.174  0.00  0.00    -0.023 C 
BRANCH   8  10
ATOM     10  N   UNL     1      35.667 -16.771 -23.367  0.00  0.00    +0.384 N 
ATOM     11  C   UNL     1      34.734 -15.658 -23.315  0.00  0.00    -0.106 C 
ATOM     12  H   UNL     1      36.010 -16.876 -24.322  0.00  0.00    -0.085 HD
ATOM     13  H   UNL     1      36.443 -16.579 -22.734  0.00  0.00    -0.085 HD
ENDBRANCH   8  10
ENDBRANCH   1   8
TORSDOF 3
ENDMDL
MODEL 3
REMARK VINA RESULT:      -6.9      1.072      1.781
REMARK  Name = 10836
REMARK  3 active torsions:
REMARK  status: ('A' for Active; 'I' for Inactive)
REMARK    1  A    between atoms: C_1  and  C_2
REMARK    2  A    between atoms: C_1  and  C_8
REMARK    3  A    between atoms: C_8  and  N_10
REMARK                            x       y       z     vdW  Elec       q    Type
REMARK                         _______ _______ _______ _____ _____    ______ ____
ROOT
ATOM      1  C   UNL     1      34.258 -18.740 -21.844  0.00  0.00    +0.005 C 
ENDROOT
BRANCH   1   2
ATOM      2  C   UNL     1      34.418 -19.875 -20.862  0.00  0.00    -0.024 C 
ATOM      3  C   UNL     1      35.690 -20.325 -20.546  0.00  0.00    -0.004 C 
ATOM      4  C   UNL     1      33.290 -20.447 -20.295  0.00  0.00    -0.004 C 
ATOM      5  C   UNL     1      35.839 -21.374 -19.638  0.00  0.00    -0.000 C 
ATOM      6  C   UNL     1      33.438 -21.496 -19.387  0.00  0.00    -0.000 C 
ATOM      7  C   UNL     1      34.713 -21.959 -19.060  0.00  0.00    -0.000 C 
ENDBRANCH   1   2
BRANCH   1   8
ATOM      8  C   UNL     1      35.323 -17.639 -21.693  0.00  0.00    -0.058 C 
ATOM      9  C   UNL     1      34.817 -16.438 -20.894  0.00  0.00    -0.023 C 
BRANCH   8  10
ATOM     10  N   UNL     1      35.734 -17.171 -23.020  0.00  0.00    +0.384 N 
ATOM     11  C   UNL     1      35.070 -17.938 -24.061  0.00  0.00    -0.106 C 
ATOM     12  H   UNL     1      36.744 -17.279 -23.116  0.00  0.00    -0.085 HD
ATOM     13  H   UNL     1      35.474 -16.190 -23.118  0.00  0.00    -0.085 HD
ENDBRANCH   8  10
ENDBRANCH   1   8
TORSDOF 3
ENDMDL
MODEL 4
REMARK VINA RESULT:      -6.5      1.318      2.066
REMARK  Name = 10836
REMARK  3 active torsions:
REMARK  status: ('A' for Active; 'I' for Inactive)
REMARK    1  A    between atoms: C_1  and  C_2
REMARK    2  A    between atoms: C_1  and  C_8
REMARK    3  A    between atoms: C_8  and  N_10
REMARK                            x       y       z     vdW  Elec       q    Type
REMARK                         _______ _______ _______ _____ _____    ______ ____
ROOT
ATOM      1  C   UNL     1      35.929 -18.561 -21.682  0.00  0.00    +0.005 C 
ENDROOT
BRANCH   1   2
ATOM      2  C   UNL     1      35.339 -19.692 -20.874  0.00  0.00    -0.024 C 
ATOM      3  C   UNL     1      33.962 -19.824 -20.795  0.00  0.00    -0.004 C 
ATOM      4  C   UNL     1      36.185 -20.577 -20.225  0.00  0.00    -0.004 C 
ATOM      5  C   UNL     1      33.415 -20.868 -20.049  0.00  0.00    -0.000 C 
ATOM      6  C   UNL     1      35.639 -21.622 -19.479  0.00  0.00    -0.000 C 
ATOM      7  C   UNL     1      34.255 -21.767 -19.390  0.00  0.00    -0.000 C 
ENDBRANCH   1   2
BRANCH   1   8
ATOM      8  C   UNL     1      34.954 -17.393 -21.909  0.00  0.00    -0.058 C 
ATOM      9  C   UNL     1      35.240 -16.633 -23.204  0.00  0.00    -0.023 C 
BRANCH   8  10
ATOM     10  N   UNL     1      35.051 -16.451 -20.790  0.00  0.00    +0.384 N 
ATOM     11  C   UNL     1      34.029 -15.423 -20.895  0.00  0.00    -0.106 C 
ATOM     12  H   UNL     1      35.972 -16.011 -20.802  0.00  0.00    -0.085 HD
ATOM     13  H   UNL     1      34.917 -16.961 -19.918  0.00  0.00    -0.085 HD
ENDBRANCH   8  10
ENDBRANCH   1   8
TORSDOF 3
ENDMDL
MODEL 5
REMARK VINA RESULT:      -6.5      1.852      4.928
REMARK  Name = 10836
REMARK  3 active torsions:
REMARK  status: ('A' for Active; 'I' for Inactive)
REMARK    1  A    between atoms: C_1  and  C_2
REMARK    2  A    between atoms: C_1  and  C_8
REMARK    3  A    between atoms: C_8  and  N_10
REMARK                            x       y       z     vdW  Elec       q    Type
REMARK                         _______ _______ _______ _____ _____    ______ ____
ROOT
ATOM      1  C   UNL     1      35.622 -18.669 -21.203  0.00  0.00    +0.005 C 
ENDROOT
BRANCH   1   2
ATOM      2  C   UNL     1      35.228 -18.183 -22.577  0.00  0.00    -0.024 C 
ATOM      3  C   UNL     1      35.194 -16.821 -22.833  0.00  0.00    -0.004 C 
ATOM      4  C   UNL     1      34.905 -19.107 -23.558  0.00  0.00    -0.004 C 
ATOM      5  C   UNL     1      34.829 -16.371 -24.102  0.00  0.00    -0.000 C 
ATOM      6  C   UNL     1      34.541 -18.658 -24.828  0.00  0.00    -0.000 C 
ATOM      7  C   UNL     1      34.502 -17.290 -25.099  0.00  0.00    -0.000 C 
ENDBRANCH   1   2
BRANCH   1   8
ATOM      8  C   UNL     1      35.077 -20.068 -20.865  0.00  0.00    -0.058 C 
ATOM      9  C   UNL     1      33.593 -20.049 -20.503  0.00  0.00    -0.023 C 
BRANCH   8  10
ATOM     10  N   UNL     1      35.822 -20.620 -19.730  0.00  0.00    +0.384 N 
ATOM     11  C   UNL     1      35.234 -21.875 -19.292  0.00  0.00    -0.106 C 
ATOM     12  H   UNL     1      35.801 -19.953 -18.959  0.00  0.00    -0.085 HD
ATOM     13  H   UNL     1      36.784 -20.792 -20.020  0.00  0.00    -0.085 HD
ENDBRANCH   8  10
ENDBRANCH   1   8
TORSDOF 3
ENDMDL
MODEL 6
REMARK VINA RESULT:      -6.1      2.450      5.007
REMARK  Name = 10836
REMARK  3 active torsions:
REMARK  status: ('A' for Active; 'I' for Inactive)
REMARK    1  A    between atoms: C_1  and  C_2
REMARK    2  A    between atoms: C_1  and  C_8
REMARK    3  A    between atoms: C_8  and  N_10
REMARK                            x       y       z     vdW  Elec       q    Type
REMARK                         _______ _______ _______ _____ _____    ______ ____
ROOT
ATOM      1  C   UNL     1      33.088 -20.147 -20.948  0.00  0.00    +0.005 C 
ENDROOT
BRANCH   1   2
ATOM      2  C   UNL     1      33.961 -19.101 -21.597  0.00  0.00    -0.024 C 
ATOM      3  C   UNL     1      34.107 -17.865 -20.988  0.00  0.00    -0.004 C 
ATOM      4  C   UNL     1      34.598 -19.394 -22.793  0.00  0.00    -0.004 C 
ATOM      5  C   UNL     1      34.913 -16.897 -21.588  0.00  0.00    -0.000 C 
ATOM      6  C   UNL     1      35.404 -18.427 -23.393  0.00  0.00    -0.000 C 
ATOM      7  C   UNL     1      35.561 -17.178 -22.791  0.00  0.00    -0.000 C 
ENDBRANCH   1   2
BRANCH   1   8
ATOM      8  C   UNL     1      33.741 -20.822 -19.728  0.00  0.00    -0.058 C 
ATOM      9  C   UNL     1      35.216 -21.150 -19.957  0.00  0.00    -0.023 C 
BRANCH   8  10
ATOM     10  N   UNL     1      33.033 -22.069 -19.423  0.00  0.00    +0.384 N 
ATOM     11  C   UNL     1      33.661 -22.756 -18.308  0.00  0.00    -0.106 C 
ATOM     12  H   UNL     1      33.053 -22.675 -20.244  0.00  0.00    -0.085 HD
ATOM     13  H   UNL     1      32.070 -21.848 -19.173  0.00  0.00    -0.085 HD
ENDBRANCH   8  10
ENDBRANCH   1   8
TORSDOF 3
ENDMDL
MODEL 7
REMARK VINA RESULT:      -6.1      3.307      5.579
REMARK  Name = 10836
REMARK  3 active torsions:
REMARK  status: ('A' for Active; 'I' for Inactive)
REMARK    1  A    between atoms: C_1  and  C_2
REMARK    2  A    between atoms: C_1  and  C_8
REMARK    3  A    between atoms: C_8  and  N_10
REMARK                            x       y       z     vdW  Elec       q    Type
REMARK                         _______ _______ _______ _____ _____    ______ ____
ROOT
ATOM      1  C   UNL     1      35.065 -22.389 -18.931  0.00  0.00    +0.005 C 
ENDROOT
BRANCH   1   2
ATOM      2  C   UNL     1      34.645 -21.197 -19.757  0.00  0.00    -0.024 C 
ATOM      3  C   UNL     1      35.615 -20.422 -20.373  0.00  0.00    -0.004 C 
ATOM      4  C   UNL     1      33.298 -20.898 -19.883  0.00  0.00    -0.004 C 
ATOM      5  C   UNL     1      35.228 -19.321 -21.137  0.00  0.00    -0.000 C 
ATOM      6  C   UNL     1      32.910 -19.797 -20.647  0.00  0.00    -0.000 C 
ATOM      7  C   UNL     1      33.876 -19.008 -21.272  0.00  0.00    -0.000 C 
ENDBRANCH   1   2
BRANCH   1   8
ATOM      8  C   UNL     1      35.434 -22.033 -17.480  0.00  0.00    -0.058 C 
ATOM      9  C   UNL     1      36.945 -21.999 -17.250  0.00  0.00    -0.023 C 
BRANCH   8  10
ATOM     10  N   UNL     1      34.852 -23.024 -16.570  0.00  0.00    +0.384 N 
ATOM     11  C   UNL     1      33.495 -23.355 -16.974  0.00  0.00    -0.106 C 
ATOM     12  H   UNL     1      34.836 -22.642 -15.624  0.00  0.00    -0.085 HD
ATOM     13  H   UNL     1      35.419 -23.870 -16.599  0.00  0.00    -0.085 HD
ENDBRANCH   8  10
ENDBRANCH   1   8
TORSDOF 3
ENDMDL
MODEL 8
REMARK VINA RESULT:      -6.1      3.739      6.472
REMARK  Name = 10836
REMARK  3 active torsions:
REMARK  status: ('A' for Active; 'I' for Inactive)
REMARK    1  A    between atoms: C_1  and  C_2
REMARK    2  A    between atoms: C_1  and  C_8
REMARK    3  A    between atoms: C_8  and  N_10
REMARK                            x       y       z     vdW  Elec       q    Type
REMARK                         _______ _______ _______ _____ _____    ______ ____
ROOT
ATOM      1  C   UNL     1      33.784 -23.192 -18.513  0.00  0.00    +0.005 C 
ENDROOT
BRANCH   1   2
ATOM      2  C   UNL     1      34.137 -21.968 -19.324  0.00  0.00    -0.024 C 
ATOM      3  C   UNL     1      33.123 -21.156 -19.805  0.00  0.00    -0.004 C 
ATOM      4  C   UNL     1      35.470 -21.681 -19.575  0.00  0.00    -0.004 C 
ATOM      5  C   UNL     1      33.449 -20.025 -20.554  0.00  0.00    -0.000 C 
ATOM      6  C   UNL     1      35.796 -20.550 -20.324  0.00  0.00    -0.000 C 
ATOM      7  C   UNL     1      34.785 -19.724 -20.814  0.00  0.00    -0.000 C 
ENDBRANCH   1   2
BRANCH   1   8
ATOM      8  C   UNL     1      33.440 -22.880 -17.046  0.00  0.00    -0.058 C 
ATOM      9  C   UNL     1      34.322 -23.647 -16.060  0.00  0.00    -0.023 C 
BRANCH   8  10
ATOM     10  N   UNL     1      32.042 -23.235 -16.786  0.00  0.00    +0.384 N 
ATOM     11  C   UNL     1      31.805 -23.373 -15.359  0.00  0.00    -0.106 C 
ATOM     12  H   UNL     1      31.830 -24.120 -17.248  0.00  0.00    -0.085 HD
ATOM     13  H   UNL     1      31.442 -22.496 -17.149  0.00  0.00    -0.085 HD
ENDBRANCH   8  10
ENDBRANCH   1   8
TORSDOF 3
ENDMDL
MODEL 9
REMARK VINA RESULT:      -6.0      1.919      4.888
REMARK  Name = 10836
REMARK  3 active torsions:
REMARK  status: ('A' for Active; 'I' for Inactive)
REMARK    1  A    between atoms: C_1  and  C_2
REMARK    2  A    between atoms: C_1  and  C_8
REMARK    3  A    between atoms: C_8  and  N_10
REMARK                            x       y       z     vdW  Elec       q    Type
REMARK                         _______ _______ _______ _____ _____    ______ ____
ROOT
ATOM      1  C   UNL     1      34.988 -19.515 -22.467  0.00  0.00    +0.005 C 
ENDROOT
BRANCH   1   2
ATOM      2  C   UNL     1      34.804 -18.164 -23.117  0.00  0.00    -0.024 C 
ATOM      3  C   UNL     1      34.683 -18.084 -24.495  0.00  0.00    -0.004 C 
ATOM      4  C   UNL     1      34.760 -17.029 -22.323  0.00  0.00    -0.004 C 
ATOM      5  C   UNL     1      34.513 -16.836 -25.095  0.00  0.00    -0.000 C 
ATOM      6  C   UNL     1      34.590 -15.781 -22.923  0.00  0.00    -0.000 C 
ATOM      7  C   UNL     1      34.467 -15.686 -24.309  0.00  0.00    -0.000 C 
ENDBRANCH   1   2
BRANCH   1   8
ATOM      8  C   UNL     1      35.173 -19.444 -20.941  0.00  0.00    -0.058 C 
ATOM      9  C   UNL     1      36.609 -19.738 -20.509  0.00  0.00    -0.023 C 
BRANCH   8  10
ATOM     10  N   UNL     1      34.289 -20.420 -20.297  0.00  0.00    +0.384 N 
ATOM     11  C   UNL     1      32.896 -20.105 -20.565  0.00  0.00    -0.106 C 
ATOM     12  H   UNL     1      34.449 -20.403 -19.289  0.00  0.00    -0.085 HD
ATOM     13  H   UNL     1      34.494 -21.347 -20.670  0.00  0.00    -0.085 HD
ENDBRANCH   8  10
ENDBRANCH   1   8
TORSDOF 3
ENDMDL
