MODEL 1
REMARK VINA RESULT:     -10.5      0.000      0.000
REMARK  Name = 46937043
REMARK  8 active torsions:
REMARK  status: ('A' for Active; 'I' for Inactive)
REMARK    1  A    between atoms: C_3  and  C_10
REMARK    2  A    between atoms: C_7  and  C_26
REMARK    3  A    between atoms: N_9  and  C_12
REMARK    4  A    between atoms: C_12  and  C_13
REMARK    5  A    between atoms: C_18  and  C_21
REMARK    6  A    between atoms: C_26  and  N_27
REMARK    7  A    between atoms: C_26  and  C_31
REMARK    8  A    between atoms: C_31  and  C_32
REMARK                            x       y       z     vdW  Elec       q    Type
REMARK                         _______ _______ _______ _____ _____    ______ ____
ROOT
ATOM      1  O   UNL     1      34.393 -16.717 -24.216  0.00  0.00    -0.277 OA
ATOM      2  N   UNL     1      33.787 -15.878 -22.145  0.00  0.00    -0.275 N 
ATOM      3  C   UNL     1      32.891 -14.842 -22.641  0.00  0.00    +0.152 C 
ATOM      4  C   UNL     1      32.093 -14.404 -21.419  0.00  0.00    +0.031 C 
ATOM      5  C   UNL     1      33.050 -14.661 -20.259  0.00  0.00    +0.024 C 
ATOM      6  C   UNL     1      33.786 -15.921 -20.685  0.00  0.00    +0.094 C 
ATOM      7  C   UNL     1      34.414 -16.785 -22.986  0.00  0.00    +0.206 C 
ENDROOT
BRANCH   3  10
ATOM      8  O   UNL     1      34.974 -13.759 -23.079  0.00  0.00    -0.273 OA
ATOM      9  N   UNL     1      33.000 -12.713 -23.734  0.00  0.00    -0.299 N 
ATOM     10  C   UNL     1      33.749 -13.733 -23.172  0.00  0.00    +0.241 C 
ATOM     11  H   UNL     1      32.020 -12.807 -23.750  0.00  0.00    +0.150 HD
BRANCH   9  12
ATOM     12  C   UNL     1      33.586 -11.518 -24.297  0.00  0.00    +0.116 C 
BRANCH  12  13
ATOM     13  C   UNL     1      33.289 -10.302 -23.468  0.00  0.00    -0.003 C 
ATOM     14  C   UNL     1      32.249 -10.330 -22.539  0.00  0.00    -0.003 C 
ATOM     15  C   UNL     1      34.052  -9.146 -23.626  0.00  0.00    -0.003 C 
ATOM     16  C   UNL     1      31.974  -9.200 -21.768  0.00  0.00    +0.002 C 
ATOM     17  C   UNL     1      33.777  -8.016 -22.857  0.00  0.00    +0.002 C 
ATOM     18  C   UNL     1      32.737  -8.044 -21.927  0.00  0.00    +0.029 C 
BRANCH  18  21
ATOM     19  N   UNL     1      32.050  -5.731 -21.710  0.00  0.00    -0.387 N 
ATOM     20  N   UNL     1      32.587  -6.913 -19.791  0.00  0.00    -0.345 N 
ATOM     21  C   UNL     1      32.452  -6.873 -21.127  0.00  0.00    +0.095 C 
ATOM     22  H   UNL     1      31.858  -4.939 -21.158  0.00  0.00    +0.157 HD
ATOM     23  H   UNL     1      31.948  -5.687 -22.687  0.00  0.00    +0.157 HD
ATOM     24  H   UNL     1      32.390  -6.112 -19.253  0.00  0.00    +0.144 HD
ATOM     25  H   UNL     1      32.882  -7.742 -19.350  0.00  0.00    +0.144 HD
ENDBRANCH  18  21
ENDBRANCH  12  13
ENDBRANCH   9  12
ENDBRANCH   3  10
BRANCH   7  26
ATOM     26  C   UNL     1      35.164 -17.897 -22.297  0.00  0.00    +0.018 C 
BRANCH  26  27
ATOM     27  N   UNL     1      36.483 -17.911 -22.917  0.00  0.00    +0.388 N 
ATOM     28  H   UNL     1      37.143 -18.385 -22.300  0.00  0.00    -0.089 HD
ATOM     29  H   UNL     1      36.795 -16.954 -23.076  0.00  0.00    -0.089 HD
ATOM     30  H   UNL     1      36.435 -18.406 -23.808  0.00  0.00    -0.089 HD
ENDBRANCH  26  27
BRANCH  26  31
ATOM     31  C   UNL     1      34.452 -19.237 -22.478  0.00  0.00    +0.013 C 
BRANCH  31  32
ATOM     32  C   UNL     1      34.489 -20.090 -21.230  0.00  0.00    -0.024 C 
ATOM     33  C   UNL     1      33.299 -20.444 -20.593  0.00  0.00    -0.004 C 
ATOM     34  C   UNL     1      35.711 -20.522 -20.717  0.00  0.00    -0.004 C 
ATOM     35  C   UNL     1      33.333 -21.231 -19.442  0.00  0.00    -0.000 C 
ATOM     36  C   UNL     1      35.745 -21.310 -19.566  0.00  0.00    -0.000 C 
ATOM     37  C   UNL     1      34.556 -21.664 -18.928  0.00  0.00    -0.000 C 
ENDBRANCH  31  32
ENDBRANCH  26  31
ENDBRANCH   7  26
TORSDOF 8
ENDMDL
MODEL 2
REMARK VINA RESULT:     -10.4      2.586     10.002
REMARK  Name = 46937043
REMARK  8 active torsions:
REMARK  status: ('A' for Active; 'I' for Inactive)
REMARK    1  A    between atoms: C_3  and  C_10
REMARK    2  A    between atoms: C_7  and  C_26
REMARK    3  A    between atoms: N_9  and  C_12
REMARK    4  A    between atoms: C_12  and  C_13
REMARK    5  A    between atoms: C_18  and  C_21
REMARK    6  A    between atoms: C_26  and  N_27
REMARK    7  A    between atoms: C_26  and  C_31
REMARK    8  A    between atoms: C_31  and  C_32
REMARK                            x       y       z     vdW  Elec       q    Type
REMARK                         _______ _______ _______ _____ _____    ______ ____
ROOT
ATOM      1  O   UNL     1      35.158 -14.757 -24.236  0.00  0.00    -0.277 OA
ATOM      2  N   UNL     1      33.765 -14.963 -22.400  0.00  0.00    -0.275 N 
ATOM      3  C   UNL     1      34.685 -15.738 -21.578  0.00  0.00    +0.152 C 
ATOM      4  C   UNL     1      34.102 -15.669 -20.172  0.00  0.00    +0.031 C 
ATOM      5  C   UNL     1      32.603 -15.515 -20.417  0.00  0.00    +0.024 C 
ATOM      6  C   UNL     1      32.540 -14.652 -21.668  0.00  0.00    +0.094 C 
ATOM      7  C   UNL     1      34.114 -14.472 -23.648  0.00  0.00    +0.206 C 
ENDROOT
BRANCH   3  10
ATOM      8  O   UNL     1      33.959 -17.475 -23.048  0.00  0.00    -0.273 OA
ATOM      9  N   UNL     1      35.552 -17.965 -21.422  0.00  0.00    -0.299 N 
ATOM     10  C   UNL     1      34.682 -17.139 -22.113  0.00  0.00    +0.241 C 
ATOM     11  H   UNL     1      36.081 -17.579 -20.688  0.00  0.00    +0.150 HD
BRANCH   9  12
ATOM     12  C   UNL     1      35.719 -19.369 -21.726  0.00  0.00    +0.116 C 
BRANCH  12  13
ATOM     13  C   UNL     1      35.042 -20.248 -20.715  0.00  0.00    -0.003 C 
ATOM     14  C   UNL     1      35.795 -21.140 -19.952  0.00  0.00    -0.003 C 
ATOM     15  C   UNL     1      33.661 -20.172 -20.537  0.00  0.00    -0.003 C 
ATOM     16  C   UNL     1      35.166 -21.957 -19.012  0.00  0.00    +0.002 C 
ATOM     17  C   UNL     1      33.031 -20.988 -19.598  0.00  0.00    +0.002 C 
ATOM     18  C   UNL     1      33.785 -21.881 -18.835  0.00  0.00    +0.029 C 
BRANCH  18  21
ATOM     19  N   UNL     1      33.851 -23.585 -17.114  0.00  0.00    -0.387 N 
ATOM     20  N   UNL     1      31.802 -22.666 -17.687  0.00  0.00    -0.345 N 
ATOM     21  C   UNL     1      33.133 -22.727 -17.860  0.00  0.00    +0.095 C 
ATOM     22  H   UNL     1      33.400 -24.157 -16.452  0.00  0.00    +0.157 HD
ATOM     23  H   UNL     1      34.826 -23.641 -17.231  0.00  0.00    +0.157 HD
ATOM     24  H   UNL     1      31.366 -23.245 -17.020  0.00  0.00    +0.144 HD
ATOM     25  H   UNL     1      31.264 -22.044 -18.227  0.00  0.00    +0.144 HD
ENDBRANCH  18  21
ENDBRANCH  12  13
ENDBRANCH   9  12
ENDBRANCH   3  10
BRANCH   7  26
ATOM     26  C   UNL     1      33.110 -13.545 -24.285  0.00  0.00    +0.018 C 
BRANCH  26  27
ATOM     27  N   UNL     1      32.538 -14.300 -25.392  0.00  0.00    +0.388 N 
ATOM     28  H   UNL     1      33.218 -14.361 -26.150  0.00  0.00    -0.089 HD
ATOM     29  H   UNL     1      31.697 -13.830 -25.727  0.00  0.00    -0.089 HD
ATOM     30  H   UNL     1      32.298 -15.240 -25.074  0.00  0.00    -0.089 HD
ENDBRANCH  26  27
BRANCH  26  31
ATOM     31  C   UNL     1      33.778 -12.261 -24.776  0.00  0.00    +0.013 C 
BRANCH  31  32
ATOM     32  C   UNL     1      33.416 -11.057 -23.937  0.00  0.00    -0.024 C 
ATOM     33  C   UNL     1      34.065  -9.840 -24.147  0.00  0.00    -0.004 C 
ATOM     34  C   UNL     1      32.434 -11.163 -22.953  0.00  0.00    -0.004 C 
ATOM     35  C   UNL     1      33.731  -8.729 -23.374  0.00  0.00    -0.000 C 
ATOM     36  C   UNL     1      32.099 -10.052 -22.178  0.00  0.00    -0.000 C 
ATOM     37  C   UNL     1      32.748  -8.835 -22.389  0.00  0.00    -0.000 C 
ENDBRANCH  31  32
ENDBRANCH  26  31
ENDBRANCH   7  26
TORSDOF 8
ENDMDL
MODEL 3
REMARK VINA RESULT:     -10.4      1.539      2.426
REMARK  Name = 46937043
REMARK  8 active torsions:
REMARK  status: ('A' for Active; 'I' for Inactive)
REMARK    1  A    between atoms: C_3  and  C_10
REMARK    2  A    between atoms: C_7  and  C_26
REMARK    3  A    between atoms: N_9  and  C_12
REMARK    4  A    between atoms: C_12  and  C_13
REMARK    5  A    between atoms: C_18  and  C_21
REMARK    6  A    between atoms: C_26  and  N_27
REMARK    7  A    between atoms: C_26  and  C_31
REMARK    8  A    between atoms: C_31  and  C_32
REMARK                            x       y       z     vdW  Elec       q    Type
REMARK                         _______ _______ _______ _____ _____    ______ ____
ROOT
ATOM      1  O   UNL     1      35.136 -15.872 -20.407  0.00  0.00    -0.277 OA
ATOM      2  N   UNL     1      34.560 -16.069 -22.640  0.00  0.00    -0.275 N 
ATOM      3  C   UNL     1      34.312 -14.652 -22.874  0.00  0.00    +0.152 C 
ATOM      4  C   UNL     1      34.275 -14.511 -24.391  0.00  0.00    +0.031 C 
ATOM      5  C   UNL     1      33.779 -15.875 -24.862  0.00  0.00    +0.024 C 
ATOM      6  C   UNL     1      34.414 -16.839 -23.872  0.00  0.00    +0.094 C 
ATOM      7  C   UNL     1      35.026 -16.553 -21.427  0.00  0.00    +0.206 C 
ENDROOT
BRANCH   3  10
ATOM      8  O   UNL     1      32.245 -15.201 -21.813  0.00  0.00    -0.273 OA
ATOM      9  N   UNL     1      32.723 -12.968 -22.263  0.00  0.00    -0.299 N 
ATOM     10  C   UNL     1      32.987 -14.327 -22.252  0.00  0.00    +0.241 C 
ATOM     11  H   UNL     1      33.399 -12.362 -22.644  0.00  0.00    +0.150 HD
BRANCH   9  12
ATOM     12  C   UNL     1      31.502 -12.395 -21.744  0.00  0.00    +0.116 C 
BRANCH  12  13
ATOM     13  C   UNL     1      31.658 -10.938 -21.418  0.00  0.00    -0.003 C 
ATOM     14  C   UNL     1      31.803 -10.006 -22.445  0.00  0.00    -0.003 C 
ATOM     15  C   UNL     1      31.657 -10.516 -20.089  0.00  0.00    -0.003 C 
ATOM     16  C   UNL     1      31.947  -8.652 -22.142  0.00  0.00    +0.002 C 
ATOM     17  C   UNL     1      31.802  -9.163 -19.785  0.00  0.00    +0.002 C 
ATOM     18  C   UNL     1      31.947  -8.231 -20.813  0.00  0.00    +0.029 C 
BRANCH  18  21
ATOM     19  N   UNL     1      31.579  -5.889 -21.312  0.00  0.00    -0.387 N 
ATOM     20  N   UNL     1      32.752  -6.442 -19.392  0.00  0.00    -0.345 N 
ATOM     21  C   UNL     1      32.095  -6.827 -20.499  0.00  0.00    +0.095 C 
ATOM     22  H   UNL     1      31.684  -4.935 -21.091  0.00  0.00    +0.157 HD
ATOM     23  H   UNL     1      31.097  -6.156 -22.127  0.00  0.00    +0.157 HD
ATOM     24  H   UNL     1      32.848  -5.484 -19.185  0.00  0.00    +0.144 HD
ATOM     25  H   UNL     1      33.136  -7.118 -18.788  0.00  0.00    +0.144 HD
ENDBRANCH  18  21
ENDBRANCH  12  13
ENDBRANCH   9  12
ENDBRANCH   3  10
BRANCH   7  26
ATOM     26  C   UNL     1      35.396 -18.014 -21.412  0.00  0.00    +0.018 C 
BRANCH  26  27
ATOM     27  N   UNL     1      36.247 -18.207 -22.579  0.00  0.00    +0.388 N 
ATOM     28  H   UNL     1      35.750 -17.905 -23.416  0.00  0.00    -0.089 HD
ATOM     29  H   UNL     1      36.488 -19.194 -22.665  0.00  0.00    -0.089 HD
ATOM     30  H   UNL     1      37.100 -17.657 -22.472  0.00  0.00    -0.089 HD
ENDBRANCH  26  27
BRANCH  26  31
ATOM     31  C   UNL     1      34.152 -18.900 -21.480  0.00  0.00    +0.013 C 
BRANCH  31  32
ATOM     32  C   UNL     1      34.236 -20.096 -20.560  0.00  0.00    -0.024 C 
ATOM     33  C   UNL     1      35.476 -20.667 -20.270  0.00  0.00    -0.004 C 
ATOM     34  C   UNL     1      33.076 -20.629 -20.002  0.00  0.00    -0.004 C 
ATOM     35  C   UNL     1      35.554 -21.770 -19.421  0.00  0.00    -0.000 C 
ATOM     36  C   UNL     1      33.152 -21.733 -19.152  0.00  0.00    -0.000 C 
ATOM     37  C   UNL     1      34.392 -22.303 -18.862  0.00  0.00    -0.000 C 
ENDBRANCH  31  32
ENDBRANCH  26  31
ENDBRANCH   7  26
TORSDOF 8
ENDMDL
MODEL 4
REMARK VINA RESULT:     -10.3      8.589     13.772
REMARK  Name = 46937043
REMARK  8 active torsions:
REMARK  status: ('A' for Active; 'I' for Inactive)
REMARK    1  A    between atoms: C_3  and  C_10
REMARK    2  A    between atoms: C_7  and  C_26
REMARK    3  A    between atoms: N_9  and  C_12
REMARK    4  A    between atoms: C_12  and  C_13
REMARK    5  A    between atoms: C_18  and  C_21
REMARK    6  A    between atoms: C_26  and  N_27
REMARK    7  A    between atoms: C_26  and  C_31
REMARK    8  A    between atoms: C_31  and  C_32
REMARK                            x       y       z     vdW  Elec       q    Type
REMARK                         _______ _______ _______ _____ _____    ______ ____
ROOT
ATOM      1  O   UNL     1      34.646 -22.604 -16.005  0.00  0.00    -0.277 OA
ATOM      2  N   UNL     1      32.388 -23.109 -15.959  0.00  0.00    -0.275 N 
ATOM      3  C   UNL     1      32.186 -22.844 -14.541  0.00  0.00    +0.152 C 
ATOM      4  C   UNL     1      30.674 -22.761 -14.374  0.00  0.00    +0.031 C 
ATOM      5  C   UNL     1      30.144 -23.673 -15.477  0.00  0.00    +0.024 C 
ATOM      6  C   UNL     1      31.129 -23.454 -16.615  0.00  0.00    +0.094 C 
ATOM      7  C   UNL     1      33.603 -22.894 -16.591  0.00  0.00    +0.206 C 
ENDROOT
BRANCH   3  10
ATOM      8  O   UNL     1      32.201 -25.094 -13.740  0.00  0.00    -0.273 OA
ATOM      9  N   UNL     1      33.960 -23.681 -13.166  0.00  0.00    -0.299 N 
ATOM     10  C   UNL     1      32.766 -24.004 -13.788  0.00  0.00    +0.241 C 
ATOM     11  H   UNL     1      34.315 -22.769 -13.279  0.00  0.00    +0.150 HD
BRANCH   9  12
ATOM     12  C   UNL     1      34.710 -24.616 -12.359  0.00  0.00    +0.116 C 
BRANCH  12  13
ATOM     13  C   UNL     1      36.056 -24.917 -12.951  0.00  0.00    -0.003 C 
ATOM     14  C   UNL     1      37.198 -24.853 -12.151  0.00  0.00    -0.003 C 
ATOM     15  C   UNL     1      36.166 -25.261 -14.297  0.00  0.00    -0.003 C 
ATOM     16  C   UNL     1      38.449 -25.133 -12.701  0.00  0.00    +0.002 C 
ATOM     17  C   UNL     1      37.417 -25.541 -14.847  0.00  0.00    +0.002 C 
ATOM     18  C   UNL     1      38.559 -25.477 -14.048  0.00  0.00    +0.029 C 
BRANCH  18  21
ATOM     19  N   UNL     1      40.706 -26.597 -13.986  0.00  0.00    -0.387 N 
ATOM     20  N   UNL     1      40.228 -25.215 -15.784  0.00  0.00    -0.345 N 
ATOM     21  C   UNL     1      39.856 -25.769 -14.617  0.00  0.00    +0.095 C 
ATOM     22  H   UNL     1      41.587 -26.790 -14.380  0.00  0.00    +0.157 HD
ATOM     23  H   UNL     1      40.448 -27.008 -13.131  0.00  0.00    +0.157 HD
ATOM     24  H   UNL     1      41.112 -25.419 -16.165  0.00  0.00    +0.144 HD
ATOM     25  H   UNL     1      39.616 -24.606 -16.257  0.00  0.00    +0.144 HD
ENDBRANCH  18  21
ENDBRANCH  12  13
ENDBRANCH   9  12
ENDBRANCH   3  10
BRANCH   7  26
ATOM     26  C   UNL     1      33.590 -23.049 -18.091  0.00  0.00    +0.018 C 
BRANCH  26  27
ATOM     27  N   UNL     1      33.561 -24.487 -18.327  0.00  0.00    +0.388 N 
ATOM     28  H   UNL     1      34.515 -24.838 -18.411  0.00  0.00    -0.089 HD
ATOM     29  H   UNL     1      33.052 -24.680 -19.190  0.00  0.00    -0.089 HD
ATOM     30  H   UNL     1      33.095 -24.950 -17.547  0.00  0.00    -0.089 HD
ENDBRANCH  26  27
BRANCH  26  31
ATOM     31  C   UNL     1      34.826 -22.409 -18.723  0.00  0.00    +0.013 C 
BRANCH  31  32
ATOM     32  C   UNL     1      34.482 -21.249 -19.630  0.00  0.00    -0.024 C 
ATOM     33  C   UNL     1      35.498 -20.544 -20.275  0.00  0.00    -0.004 C 
ATOM     34  C   UNL     1      33.150 -20.885 -19.821  0.00  0.00    -0.004 C 
ATOM     35  C   UNL     1      35.182 -19.474 -21.112  0.00  0.00    -0.000 C 
ATOM     36  C   UNL     1      32.832 -19.815 -20.659  0.00  0.00    -0.000 C 
ATOM     37  C   UNL     1      33.848 -19.110 -21.304  0.00  0.00    -0.000 C 
ENDBRANCH  31  32
ENDBRANCH  26  31
ENDBRANCH   7  26
TORSDOF 8
ENDMDL
MODEL 5
REMARK VINA RESULT:     -10.3      3.552     10.669
REMARK  Name = 46937043
REMARK  8 active torsions:
REMARK  status: ('A' for Active; 'I' for Inactive)
REMARK    1  A    between atoms: C_3  and  C_10
REMARK    2  A    between atoms: C_7  and  C_26
REMARK    3  A    between atoms: N_9  and  C_12
REMARK    4  A    between atoms: C_12  and  C_13
REMARK    5  A    between atoms: C_18  and  C_21
REMARK    6  A    between atoms: C_26  and  N_27
REMARK    7  A    between atoms: C_26  and  C_31
REMARK    8  A    between atoms: C_31  and  C_32
REMARK                            x       y       z     vdW  Elec       q    Type
REMARK                         _______ _______ _______ _____ _____    ______ ____
ROOT
ATOM      1  O   UNL     1      34.221 -16.542 -20.402  0.00  0.00    -0.277 OA
ATOM      2  N   UNL     1      34.650 -17.431 -22.496  0.00  0.00    -0.275 N 
ATOM      3  C   UNL     1      34.478 -18.829 -22.122  0.00  0.00    +0.152 C 
ATOM      4  C   UNL     1      34.355 -19.571 -23.447  0.00  0.00    +0.031 C 
ATOM      5  C   UNL     1      35.169 -18.714 -24.411  0.00  0.00    +0.024 C 
ATOM      6  C   UNL     1      34.906 -17.297 -23.927  0.00  0.00    +0.094 C 
ATOM      7  C   UNL     1      34.434 -16.390 -21.606  0.00  0.00    +0.206 C 
ENDROOT
BRANCH   3  10
ATOM      8  O   UNL     1      36.765 -18.624 -21.467  0.00  0.00    -0.273 OA
ATOM      9  N   UNL     1      35.493 -20.368 -20.593  0.00  0.00    -0.299 N 
ATOM     10  C   UNL     1      35.706 -19.239 -21.366  0.00  0.00    +0.241 C 
ATOM     11  H   UNL     1      34.597 -20.773 -20.594  0.00  0.00    +0.150 HD
BRANCH   9  12
ATOM     12  C   UNL     1      36.525 -20.980 -19.786  0.00  0.00    +0.116 C 
BRANCH  12  13
ATOM     13  C   UNL     1      35.956 -21.696 -18.596  0.00  0.00    -0.003 C 
ATOM     14  C   UNL     1      36.727 -21.851 -17.443  0.00  0.00    -0.003 C 
ATOM     15  C   UNL     1      34.659 -22.206 -18.641  0.00  0.00    -0.003 C 
ATOM     16  C   UNL     1      36.199 -22.516 -16.337  0.00  0.00    +0.002 C 
ATOM     17  C   UNL     1      34.131 -22.871 -17.535  0.00  0.00    +0.002 C 
ATOM     18  C   UNL     1      34.902 -23.026 -16.383  0.00  0.00    +0.029 C 
BRANCH  18  21
ATOM     19  N   UNL     1      33.306 -23.201 -14.568  0.00  0.00    -0.387 N 
ATOM     20  N   UNL     1      34.887 -24.875 -14.819  0.00  0.00    -0.345 N 
ATOM     21  C   UNL     1      34.354 -23.714 -15.234  0.00  0.00    +0.095 C 
ATOM     22  H   UNL     1      32.939 -23.675 -13.787  0.00  0.00    +0.157 HD
ATOM     23  H   UNL     1      32.907 -22.350 -14.860  0.00  0.00    +0.157 HD
ATOM     24  H   UNL     1      34.509 -25.338 -14.036  0.00  0.00    +0.144 HD
ATOM     25  H   UNL     1      35.656 -25.263 -15.296  0.00  0.00    +0.144 HD
ENDBRANCH  18  21
ENDBRANCH  12  13
ENDBRANCH   9  12
ENDBRANCH   3  10
BRANCH   7  26
ATOM     26  C   UNL     1      34.484 -15.006 -22.202  0.00  0.00    +0.018 C 
BRANCH  26  27
ATOM     27  N   UNL     1      34.839 -14.125 -21.097  0.00  0.00    +0.388 N 
ATOM     28  H   UNL     1      34.114 -14.168 -20.380  0.00  0.00    -0.089 HD
ATOM     29  H   UNL     1      34.923 -13.168 -21.437  0.00  0.00    -0.089 HD
ATOM     30  H   UNL     1      35.730 -14.423 -20.698  0.00  0.00    -0.089 HD
ENDBRANCH  26  27
BRANCH  26  31
ATOM     31  C   UNL     1      33.137 -14.617 -22.810  0.00  0.00    +0.013 C 
BRANCH  31  32
ATOM     32  C   UNL     1      33.280 -13.912 -24.139  0.00  0.00    -0.024 C 
ATOM     33  C   UNL     1      33.700 -12.582 -24.181  0.00  0.00    -0.004 C 
ATOM     34  C   UNL     1      32.990 -14.589 -25.322  0.00  0.00    -0.004 C 
ATOM     35  C   UNL     1      33.832 -11.931 -25.408  0.00  0.00    -0.000 C 
ATOM     36  C   UNL     1      33.122 -13.939 -26.550  0.00  0.00    -0.000 C 
ATOM     37  C   UNL     1      33.543 -12.609 -26.592  0.00  0.00    -0.000 C 
ENDBRANCH  31  32
ENDBRANCH  26  31
ENDBRANCH   7  26
TORSDOF 8
ENDMDL
MODEL 6
REMARK VINA RESULT:     -10.2      2.612      9.775
REMARK  Name = 46937043
REMARK  8 active torsions:
REMARK  status: ('A' for Active; 'I' for Inactive)
REMARK    1  A    between atoms: C_3  and  C_10
REMARK    2  A    between atoms: C_7  and  C_26
REMARK    3  A    between atoms: N_9  and  C_12
REMARK    4  A    between atoms: C_12  and  C_13
REMARK    5  A    between atoms: C_18  and  C_21
REMARK    6  A    between atoms: C_26  and  N_27
REMARK    7  A    between atoms: C_26  and  C_31
REMARK    8  A    between atoms: C_31  and  C_32
REMARK                            x       y       z     vdW  Elec       q    Type
REMARK                         _______ _______ _______ _____ _____    ______ ____
ROOT
ATOM      1  O   UNL     1      34.735 -15.285 -24.465  0.00  0.00    -0.277 OA
ATOM      2  N   UNL     1      33.675 -14.577 -22.533  0.00  0.00    -0.275 N 
ATOM      3  C   UNL     1      34.474 -15.367 -21.605  0.00  0.00    +0.152 C 
ATOM      4  C   UNL     1      34.182 -14.767 -20.235  0.00  0.00    +0.031 C 
ATOM      5  C   UNL     1      32.765 -14.221 -20.381  0.00  0.00    +0.024 C 
ATOM      6  C   UNL     1      32.726 -13.727 -21.818  0.00  0.00    +0.094 C 
ATOM      7  C   UNL     1      33.926 -14.551 -23.896  0.00  0.00    +0.206 C 
ENDROOT
BRANCH   3  10
ATOM      8  O   UNL     1      32.955 -17.157 -21.169  0.00  0.00    -0.273 OA
ATOM      9  N   UNL     1      34.863 -17.580 -22.435  0.00  0.00    -0.299 N 
ATOM     10  C   UNL     1      33.996 -16.784 -21.706  0.00  0.00    +0.241 C 
ATOM     11  H   UNL     1      35.669 -17.164 -22.818  0.00  0.00    +0.150 HD
BRANCH   9  12
ATOM     12  C   UNL     1      34.643 -18.991 -22.660  0.00  0.00    +0.116 C 
BRANCH  12  13
ATOM     13  C   UNL     1      34.899 -19.804 -21.424  0.00  0.00    -0.003 C 
ATOM     14  C   UNL     1      33.842 -20.455 -20.788  0.00  0.00    -0.003 C 
ATOM     15  C   UNL     1      36.192 -19.909 -20.913  0.00  0.00    -0.003 C 
ATOM     16  C   UNL     1      34.080 -21.212 -19.640  0.00  0.00    +0.002 C 
ATOM     17  C   UNL     1      36.430 -20.665 -19.765  0.00  0.00    +0.002 C 
ATOM     18  C   UNL     1      35.373 -21.316 -19.129  0.00  0.00    +0.029 C 
BRANCH  18  21
ATOM     19  N   UNL     1      34.639 -22.844 -17.398  0.00  0.00    -0.387 N 
ATOM     20  N   UNL     1      36.832 -22.098 -17.361  0.00  0.00    -0.345 N 
ATOM     21  C   UNL     1      35.620 -22.102 -17.940  0.00  0.00    +0.095 C 
ATOM     22  H   UNL     1      34.815 -23.376 -16.589  0.00  0.00    +0.157 HD
ATOM     23  H   UNL     1      33.745 -22.855 -17.811  0.00  0.00    +0.157 HD
ATOM     24  H   UNL     1      36.992 -22.636 -16.552  0.00  0.00    +0.144 HD
ATOM     25  H   UNL     1      37.560 -21.559 -17.746  0.00  0.00    +0.144 HD
ENDBRANCH  18  21
ENDBRANCH  12  13
ENDBRANCH   9  12
ENDBRANCH   3  10
BRANCH   7  26
ATOM     26  C   UNL     1      33.120 -13.549 -24.684  0.00  0.00    +0.018 C 
BRANCH  26  27
ATOM     27  N   UNL     1      32.418 -14.331 -25.694  0.00  0.00    +0.388 N 
ATOM     28  H   UNL     1      33.089 -14.696 -26.370  0.00  0.00    -0.089 HD
ATOM     29  H   UNL     1      31.741 -13.738 -26.174  0.00  0.00    -0.089 HD
ATOM     30  H   UNL     1      31.931 -15.107 -25.244  0.00  0.00    -0.089 HD
ENDBRANCH  26  27
BRANCH  26  31
ATOM     31  C   UNL     1      34.024 -12.498 -25.327  0.00  0.00    +0.013 C 
BRANCH  31  32
ATOM     32  C   UNL     1      33.962 -11.163 -24.620  0.00  0.00    -0.024 C 
ATOM     33  C   UNL     1      32.932 -10.901 -23.716  0.00  0.00    -0.004 C 
ATOM     34  C   UNL     1      34.933 -10.195 -24.870  0.00  0.00    -0.004 C 
ATOM     35  C   UNL     1      32.874  -9.670 -23.062  0.00  0.00    -0.000 C 
ATOM     36  C   UNL     1      34.877  -8.964 -24.217  0.00  0.00    -0.000 C 
ATOM     37  C   UNL     1      33.847  -8.702 -23.313  0.00  0.00    -0.000 C 
ENDBRANCH  31  32
ENDBRANCH  26  31
ENDBRANCH   7  26
TORSDOF 8
ENDMDL
MODEL 7
REMARK VINA RESULT:     -10.0      1.406      2.115
REMARK  Name = 46937043
REMARK  8 active torsions:
REMARK  status: ('A' for Active; 'I' for Inactive)
REMARK    1  A    between atoms: C_3  and  C_10
REMARK    2  A    between atoms: C_7  and  C_26
REMARK    3  A    between atoms: N_9  and  C_12
REMARK    4  A    between atoms: C_12  and  C_13
REMARK    5  A    between atoms: C_18  and  C_21
REMARK    6  A    between atoms: C_26  and  N_27
REMARK    7  A    between atoms: C_26  and  C_31
REMARK    8  A    between atoms: C_31  and  C_32
REMARK                            x       y       z     vdW  Elec       q    Type
REMARK                         _______ _______ _______ _____ _____    ______ ____
ROOT
ATOM      1  O   UNL     1      34.324 -18.108 -23.558  0.00  0.00    -0.277 OA
ATOM      2  N   UNL     1      34.211 -16.570 -21.832  0.00  0.00    -0.275 N 
ATOM      3  C   UNL     1      33.243 -15.682 -22.463  0.00  0.00    +0.152 C 
ATOM      4  C   UNL     1      32.746 -14.787 -21.334  0.00  0.00    +0.031 C 
ATOM      5  C   UNL     1      33.934 -14.727 -20.379  0.00  0.00    +0.024 C 
ATOM      6  C   UNL     1      34.536 -16.119 -20.481  0.00  0.00    +0.094 C 
ATOM      7  C   UNL     1      34.619 -17.760 -22.414  0.00  0.00    +0.206 C 
ENDROOT
BRANCH   3  10
ATOM      8  O   UNL     1      35.190 -15.018 -23.676  0.00  0.00    -0.273 OA
ATOM      9  N   UNL     1      33.141 -14.053 -24.215  0.00  0.00    -0.299 N 
ATOM     10  C   UNL     1      33.978 -14.901 -23.510  0.00  0.00    +0.241 C 
ATOM     11  H   UNL     1      32.183 -14.048 -23.991  0.00  0.00    +0.150 HD
BRANCH   9  12
ATOM     12  C   UNL     1      33.606 -13.174 -25.264  0.00  0.00    +0.116 C 
BRANCH  12  13
ATOM     13  C   UNL     1      33.767 -11.761 -24.784  0.00  0.00    -0.003 C 
ATOM     14  C   UNL     1      32.932 -11.267 -23.781  0.00  0.00    -0.003 C 
ATOM     15  C   UNL     1      34.751 -10.942 -25.338  0.00  0.00    -0.003 C 
ATOM     16  C   UNL     1      33.082  -9.954 -23.334  0.00  0.00    +0.002 C 
ATOM     17  C   UNL     1      34.901  -9.630 -24.892  0.00  0.00    +0.002 C 
ATOM     18  C   UNL     1      34.066  -9.136 -23.889  0.00  0.00    +0.029 C 
BRANCH  18  21
ATOM     19  N   UNL     1      33.973  -7.461 -22.141  0.00  0.00    -0.387 N 
ATOM     20  N   UNL     1      34.615  -6.808 -24.269  0.00  0.00    -0.345 N 
ATOM     21  C   UNL     1      34.221  -7.775 -23.424  0.00  0.00    +0.095 C 
ATOM     22  H   UNL     1      34.082  -6.532 -21.833  0.00  0.00    +0.157 HD
ATOM     23  H   UNL     1      33.682  -8.159 -21.511  0.00  0.00    +0.157 HD
ATOM     24  H   UNL     1      34.720  -5.884 -23.945  0.00  0.00    +0.144 HD
ATOM     25  H   UNL     1      34.800  -7.023 -25.212  0.00  0.00    +0.144 HD
ENDBRANCH  18  21
ENDBRANCH  12  13
ENDBRANCH   9  12
ENDBRANCH   3  10
BRANCH   7  26
ATOM     26  C   UNL     1      35.486 -18.641 -21.549  0.00  0.00    +0.018 C 
BRANCH  26  27
ATOM     27  N   UNL     1      36.827 -18.526 -22.109  0.00  0.00    +0.388 N 
ATOM     28  H   UNL     1      36.791 -18.691 -23.115  0.00  0.00    -0.089 HD
ATOM     29  H   UNL     1      37.438 -19.218 -21.674  0.00  0.00    -0.089 HD
ATOM     30  H   UNL     1      37.191 -17.590 -21.929  0.00  0.00    -0.089 HD
ENDBRANCH  26  27
BRANCH  26  31
ATOM     31  C   UNL     1      34.998 -20.089 -21.572  0.00  0.00    +0.013 C 
BRANCH  31  32
ATOM     32  C   UNL     1      35.213 -20.797 -20.253  0.00  0.00    -0.024 C 
ATOM     33  C   UNL     1      36.455 -20.733 -19.622  0.00  0.00    -0.004 C 
ATOM     34  C   UNL     1      34.170 -21.513 -19.669  0.00  0.00    -0.004 C 
ATOM     35  C   UNL     1      36.654 -21.385 -18.405  0.00  0.00    -0.000 C 
ATOM     36  C   UNL     1      34.366 -22.166 -18.451  0.00  0.00    -0.000 C 
ATOM     37  C   UNL     1      35.609 -22.102 -17.820  0.00  0.00    -0.000 C 
ENDBRANCH  31  32
ENDBRANCH  26  31
ENDBRANCH   7  26
TORSDOF 8
ENDMDL
MODEL 8
REMARK VINA RESULT:     -10.0      8.139     12.355
REMARK  Name = 46937043
REMARK  8 active torsions:
REMARK  status: ('A' for Active; 'I' for Inactive)
REMARK    1  A    between atoms: C_3  and  C_10
REMARK    2  A    between atoms: C_7  and  C_26
REMARK    3  A    between atoms: N_9  and  C_12
REMARK    4  A    between atoms: C_12  and  C_13
REMARK    5  A    between atoms: C_18  and  C_21
REMARK    6  A    between atoms: C_26  and  N_27
REMARK    7  A    between atoms: C_26  and  C_31
REMARK    8  A    between atoms: C_31  and  C_32
REMARK                            x       y       z     vdW  Elec       q    Type
REMARK                         _______ _______ _______ _____ _____    ______ ____
ROOT
ATOM      1  O   UNL     1      33.308 -24.146 -17.416  0.00  0.00    -0.277 OA
ATOM      2  N   UNL     1      35.141 -23.213 -16.354  0.00  0.00    -0.275 N 
ATOM      3  C   UNL     1      35.410 -24.338 -15.468  0.00  0.00    +0.152 C 
ATOM      4  C   UNL     1      36.813 -24.081 -14.931  0.00  0.00    +0.031 C 
ATOM      5  C   UNL     1      36.928 -22.559 -14.953  0.00  0.00    +0.024 C 
ATOM      6  C   UNL     1      36.147 -22.167 -16.198  0.00  0.00    +0.094 C 
ATOM      7  C   UNL     1      34.141 -23.245 -17.315  0.00  0.00    +0.206 C 
ENDROOT
BRANCH   3  10
ATOM      8  O   UNL     1      34.615 -23.790 -13.284  0.00  0.00    -0.273 OA
ATOM      9  N   UNL     1      33.196 -24.906 -14.754  0.00  0.00    -0.299 N 
ATOM     10  C   UNL     1      34.381 -24.298 -14.378  0.00  0.00    +0.241 C 
ATOM     11  H   UNL     1      33.128 -25.279 -15.662  0.00  0.00    +0.150 HD
BRANCH   9  12
ATOM     12  C   UNL     1      32.053 -25.021 -13.876  0.00  0.00    +0.116 C 
BRANCH  12  13
ATOM     13  C   UNL     1      30.833 -24.362 -14.452  0.00  0.00    -0.003 C 
ATOM     14  C   UNL     1      30.783 -22.973 -14.569  0.00  0.00    -0.003 C 
ATOM     15  C   UNL     1      29.752 -25.137 -14.869  0.00  0.00    -0.003 C 
ATOM     16  C   UNL     1      29.650 -22.360 -15.104  0.00  0.00    +0.002 C 
ATOM     17  C   UNL     1      28.619 -24.524 -15.404  0.00  0.00    +0.002 C 
ATOM     18  C   UNL     1      28.568 -23.135 -15.522  0.00  0.00    +0.029 C 
BRANCH  18  21
ATOM     19  N   UNL     1      26.417 -22.048 -15.273  0.00  0.00    -0.387 N 
ATOM     20  N   UNL     1      27.266 -22.352 -17.407  0.00  0.00    -0.345 N 
ATOM     21  C   UNL     1      27.395 -22.499 -16.078  0.00  0.00    +0.095 C 
ATOM     22  H   UNL     1      25.622 -21.616 -15.660  0.00  0.00    +0.157 HD
ATOM     23  H   UNL     1      26.497 -22.151 -14.298  0.00  0.00    +0.157 HD
ATOM     24  H   UNL     1      26.465 -21.917 -17.779  0.00  0.00    +0.144 HD
ATOM     25  H   UNL     1      27.973 -22.678 -18.010  0.00  0.00    +0.144 HD
ENDBRANCH  18  21
ENDBRANCH  12  13
ENDBRANCH   9  12
ENDBRANCH   3  10
BRANCH   7  26
ATOM     26  C   UNL     1      34.114 -22.071 -18.261  0.00  0.00    +0.018 C 
BRANCH  26  27
ATOM     27  N   UNL     1      32.733 -21.981 -18.720  0.00  0.00    +0.388 N 
ATOM     28  H   UNL     1      32.719 -21.737 -19.710  0.00  0.00    -0.089 HD
ATOM     29  H   UNL     1      32.243 -21.263 -18.186  0.00  0.00    -0.089 HD
ATOM     30  H   UNL     1      32.271 -22.880 -18.583  0.00  0.00    -0.089 HD
ENDBRANCH  26  27
BRANCH  26  31
ATOM     31  C   UNL     1      35.074 -22.282 -19.430  0.00  0.00    +0.013 C 
BRANCH  31  32
ATOM     32  C   UNL     1      35.434 -20.991 -20.130  0.00  0.00    -0.024 C 
ATOM     33  C   UNL     1      34.448 -20.258 -20.790  0.00  0.00    -0.004 C 
ATOM     34  C   UNL     1      36.750 -20.534 -20.114  0.00  0.00    -0.004 C 
ATOM     35  C   UNL     1      34.779 -19.066 -21.435  0.00  0.00    -0.000 C 
ATOM     36  C   UNL     1      37.083 -19.341 -20.758  0.00  0.00    -0.000 C 
ATOM     37  C   UNL     1      36.097 -18.608 -21.419  0.00  0.00    -0.000 C 
ENDBRANCH  31  32
ENDBRANCH  26  31
ENDBRANCH   7  26
TORSDOF 8
ENDMDL
MODEL 9
REMARK VINA RESULT:      -9.9      2.324     10.003
REMARK  Name = 46937043
REMARK  8 active torsions:
REMARK  status: ('A' for Active; 'I' for Inactive)
REMARK    1  A    between atoms: C_3  and  C_10
REMARK    2  A    between atoms: C_7  and  C_26
REMARK    3  A    between atoms: N_9  and  C_12
REMARK    4  A    between atoms: C_12  and  C_13
REMARK    5  A    between atoms: C_18  and  C_21
REMARK    6  A    between atoms: C_26  and  N_27
REMARK    7  A    between atoms: C_26  and  C_31
REMARK    8  A    between atoms: C_31  and  C_32
REMARK                            x       y       z     vdW  Elec       q    Type
REMARK                         _______ _______ _______ _____ _____    ______ ____
ROOT
ATOM      1  O   UNL     1      32.105 -13.960 -20.604  0.00  0.00    -0.277 OA
ATOM      2  N   UNL     1      32.889 -13.207 -22.648  0.00  0.00    -0.275 N 
ATOM      3  C   UNL     1      33.023 -14.518 -23.268  0.00  0.00    +0.152 C 
ATOM      4  C   UNL     1      33.180 -14.227 -24.756  0.00  0.00    +0.031 C 
ATOM      5  C   UNL     1      33.840 -12.852 -24.782  0.00  0.00    +0.024 C 
ATOM      6  C   UNL     1      33.214 -12.141 -23.592  0.00  0.00    +0.094 C 
ATOM      7  C   UNL     1      32.366 -13.036 -21.375  0.00  0.00    +0.206 C 
ENDROOT
BRANCH   3  10
ATOM      8  O   UNL     1      34.973 -14.568 -21.890  0.00  0.00    -0.273 OA
ATOM      9  N   UNL     1      34.463 -16.430 -23.191  0.00  0.00    -0.299 N 
ATOM     10  C   UNL     1      34.253 -15.155 -22.694  0.00  0.00    +0.241 C 
ATOM     11  H   UNL     1      33.813 -16.795 -23.834  0.00  0.00    +0.150 HD
BRANCH   9  12
ATOM     12  C   UNL     1      35.592 -17.250 -22.814  0.00  0.00    +0.116 C 
BRANCH  12  13
ATOM     13  C   UNL     1      35.189 -18.385 -21.918  0.00  0.00    -0.003 C 
ATOM     14  C   UNL     1      36.161 -19.096 -21.214  0.00  0.00    -0.003 C 
ATOM     15  C   UNL     1      33.843 -18.727 -21.787  0.00  0.00    -0.003 C 
ATOM     16  C   UNL     1      35.786 -20.150 -20.381  0.00  0.00    +0.002 C 
ATOM     17  C   UNL     1      33.468 -19.781 -20.955  0.00  0.00    +0.002 C 
ATOM     18  C   UNL     1      34.440 -20.493 -20.251  0.00  0.00    +0.029 C 
BRANCH  18  21
ATOM     19  N   UNL     1      32.754 -21.827 -19.134  0.00  0.00    -0.387 N 
ATOM     20  N   UNL     1      34.985 -22.370 -18.821  0.00  0.00    -0.345 N 
ATOM     21  C   UNL     1      34.052 -21.584 -19.386  0.00  0.00    +0.095 C 
ATOM     22  H   UNL     1      32.498 -22.572 -18.544  0.00  0.00    +0.157 HD
ATOM     23  H   UNL     1      32.061 -21.258 -19.539  0.00  0.00    +0.157 HD
ATOM     24  H   UNL     1      34.713 -23.112 -18.234  0.00  0.00    +0.144 HD
ATOM     25  H   UNL     1      35.939 -22.204 -18.995  0.00  0.00    +0.144 HD
ENDBRANCH  18  21
ENDBRANCH  12  13
ENDBRANCH   9  12
ENDBRANCH   3  10
BRANCH   7  26
ATOM     26  C   UNL     1      32.134 -11.606 -20.956  0.00  0.00    +0.018 C 
BRANCH  26  27
ATOM     27  N   UNL     1      31.549 -11.686 -19.624  0.00  0.00    +0.388 N 
ATOM     28  H   UNL     1      30.596 -12.044 -19.692  0.00  0.00    -0.089 HD
ATOM     29  H   UNL     1      31.533 -10.758 -19.202  0.00  0.00    -0.089 HD
ATOM     30  H   UNL     1      32.107 -12.314 -19.045  0.00  0.00    -0.089 HD
ENDBRANCH  26  27
BRANCH  26  31
ATOM     31  C   UNL     1      31.200 -10.890 -21.930  0.00  0.00    +0.013 C 
BRANCH  31  32
ATOM     32  C   UNL     1      31.554  -9.432 -22.114  0.00  0.00    -0.024 C 
ATOM     33  C   UNL     1      32.257  -8.754 -21.117  0.00  0.00    -0.004 C 
ATOM     34  C   UNL     1      31.179  -8.765 -23.278  0.00  0.00    -0.004 C 
ATOM     35  C   UNL     1      32.585  -7.409 -21.286  0.00  0.00    -0.000 C 
ATOM     36  C   UNL     1      31.507  -7.419 -23.449  0.00  0.00    -0.000 C 
ATOM     37  C   UNL     1      32.210  -6.742 -22.453  0.00  0.00    -0.000 C 
ENDBRANCH  31  32
ENDBRANCH  26  31
ENDBRANCH   7  26
TORSDOF 8
ENDMDL
