MODEL 1
REMARK VINA RESULT:      -5.8      0.000      0.000
REMARK  Name = 667490
REMARK  0 active torsions:
REMARK  status: ('A' for Active; 'I' for Inactive)
REMARK                            x       y       z     vdW  Elec       q    Type
REMARK                         _______ _______ _______ _____ _____    ______ ____
ROOT
ATOM      1  S   UNL     1      33.390 -23.233 -17.654  0.00  0.00    +0.012 S 
ATOM      2  N   UNL     1      32.668 -21.007 -19.903  0.00  0.00    -0.307 N 
ATOM      3  N   UNL     1      36.071 -20.468 -20.021  0.00  0.00    -0.299 N 
ATOM      4  N   UNL     1      34.030 -19.657 -21.049  0.00  0.00    -0.304 N 
ATOM      5  N   UNL     1      35.824 -22.216 -18.356  0.00  0.00    -0.207 NA
ATOM      6  C   UNL     1      33.932 -21.300 -19.468  0.00  0.00    +0.125 C 
ATOM      7  C   UNL     1      34.737 -20.450 -20.196  0.00  0.00    +0.118 C 
ATOM      8  C   UNL     1      34.440 -22.238 -18.497  0.00  0.00    +0.002 C 
ATOM      9  C   UNL     1      32.779 -20.018 -20.850  0.00  0.00    +0.183 C 
ATOM     10  C   UNL     1      36.512 -21.383 -19.083  0.00  0.00    +0.227 C 
ATOM     11  H   UNL     1      31.832 -21.427 -19.596  0.00  0.00    +0.149 HD
ATOM     12  H   UNL     1      36.683 -19.879 -20.518  0.00  0.00    +0.150 HD
ATOM     13  H   UNL     1      34.374 -18.975 -21.670  0.00  0.00    +0.150 HD
ENDROOT
TORSDOF 0
ENDMDL
MODEL 2
REMARK VINA RESULT:      -5.6      6.798      7.704
REMARK  Name = 667490
REMARK  0 active torsions:
REMARK  status: ('A' for Active; 'I' for Inactive)
REMARK                            x       y       z     vdW  Elec       q    Type
REMARK                         _______ _______ _______ _____ _____    ______ ____
ROOT
ATOM      1  S   UNL     1      32.958 -14.429 -26.289  0.00  0.00    +0.012 S 
ATOM      2  N   UNL     1      33.816 -14.316 -23.160  0.00  0.00    -0.307 N 
ATOM      3  N   UNL     1      34.995 -17.513 -23.685  0.00  0.00    -0.299 N 
ATOM      4  N   UNL     1      34.822 -15.870 -21.910  0.00  0.00    -0.304 N 
ATOM      5  N   UNL     1      34.103 -16.868 -25.849  0.00  0.00    -0.207 NA
ATOM      6  C   UNL     1      34.021 -15.385 -23.991  0.00  0.00    +0.125 C 
ATOM      7  C   UNL     1      34.640 -16.315 -23.185  0.00  0.00    +0.118 C 
ATOM      8  C   UNL     1      33.715 -15.616 -25.383  0.00  0.00    +0.002 C 
ATOM      9  C   UNL     1      34.314 -14.655 -21.927  0.00  0.00    +0.183 C 
ATOM     10  C   UNL     1      34.685 -17.688 -25.021  0.00  0.00    +0.227 C 
ATOM     11  H   UNL     1      33.391 -13.461 -23.402  0.00  0.00    +0.149 HD
ATOM     12  H   UNL     1      35.439 -18.206 -23.146  0.00  0.00    +0.150 HD
ATOM     13  H   UNL     1      35.239 -16.344 -21.155  0.00  0.00    +0.150 HD
ENDROOT
TORSDOF 0
ENDMDL
MODEL 3
REMARK VINA RESULT:      -5.6      7.090      8.276
REMARK  Name = 667490
REMARK  0 active torsions:
REMARK  status: ('A' for Active; 'I' for Inactive)
REMARK                            x       y       z     vdW  Elec       q    Type
REMARK                         _______ _______ _______ _____ _____    ______ ____
ROOT
ATOM      1  S   UNL     1      34.524 -18.076 -24.946  0.00  0.00    +0.012 S 
ATOM      2  N   UNL     1      34.641 -15.645 -22.798  0.00  0.00    -0.307 N 
ATOM      3  N   UNL     1      33.231 -13.760 -25.318  0.00  0.00    -0.299 N 
ATOM      4  N   UNL     1      33.991 -13.520 -23.027  0.00  0.00    -0.304 N 
ATOM      5  N   UNL     1      33.464 -15.962 -26.310  0.00  0.00    -0.207 NA
ATOM      6  C   UNL     1      34.156 -15.541 -24.074  0.00  0.00    +0.125 C 
ATOM      7  C   UNL     1      33.767 -14.222 -24.173  0.00  0.00    +0.118 C 
ATOM      8  C   UNL     1      34.023 -16.492 -25.152  0.00  0.00    +0.002 C 
ATOM      9  C   UNL     1      34.520 -14.409 -22.212  0.00  0.00    +0.183 C 
ATOM     10  C   UNL     1      33.123 -14.705 -26.320  0.00  0.00    +0.227 C 
ATOM     11  H   UNL     1      35.009 -16.456 -22.378  0.00  0.00    +0.149 HD
ATOM     12  H   UNL     1      32.941 -12.826 -25.432  0.00  0.00    +0.150 HD
ATOM     13  H   UNL     1      33.800 -12.571 -22.849  0.00  0.00    +0.150 HD
ENDROOT
TORSDOF 0
ENDMDL
MODEL 4
REMARK VINA RESULT:      -5.6      4.751      5.698
REMARK  Name = 667490
REMARK  0 active torsions:
REMARK  status: ('A' for Active; 'I' for Inactive)
REMARK                            x       y       z     vdW  Elec       q    Type
REMARK                         _______ _______ _______ _____ _____    ______ ____
ROOT
ATOM      1  S   UNL     1      34.363 -15.086 -20.726  0.00  0.00    +0.012 S 
ATOM      2  N   UNL     1      34.179 -15.785 -23.890  0.00  0.00    -0.307 N 
ATOM      3  N   UNL     1      35.537 -18.822 -22.985  0.00  0.00    -0.299 N 
ATOM      4  N   UNL     1      34.774 -17.650 -24.966  0.00  0.00    -0.304 N 
ATOM      5  N   UNL     1      35.359 -17.622 -20.882  0.00  0.00    -0.207 NA
ATOM      6  C   UNL     1      34.661 -16.630 -22.928  0.00  0.00    +0.125 C 
ATOM      7  C   UNL     1      35.015 -17.762 -23.630  0.00  0.00    +0.118 C 
ATOM      8  C   UNL     1      34.818 -16.500 -21.499  0.00  0.00    +0.002 C 
ATOM      9  C   UNL     1      34.267 -16.441 -25.093  0.00  0.00    +0.183 C 
ATOM     10  C   UNL     1      35.666 -18.652 -21.619  0.00  0.00    +0.227 C 
ATOM     11  H   UNL     1      33.832 -14.875 -23.747  0.00  0.00    +0.149 HD
ATOM     12  H   UNL     1      35.804 -19.649 -23.446  0.00  0.00    +0.150 HD
ATOM     13  H   UNL     1      34.940 -18.317 -25.671  0.00  0.00    +0.150 HD
ENDROOT
TORSDOF 0
ENDMDL
MODEL 5
REMARK VINA RESULT:      -5.6      4.811      5.781
REMARK  Name = 667490
REMARK  0 active torsions:
REMARK  status: ('A' for Active; 'I' for Inactive)
REMARK                            x       y       z     vdW  Elec       q    Type
REMARK                         _______ _______ _______ _____ _____    ______ ____
ROOT
ATOM      1  S   UNL     1      34.578 -17.296 -25.132  0.00  0.00    +0.012 S 
ATOM      2  N   UNL     1      34.244 -15.248 -22.636  0.00  0.00    -0.307 N 
ATOM      3  N   UNL     1      35.430 -17.863 -20.729  0.00  0.00    -0.299 N 
ATOM      4  N   UNL     1      34.677 -15.573 -20.470  0.00  0.00    -0.304 N 
ATOM      5  N   UNL     1      35.407 -18.762 -22.984  0.00  0.00    -0.207 NA
ATOM      6  C   UNL     1      34.702 -16.534 -22.539  0.00  0.00    +0.125 C 
ATOM      7  C   UNL     1      34.956 -16.692 -21.193  0.00  0.00    +0.118 C 
ATOM      8  C   UNL     1      34.916 -17.574 -23.516  0.00  0.00    +0.002 C 
ATOM      9  C   UNL     1      34.248 -14.714 -21.372  0.00  0.00    +0.183 C 
ATOM     10  C   UNL     1      35.621 -18.828 -21.700  0.00  0.00    +0.227 C 
ATOM     11  H   UNL     1      33.963 -14.789 -23.462  0.00  0.00    +0.149 HD
ATOM     12  H   UNL     1      35.625 -18.020 -19.777  0.00  0.00    +0.150 HD
ATOM     13  H   UNL     1      34.775 -15.436 -19.499  0.00  0.00    +0.150 HD
ENDROOT
TORSDOF 0
ENDMDL
MODEL 6
REMARK VINA RESULT:      -5.5      4.952      6.004
REMARK  Name = 667490
REMARK  0 active torsions:
REMARK  status: ('A' for Active; 'I' for Inactive)
REMARK                            x       y       z     vdW  Elec       q    Type
REMARK                         _______ _______ _______ _____ _____    ______ ____
ROOT
ATOM      1  S   UNL     1      36.051 -18.787 -21.187  0.00  0.00    +0.012 S 
ATOM      2  N   UNL     1      35.219 -17.634 -24.105  0.00  0.00    -0.307 N 
ATOM      3  N   UNL     1      34.132 -14.866 -22.360  0.00  0.00    -0.299 N 
ATOM      4  N   UNL     1      34.268 -15.685 -24.639  0.00  0.00    -0.304 N 
ATOM      5  N   UNL     1      34.989 -16.335 -20.629  0.00  0.00    -0.207 NA
ATOM      6  C   UNL     1      35.039 -16.972 -22.920  0.00  0.00    +0.125 C 
ATOM      7  C   UNL     1      34.453 -15.781 -23.293  0.00  0.00    +0.118 C 
ATOM      8  C   UNL     1      35.340 -17.316 -21.551  0.00  0.00    +0.002 C 
ATOM      9  C   UNL     1      34.742 -16.822 -25.104  0.00  0.00    +0.183 C 
ATOM     10  C   UNL     1      34.440 -15.237 -21.065  0.00  0.00    +0.227 C 
ATOM     11  H   UNL     1      35.617 -18.527 -24.220  0.00  0.00    +0.149 HD
ATOM     12  H   UNL     1      33.713 -14.003 -22.581  0.00  0.00    +0.150 HD
ATOM     13  H   UNL     1      33.873 -14.938 -25.145  0.00  0.00    +0.150 HD
ENDROOT
TORSDOF 0
ENDMDL
MODEL 7
REMARK VINA RESULT:      -5.5      4.816      6.291
REMARK  Name = 667490
REMARK  0 active torsions:
REMARK  status: ('A' for Active; 'I' for Inactive)
REMARK                            x       y       z     vdW  Elec       q    Type
REMARK                         _______ _______ _______ _____ _____    ______ ____
ROOT
ATOM      1  S   UNL     1      33.073 -15.066 -20.609  0.00  0.00    +0.012 S 
ATOM      2  N   UNL     1      35.219 -17.489 -20.861  0.00  0.00    -0.307 N 
ATOM      3  N   UNL     1      35.183 -16.760 -24.231  0.00  0.00    -0.299 N 
ATOM      4  N   UNL     1      36.237 -18.296 -22.677  0.00  0.00    -0.304 N 
ATOM      5  N   UNL     1      33.628 -15.157 -23.280  0.00  0.00    -0.207 NA
ATOM      6  C   UNL     1      34.755 -16.740 -21.909  0.00  0.00    +0.125 C 
ATOM      7  C   UNL     1      35.405 -17.268 -23.004  0.00  0.00    +0.118 C 
ATOM      8  C   UNL     1      33.820 -15.644 -21.992  0.00  0.00    +0.002 C 
ATOM      9  C   UNL     1      36.103 -18.405 -21.372  0.00  0.00    +0.183 C 
ATOM     10  C   UNL     1      34.283 -15.712 -24.260  0.00  0.00    +0.227 C 
ATOM     11  H   UNL     1      34.965 -17.388 -19.915  0.00  0.00    +0.149 HD
ATOM     12  H   UNL     1      35.625 -17.106 -25.039  0.00  0.00    +0.150 HD
ATOM     13  H   UNL     1      36.807 -18.830 -23.277  0.00  0.00    +0.150 HD
ENDROOT
TORSDOF 0
ENDMDL
MODEL 8
REMARK VINA RESULT:      -5.5      6.778      8.277
REMARK  Name = 667490
REMARK  0 active torsions:
REMARK  status: ('A' for Active; 'I' for Inactive)
REMARK                            x       y       z     vdW  Elec       q    Type
REMARK                         _______ _______ _______ _____ _____    ______ ____
ROOT
ATOM      1  S   UNL     1      36.716 -22.876 -15.744  0.00  0.00    +0.012 S 
ATOM      2  N   UNL     1      39.372 -24.710 -15.398  0.00  0.00    -0.307 N 
ATOM      3  N   UNL     1      37.793 -25.925 -12.584  0.00  0.00    -0.299 N 
ATOM      4  N   UNL     1      39.864 -26.206 -13.814  0.00  0.00    -0.304 N 
ATOM      5  N   UNL     1      36.213 -24.313 -13.478  0.00  0.00    -0.207 NA
ATOM      6  C   UNL     1      38.296 -24.721 -14.551  0.00  0.00    +0.125 C 
ATOM      7  C   UNL     1      38.639 -25.652 -13.594  0.00  0.00    +0.118 C 
ATOM      8  C   UNL     1      37.050 -23.993 -14.542  0.00  0.00    +0.002 C 
ATOM      9  C   UNL     1      40.283 -25.616 -14.915  0.00  0.00    +0.183 C 
ATOM     10  C   UNL     1      36.613 -25.206 -12.617  0.00  0.00    +0.227 C 
ATOM     11  H   UNL     1      39.474 -24.155 -16.205  0.00  0.00    +0.149 HD
ATOM     12  H   UNL     1      37.997 -26.581 -11.880  0.00  0.00    +0.150 HD
ATOM     13  H   UNL     1      40.327 -26.889 -13.277  0.00  0.00    +0.150 HD
ENDROOT
TORSDOF 0
ENDMDL
MODEL 9
REMARK VINA RESULT:      -5.5      5.860      7.399
REMARK  Name = 667490
REMARK  0 active torsions:
REMARK  status: ('A' for Active; 'I' for Inactive)
REMARK                            x       y       z     vdW  Elec       q    Type
REMARK                         _______ _______ _______ _____ _____    ______ ____
ROOT
ATOM      1  S   UNL     1      40.273 -25.447 -14.870  0.00  0.00    +0.012 S 
ATOM      2  N   UNL     1      37.741 -23.597 -15.709  0.00  0.00    -0.307 N 
ATOM      3  N   UNL     1      36.094 -25.231 -13.158  0.00  0.00    -0.299 N 
ATOM      4  N   UNL     1      35.688 -23.525 -14.833  0.00  0.00    -0.304 N 
ATOM      5  N   UNL     1      38.317 -26.207 -13.124  0.00  0.00    -0.207 NA
ATOM      6  C   UNL     1      37.737 -24.521 -14.698  0.00  0.00    +0.125 C 
ATOM      7  C   UNL     1      36.458 -24.444 -14.187  0.00  0.00    +0.118 C 
ATOM      8  C   UNL     1      38.745 -25.419 -14.187  0.00  0.00    +0.002 C 
ATOM      9  C   UNL     1      36.493 -23.027 -15.749  0.00  0.00    +0.183 C 
ATOM     10  C   UNL     1      37.092 -26.071 -12.701  0.00  0.00    +0.227 C 
ATOM     11  H   UNL     1      38.500 -23.380 -16.298  0.00  0.00    +0.149 HD
ATOM     12  H   UNL     1      35.194 -25.209 -12.763  0.00  0.00    +0.150 HD
ATOM     13  H   UNL     1      34.749 -23.287 -14.655  0.00  0.00    +0.150 HD
ENDROOT
TORSDOF 0
ENDMDL
