MODEL 1
REMARK VINA RESULT:     -10.2      0.000      0.000
REMARK  Name = 6102758
REMARK  10 active torsions:
REMARK  status: ('A' for Active; 'I' for Inactive)
REMARK    1  A    between atoms: C_1  and  C_17
REMARK    2  A    between atoms: C_3  and  O_7
REMARK    3  A    between atoms: C_4  and  O_9
REMARK    4  A    between atoms: C_4  and  C_14
REMARK    5  A    between atoms: C_5  and  O_11
REMARK    6  A    between atoms: C_14  and  O_15
REMARK    7  A    between atoms: C_17  and  C_18
REMARK    8  A    between atoms: C_18  and  C_19
REMARK    9  A    between atoms: C_19  and  O_20
REMARK   10  A    between atoms: O_20  and  C_21
REMARK                            x       y       z     vdW  Elec       q    Type
REMARK                         _______ _______ _______ _____ _____    ______ ____
ROOT
ATOM      1  C   UNL     1      36.417 -24.160 -14.787  0.00  0.00    +0.032 C 
ATOM      2  C   UNL     1      37.925 -24.107 -15.082  0.00  0.00    +0.040 C 
ATOM      3  C   UNL     1      36.155 -24.578 -13.327  0.00  0.00    +0.137 C 
ATOM      4  C   UNL     1      38.627 -25.423 -14.736  0.00  0.00    +0.179 C 
ATOM      5  C   UNL     1      36.871 -25.885 -12.970  0.00  0.00    +0.140 C 
ATOM      6  C   UNL     1      38.365 -25.827 -13.288  0.00  0.00    +0.070 C 
ENDROOT
BRANCH   3   7
ATOM      7  O   UNL     1      34.756 -24.786 -13.127  0.00  0.00    -0.382 OA
ATOM      8  H   UNL     1      34.333 -23.943 -12.897  0.00  0.00    +0.210 HD
ENDBRANCH   3   7
BRANCH   4   9
ATOM      9  O   UNL     1      38.183 -26.464 -15.597  0.00  0.00    -0.376 OA
ATOM     10  H   UNL     1      38.664 -26.416 -16.438  0.00  0.00    +0.211 HD
ENDBRANCH   4   9
BRANCH   5  11
ATOM     11  O   UNL     1      36.707 -26.122 -11.571  0.00  0.00    -0.382 OA
ATOM     12  H   UNL     1      35.954 -26.717 -11.430  0.00  0.00    +0.210 HD
ENDBRANCH   5  11
BRANCH   4  14
ATOM     13  O   UNL     1      40.884 -24.710 -14.229  0.00  0.00    -0.248 OA
ATOM     14  C   UNL     1      40.108 -25.310 -14.958  0.00  0.00    +0.338 C 
BRANCH  14  15
ATOM     15  O   UNL     1      40.473 -25.965 -16.087  0.00  0.00    -0.479 OA
ATOM     16  H   UNL     1      39.888 -26.582 -16.482  0.00  0.00    +0.295 HD
ENDBRANCH  14  15
ENDBRANCH   4  14
BRANCH   1  17
ATOM     17  C   UNL     1      35.774 -22.808 -15.114  0.00  0.00    +0.006 C 
BRANCH  17  18
ATOM     18  C   UNL     1      35.116 -22.833 -16.486  0.00  0.00    +0.047 C 
BRANCH  18  19
ATOM     19  C   UNL     1      35.960 -22.096 -17.517  0.00  0.00    +0.205 C 
BRANCH  19  20
ATOM     20  O   UNL     1      35.512 -22.454 -18.817  0.00  0.00    -0.475 OA
BRANCH  20  21
ATOM     21  C   UNL     1      34.906 -21.469 -19.555  0.00  0.00    +0.139 C 
ATOM     22  C   UNL     1      35.683 -20.608 -20.321  0.00  0.00    +0.037 C 
ATOM     23  C   UNL     1      33.522 -21.343 -19.527  0.00  0.00    +0.037 C 
ATOM     24  C   UNL     1      35.066 -19.606 -21.071  0.00  0.00    +0.003 C 
ATOM     25  C   UNL     1      32.906 -20.342 -20.277  0.00  0.00    +0.003 C 
ATOM     26  C   UNL     1      33.678 -19.472 -21.049  0.00  0.00    +0.000 C 
ENDBRANCH  20  21
ENDBRANCH  19  20
ENDBRANCH  18  19
ENDBRANCH  17  18
ENDBRANCH   1  17
TORSDOF 10
ENDMDL
MODEL 2
REMARK VINA RESULT:     -10.1      1.520      3.465
REMARK  Name = 6102758
REMARK  10 active torsions:
REMARK  status: ('A' for Active; 'I' for Inactive)
REMARK    1  A    between atoms: C_1  and  C_17
REMARK    2  A    between atoms: C_3  and  O_7
REMARK    3  A    between atoms: C_4  and  O_9
REMARK    4  A    between atoms: C_4  and  C_14
REMARK    5  A    between atoms: C_5  and  O_11
REMARK    6  A    between atoms: C_14  and  O_15
REMARK    7  A    between atoms: C_17  and  C_18
REMARK    8  A    between atoms: C_18  and  C_19
REMARK    9  A    between atoms: C_19  and  O_20
REMARK   10  A    between atoms: O_20  and  C_21
REMARK                            x       y       z     vdW  Elec       q    Type
REMARK                         _______ _______ _______ _____ _____    ______ ____
ROOT
ATOM      1  C   UNL     1      37.172 -23.207 -14.446  0.00  0.00    +0.032 C 
ATOM      2  C   UNL     1      36.182 -23.509 -13.308  0.00  0.00    +0.040 C 
ATOM      3  C   UNL     1      38.065 -24.428 -14.738  0.00  0.00    +0.137 C 
ATOM      4  C   UNL     1      36.891 -24.008 -12.045  0.00  0.00    +0.179 C 
ATOM      5  C   UNL     1      38.762 -24.942 -13.474  0.00  0.00    +0.140 C 
ATOM      6  C   UNL     1      37.771 -25.218 -12.344  0.00  0.00    +0.070 C 
ENDROOT
BRANCH   3   7
ATOM      7  O   UNL     1      39.083 -24.069 -15.674  0.00  0.00    -0.382 OA
ATOM      8  H   UNL     1      39.712 -24.803 -15.765  0.00  0.00    +0.210 HD
ENDBRANCH   3   7
BRANCH   4   9
ATOM      9  O   UNL     1      37.694 -22.975 -11.487  0.00  0.00    -0.376 OA
ATOM     10  H   UNL     1      37.280 -22.647 -10.673  0.00  0.00    +0.211 HD
ENDBRANCH   4   9
BRANCH   5  11
ATOM     11  O   UNL     1      39.443 -26.155 -13.795  0.00  0.00    -0.382 OA
ATOM     12  H   UNL     1      40.129 -25.976 -14.458  0.00  0.00    +0.210 HD
ENDBRANCH   5  11
BRANCH   4  14
ATOM     13  O   UNL     1      36.026 -24.147  -9.789  0.00  0.00    -0.248 OA
ATOM     14  C   UNL     1      35.893 -24.371 -10.983  0.00  0.00    +0.338 C 
BRANCH  14  15
ATOM     15  O   UNL     1      34.817 -24.987 -11.529  0.00  0.00    -0.479 OA
ATOM     16  H   UNL     1      34.932 -25.604 -12.225  0.00  0.00    +0.295 HD
ENDBRANCH  14  15
ENDBRANCH   4  14
BRANCH   1  17
ATOM     17  C   UNL     1      36.407 -22.752 -15.693  0.00  0.00    +0.006 C 
BRANCH  17  18
ATOM     18  C   UNL     1      34.944 -23.164 -15.618  0.00  0.00    +0.047 C 
BRANCH  18  19
ATOM     19  C   UNL     1      34.275 -23.074 -16.983  0.00  0.00    +0.205 C 
BRANCH  19  20
ATOM     20  O   UNL     1      35.256 -22.726 -17.952  0.00  0.00    -0.475 OA
BRANCH  20  21
ATOM     21  C   UNL     1      34.880 -21.826 -18.916  0.00  0.00    +0.139 C 
ATOM     22  C   UNL     1      33.531 -21.619 -19.175  0.00  0.00    +0.037 C 
ATOM     23  C   UNL     1      35.854 -21.131 -19.623  0.00  0.00    +0.037 C 
ATOM     24  C   UNL     1      33.149 -20.704 -20.156  0.00  0.00    +0.003 C 
ATOM     25  C   UNL     1      35.473 -20.216 -20.604  0.00  0.00    +0.003 C 
ATOM     26  C   UNL     1      34.120 -20.002 -20.871  0.00  0.00    +0.000 C 
ENDBRANCH  20  21
ENDBRANCH  19  20
ENDBRANCH  18  19
ENDBRANCH  17  18
ENDBRANCH   1  17
TORSDOF 10
ENDMDL
MODEL 3
REMARK VINA RESULT:      -9.5      1.450      1.708
REMARK  Name = 6102758
REMARK  10 active torsions:
REMARK  status: ('A' for Active; 'I' for Inactive)
REMARK    1  A    between atoms: C_1  and  C_17
REMARK    2  A    between atoms: C_3  and  O_7
REMARK    3  A    between atoms: C_4  and  O_9
REMARK    4  A    between atoms: C_4  and  C_14
REMARK    5  A    between atoms: C_5  and  O_11
REMARK    6  A    between atoms: C_14  and  O_15
REMARK    7  A    between atoms: C_17  and  C_18
REMARK    8  A    between atoms: C_18  and  C_19
REMARK    9  A    between atoms: C_19  and  O_20
REMARK   10  A    between atoms: O_20  and  C_21
REMARK                            x       y       z     vdW  Elec       q    Type
REMARK                         _______ _______ _______ _____ _____    ______ ____
ROOT
ATOM      1  C   UNL     1      35.569 -24.767 -13.877  0.00  0.00    +0.032 C 
ATOM      2  C   UNL     1      36.848 -25.007 -14.698  0.00  0.00    +0.040 C 
ATOM      3  C   UNL     1      35.794 -23.677 -12.812  0.00  0.00    +0.137 C 
ATOM      4  C   UNL     1      38.053 -25.324 -13.809  0.00  0.00    +0.179 C 
ATOM      5  C   UNL     1      37.011 -23.980 -11.931  0.00  0.00    +0.140 C 
ATOM      6  C   UNL     1      38.270 -24.238 -12.759  0.00  0.00    +0.070 C 
ENDROOT
BRANCH   3   7
ATOM      7  O   UNL     1      34.654 -23.593 -11.956  0.00  0.00    -0.382 OA
ATOM      8  H   UNL     1      34.711 -22.787 -11.419  0.00  0.00    +0.210 HD
ENDBRANCH   3   7
BRANCH   4   9
ATOM      9  O   UNL     1      37.870 -26.574 -13.153  0.00  0.00    -0.376 OA
ATOM     10  H   UNL     1      37.593 -26.420 -12.236  0.00  0.00    +0.211 HD
ENDBRANCH   4   9
BRANCH   5  11
ATOM     11  O   UNL     1      37.243 -22.858 -11.078  0.00  0.00    -0.382 OA
ATOM     12  H   UNL     1      37.475 -23.170 -10.189  0.00  0.00    +0.210 HD
ENDBRANCH   5  11
BRANCH   4  14
ATOM     13  O   UNL     1      39.886 -24.555 -15.189  0.00  0.00    -0.248 OA
ATOM     14  C   UNL     1      39.299 -25.472 -14.634  0.00  0.00    +0.338 C 
BRANCH  14  15
ATOM     15  O   UNL     1      39.688 -26.769 -14.685  0.00  0.00    -0.479 OA
ATOM     16  H   UNL     1      39.361 -27.382 -14.055  0.00  0.00    +0.295 HD
ENDBRANCH  14  15
ENDBRANCH   4  14
BRANCH   1  17
ATOM     17  C   UNL     1      34.408 -24.416 -14.812  0.00  0.00    +0.006 C 
BRANCH  17  18
ATOM     18  C   UNL     1      34.791 -23.288 -15.760  0.00  0.00    +0.047 C 
BRANCH  18  19
ATOM     19  C   UNL     1      33.688 -23.023 -16.775  0.00  0.00    +0.205 C 
BRANCH  19  20
ATOM     20  O   UNL     1      34.185 -23.303 -18.076  0.00  0.00    -0.475 OA
BRANCH  20  21
ATOM     21  C   UNL     1      34.385 -22.229 -18.907  0.00  0.00    +0.139 C 
ATOM     22  C   UNL     1      35.680 -21.832 -19.216  0.00  0.00    +0.037 C 
ATOM     23  C   UNL     1      33.289 -21.551 -19.428  0.00  0.00    +0.037 C 
ATOM     24  C   UNL     1      35.883 -20.739 -20.061  0.00  0.00    +0.003 C 
ATOM     25  C   UNL     1      33.492 -20.459 -20.271  0.00  0.00    +0.003 C 
ATOM     26  C   UNL     1      34.789 -20.053 -20.588  0.00  0.00    +0.000 C 
ENDBRANCH  20  21
ENDBRANCH  19  20
ENDBRANCH  18  19
ENDBRANCH  17  18
ENDBRANCH   1  17
TORSDOF 10
ENDMDL
MODEL 4
REMARK VINA RESULT:      -9.2      1.682      3.430
REMARK  Name = 6102758
REMARK  10 active torsions:
REMARK  status: ('A' for Active; 'I' for Inactive)
REMARK    1  A    between atoms: C_1  and  C_17
REMARK    2  A    between atoms: C_3  and  O_7
REMARK    3  A    between atoms: C_4  and  O_9
REMARK    4  A    between atoms: C_4  and  C_14
REMARK    5  A    between atoms: C_5  and  O_11
REMARK    6  A    between atoms: C_14  and  O_15
REMARK    7  A    between atoms: C_17  and  C_18
REMARK    8  A    between atoms: C_18  and  C_19
REMARK    9  A    between atoms: C_19  and  O_20
REMARK   10  A    between atoms: O_20  and  C_21
REMARK                            x       y       z     vdW  Elec       q    Type
REMARK                         _______ _______ _______ _____ _____    ______ ____
ROOT
ATOM      1  C   UNL     1      35.123 -22.927 -14.671  0.00  0.00    +0.032 C 
ATOM      2  C   UNL     1      34.987 -23.941 -13.523  0.00  0.00    +0.040 C 
ATOM      3  C   UNL     1      36.332 -23.265 -15.565  0.00  0.00    +0.137 C 
ATOM      4  C   UNL     1      36.277 -24.065 -12.707  0.00  0.00    +0.179 C 
ATOM      5  C   UNL     1      37.622 -23.408 -14.751  0.00  0.00    +0.140 C 
ATOM      6  C   UNL     1      37.467 -24.402 -13.600  0.00  0.00    +0.070 C 
ENDROOT
BRANCH   3   7
ATOM      7  O   UNL     1      36.538 -22.219 -16.516  0.00  0.00    -0.382 OA
ATOM      8  H   UNL     1      37.490 -22.076 -16.638  0.00  0.00    +0.210 HD
ENDBRANCH   3   7
BRANCH   4   9
ATOM      9  O   UNL     1      36.544 -22.852 -12.014  0.00  0.00    -0.376 OA
ATOM     10  H   UNL     1      36.809 -22.168 -12.650  0.00  0.00    +0.211 HD
ENDBRANCH   4   9
BRANCH   5  11
ATOM     11  O   UNL     1      38.657 -23.869 -15.620  0.00  0.00    -0.382 OA
ATOM     12  H   UNL     1      38.293 -24.012 -16.509  0.00  0.00    +0.210 HD
ENDBRANCH   5  11
BRANCH   4  14
ATOM     13  O   UNL     1      35.388 -25.053 -10.685  0.00  0.00    -0.248 OA
ATOM     14  C   UNL     1      36.137 -25.120 -11.648  0.00  0.00    +0.338 C 
BRANCH  14  15
ATOM     15  O   UNL     1      36.962 -26.165 -11.901  0.00  0.00    -0.479 OA
ATOM     16  H   UNL     1      37.870 -26.013 -12.079  0.00  0.00    +0.295 HD
ENDBRANCH  14  15
ENDBRANCH   4  14
BRANCH   1  17
ATOM     17  C   UNL     1      33.820 -22.874 -15.475  0.00  0.00    +0.006 C 
BRANCH  17  18
ATOM     18  C   UNL     1      33.854 -23.854 -16.639  0.00  0.00    +0.047 C 
BRANCH  18  19
ATOM     19  C   UNL     1      33.431 -23.183 -17.938  0.00  0.00    +0.205 C 
BRANCH  19  20
ATOM     20  O   UNL     1      34.597 -22.800 -18.656  0.00  0.00    -0.475 OA
BRANCH  20  21
ATOM     21  C   UNL     1      34.496 -21.685 -19.449  0.00  0.00    +0.139 C 
ATOM     22  C   UNL     1      33.243 -21.162 -19.744  0.00  0.00    +0.037 C 
ATOM     23  C   UNL     1      35.649 -21.092 -19.949  0.00  0.00    +0.037 C 
ATOM     24  C   UNL     1      33.141 -20.028 -20.551  0.00  0.00    +0.003 C 
ATOM     25  C   UNL     1      35.547 -19.959 -20.756  0.00  0.00    +0.003 C 
ATOM     26  C   UNL     1      34.292 -19.427 -21.057  0.00  0.00    +0.000 C 
ENDBRANCH  20  21
ENDBRANCH  19  20
ENDBRANCH  18  19
ENDBRANCH  17  18
ENDBRANCH   1  17
TORSDOF 10
ENDMDL
MODEL 5
REMARK VINA RESULT:      -9.1      6.919     10.556
REMARK  Name = 6102758
REMARK  10 active torsions:
REMARK  status: ('A' for Active; 'I' for Inactive)
REMARK    1  A    between atoms: C_1  and  C_17
REMARK    2  A    between atoms: C_3  and  O_7
REMARK    3  A    between atoms: C_4  and  O_9
REMARK    4  A    between atoms: C_4  and  C_14
REMARK    5  A    between atoms: C_5  and  O_11
REMARK    6  A    between atoms: C_14  and  O_15
REMARK    7  A    between atoms: C_17  and  C_18
REMARK    8  A    between atoms: C_18  and  C_19
REMARK    9  A    between atoms: C_19  and  O_20
REMARK   10  A    between atoms: O_20  and  C_21
REMARK                            x       y       z     vdW  Elec       q    Type
REMARK                         _______ _______ _______ _____ _____    ______ ____
ROOT
ATOM      1  C   UNL     1      34.846 -16.668 -21.458  0.00  0.00    +0.032 C 
ATOM      2  C   UNL     1      34.049 -17.770 -20.739  0.00  0.00    +0.040 C 
ATOM      3  C   UNL     1      34.828 -16.881 -22.984  0.00  0.00    +0.137 C 
ATOM      4  C   UNL     1      34.530 -19.173 -21.121  0.00  0.00    +0.179 C 
ATOM      5  C   UNL     1      35.291 -18.289 -23.370  0.00  0.00    +0.140 C 
ATOM      6  C   UNL     1      34.506 -19.374 -22.633  0.00  0.00    +0.070 C 
ENDROOT
BRANCH   3   7
ATOM      7  O   UNL     1      35.711 -15.951 -23.612  0.00  0.00    -0.382 OA
ATOM      8  H   UNL     1      36.523 -15.869 -23.086  0.00  0.00    +0.210 HD
ENDBRANCH   3   7
BRANCH   4   9
ATOM      9  O   UNL     1      35.852 -19.390 -20.644  0.00  0.00    -0.376 OA
ATOM     10  H   UNL     1      36.326 -18.544 -20.608  0.00  0.00    +0.211 HD
ENDBRANCH   4   9
BRANCH   5  11
ATOM     11  O   UNL     1      35.101 -18.458 -24.776  0.00  0.00    -0.382 OA
ATOM     12  H   UNL     1      34.969 -17.591 -25.191  0.00  0.00    +0.210 HD
ENDBRANCH   5  11
BRANCH   4  14
ATOM     13  O   UNL     1      32.458 -20.238 -20.469  0.00  0.00    -0.248 OA
ATOM     14  C   UNL     1      33.680 -20.223 -20.467  0.00  0.00    +0.338 C 
BRANCH  14  15
ATOM     15  O   UNL     1      34.454 -21.160 -19.867  0.00  0.00    -0.479 OA
ATOM     16  H   UNL     1      34.064 -21.937 -19.518  0.00  0.00    +0.295 HD
ENDBRANCH  14  15
ENDBRANCH   4  14
BRANCH   1  17
ATOM     17  C   UNL     1      34.298 -15.292 -21.069  0.00  0.00    +0.006 C 
BRANCH  17  18
ATOM     18  C   UNL     1      32.795 -15.217 -21.297  0.00  0.00    +0.047 C 
BRANCH  18  19
ATOM     19  C   UNL     1      32.433 -14.061 -22.217  0.00  0.00    +0.205 C 
BRANCH  19  20
ATOM     20  O   UNL     1      33.607 -13.622 -22.886  0.00  0.00    -0.475 OA
BRANCH  20  21
ATOM     21  C   UNL     1      33.506 -13.407 -24.237  0.00  0.00    +0.139 C 
ATOM     22  C   UNL     1      33.033 -14.421 -25.061  0.00  0.00    +0.037 C 
ATOM     23  C   UNL     1      33.879 -12.177 -24.767  0.00  0.00    +0.037 C 
ATOM     24  C   UNL     1      32.931 -14.203 -26.435  0.00  0.00    +0.003 C 
ATOM     25  C   UNL     1      33.777 -11.959 -26.140  0.00  0.00    +0.003 C 
ATOM     26  C   UNL     1      33.304 -12.972 -26.975  0.00  0.00    +0.000 C 
ENDBRANCH  20  21
ENDBRANCH  19  20
ENDBRANCH  18  19
ENDBRANCH  17  18
ENDBRANCH   1  17
TORSDOF 10
ENDMDL
MODEL 6
REMARK VINA RESULT:      -9.0      6.836     12.610
REMARK  Name = 6102758
REMARK  10 active torsions:
REMARK  status: ('A' for Active; 'I' for Inactive)
REMARK    1  A    between atoms: C_1  and  C_17
REMARK    2  A    between atoms: C_3  and  O_7
REMARK    3  A    between atoms: C_4  and  O_9
REMARK    4  A    between atoms: C_4  and  C_14
REMARK    5  A    between atoms: C_5  and  O_11
REMARK    6  A    between atoms: C_14  and  O_15
REMARK    7  A    between atoms: C_17  and  C_18
REMARK    8  A    between atoms: C_18  and  C_19
REMARK    9  A    between atoms: C_19  and  O_20
REMARK   10  A    between atoms: O_20  and  C_21
REMARK                            x       y       z     vdW  Elec       q    Type
REMARK                         _______ _______ _______ _____ _____    ______ ____
ROOT
ATOM      1  C   UNL     1      34.082 -15.652 -23.626  0.00  0.00    +0.032 C 
ATOM      2  C   UNL     1      34.218 -14.172 -23.229  0.00  0.00    +0.040 C 
ATOM      3  C   UNL     1      34.136 -15.820 -25.156  0.00  0.00    +0.137 C 
ATOM      4  C   UNL     1      33.184 -13.289 -23.932  0.00  0.00    +0.179 C 
ATOM      5  C   UNL     1      33.115 -14.924 -25.866  0.00  0.00    +0.140 C 
ATOM      6  C   UNL     1      33.247 -13.460 -25.447  0.00  0.00    +0.070 C 
ENDROOT
BRANCH   3   7
ATOM      7  O   UNL     1      33.837 -17.172 -25.506  0.00  0.00    -0.382 OA
ATOM      8  H   UNL     1      34.462 -17.767 -25.061  0.00  0.00    +0.210 HD
ENDBRANCH   3   7
BRANCH   4   9
ATOM      9  O   UNL     1      31.872 -13.607 -23.482  0.00  0.00    -0.376 OA
ATOM     10  H   UNL     1      31.526 -12.874 -22.949  0.00  0.00    +0.211 HD
ENDBRANCH   4   9
BRANCH   5  11
ATOM     11  O   UNL     1      33.331 -15.020 -27.274  0.00  0.00    -0.382 OA
ATOM     12  H   UNL     1      34.087 -14.467 -27.525  0.00  0.00    +0.210 HD
ENDBRANCH   5  11
BRANCH   4  14
ATOM     13  O   UNL     1      32.648 -11.170 -22.894  0.00  0.00    -0.248 OA
ATOM     14  C   UNL     1      33.397 -11.843 -23.587  0.00  0.00    +0.338 C 
BRANCH  14  15
ATOM     15  O   UNL     1      34.536 -11.379 -24.154  0.00  0.00    -0.479 OA
ATOM     16  H   UNL     1      35.084 -10.781 -23.684  0.00  0.00    +0.295 HD
ENDBRANCH  14  15
ENDBRANCH   4  14
BRANCH   1  17
ATOM     17  C   UNL     1      35.163 -16.481 -22.925  0.00  0.00    +0.006 C 
BRANCH  17  18
ATOM     18  C   UNL     1      34.951 -16.495 -21.418  0.00  0.00    +0.047 C 
BRANCH  18  19
ATOM     19  C   UNL     1      33.857 -17.477 -21.024  0.00  0.00    +0.205 C 
BRANCH  19  20
ATOM     20  O   UNL     1      34.113 -18.725 -21.653  0.00  0.00    -0.475 OA
BRANCH  20  21
ATOM     21  C   UNL     1      34.316 -19.803 -20.829  0.00  0.00    +0.139 C 
ATOM     22  C   UNL     1      35.610 -20.238 -20.573  0.00  0.00    +0.037 C 
ATOM     23  C   UNL     1      33.223 -20.448 -20.261  0.00  0.00    +0.037 C 
ATOM     24  C   UNL     1      35.816 -21.335 -19.735  0.00  0.00    +0.003 C 
ATOM     25  C   UNL     1      33.429 -21.544 -19.424  0.00  0.00    +0.003 C 
ATOM     26  C   UNL     1      34.725 -21.988 -19.161  0.00  0.00    +0.000 C 
ENDBRANCH  20  21
ENDBRANCH  19  20
ENDBRANCH  18  19
ENDBRANCH  17  18
ENDBRANCH   1  17
TORSDOF 10
ENDMDL
MODEL 7
REMARK VINA RESULT:      -9.0      3.372      5.263
REMARK  Name = 6102758
REMARK  10 active torsions:
REMARK  status: ('A' for Active; 'I' for Inactive)
REMARK    1  A    between atoms: C_1  and  C_17
REMARK    2  A    between atoms: C_3  and  O_7
REMARK    3  A    between atoms: C_4  and  O_9
REMARK    4  A    between atoms: C_4  and  C_14
REMARK    5  A    between atoms: C_5  and  O_11
REMARK    6  A    between atoms: C_14  and  O_15
REMARK    7  A    between atoms: C_17  and  C_18
REMARK    8  A    between atoms: C_18  and  C_19
REMARK    9  A    between atoms: C_19  and  O_20
REMARK   10  A    between atoms: O_20  and  C_21
REMARK                            x       y       z     vdW  Elec       q    Type
REMARK                         _______ _______ _______ _____ _____    ______ ____
ROOT
ATOM      1  C   UNL     1      37.171 -23.360 -14.390  0.00  0.00    +0.032 C 
ATOM      2  C   UNL     1      36.195 -23.646 -13.236  0.00  0.00    +0.040 C 
ATOM      3  C   UNL     1      38.120 -24.552 -14.617  0.00  0.00    +0.137 C 
ATOM      4  C   UNL     1      36.923 -24.043 -11.949  0.00  0.00    +0.179 C 
ATOM      5  C   UNL     1      38.837 -24.966 -13.328  0.00  0.00    +0.140 C 
ATOM      6  C   UNL     1      37.858 -25.226 -12.184  0.00  0.00    +0.070 C 
ENDROOT
BRANCH   3   7
ATOM      7  O   UNL     1      39.122 -24.199 -15.572  0.00  0.00    -0.382 OA
ATOM      8  H   UNL     1      38.697 -23.857 -16.375  0.00  0.00    +0.210 HD
ENDBRANCH   3   7
BRANCH   4   9
ATOM      9  O   UNL     1      37.678 -22.947 -11.448  0.00  0.00    -0.376 OA
ATOM     10  H   UNL     1      37.087 -22.194 -11.286  0.00  0.00    +0.211 HD
ENDBRANCH   4   9
BRANCH   5  11
ATOM     11  O   UNL     1      39.574 -26.163 -13.584  0.00  0.00    -0.382 OA
ATOM     12  H   UNL     1      39.621 -26.315 -14.541  0.00  0.00    +0.210 HD
ENDBRANCH   5  11
BRANCH   4  14
ATOM     13  O   UNL     1      36.095 -24.162  -9.679  0.00  0.00    -0.248 OA
ATOM     14  C   UNL     1      35.941 -24.394 -10.869  0.00  0.00    +0.338 C 
BRANCH  14  15
ATOM     15  O   UNL     1      34.854 -25.011 -11.393  0.00  0.00    -0.479 OA
ATOM     16  H   UNL     1      34.758 -25.940 -11.314  0.00  0.00    +0.295 HD
ENDBRANCH  14  15
ENDBRANCH   4  14
BRANCH   1  17
ATOM     17  C   UNL     1      36.389 -23.007 -15.659  0.00  0.00    +0.006 C 
BRANCH  17  18
ATOM     18  C   UNL     1      34.955 -22.617 -15.327  0.00  0.00    +0.047 C 
BRANCH  18  19
ATOM     19  C   UNL     1      33.981 -23.725 -15.702  0.00  0.00    +0.205 C 
BRANCH  19  20
ATOM     20  O   UNL     1      33.042 -23.887 -14.648  0.00  0.00    -0.475 OA
BRANCH  20  21
ATOM     21  C   UNL     1      31.721 -23.971 -15.004  0.00  0.00    +0.139 C 
ATOM     22  C   UNL     1      30.938 -25.004 -14.503  0.00  0.00    +0.037 C 
ATOM     23  C   UNL     1      31.179 -23.023 -15.864  0.00  0.00    +0.037 C 
ATOM     24  C   UNL     1      29.593 -25.090 -14.866  0.00  0.00    +0.003 C 
ATOM     25  C   UNL     1      29.835 -23.108 -16.227  0.00  0.00    +0.003 C 
ATOM     26  C   UNL     1      29.042 -24.143 -15.728  0.00  0.00    +0.000 C 
ENDBRANCH  20  21
ENDBRANCH  19  20
ENDBRANCH  18  19
ENDBRANCH  17  18
ENDBRANCH   1  17
TORSDOF 10
ENDMDL
MODEL 8
REMARK VINA RESULT:      -9.0      2.972      4.231
REMARK  Name = 6102758
REMARK  10 active torsions:
REMARK  status: ('A' for Active; 'I' for Inactive)
REMARK    1  A    between atoms: C_1  and  C_17
REMARK    2  A    between atoms: C_3  and  O_7
REMARK    3  A    between atoms: C_4  and  O_9
REMARK    4  A    between atoms: C_4  and  C_14
REMARK    5  A    between atoms: C_5  and  O_11
REMARK    6  A    between atoms: C_14  and  O_15
REMARK    7  A    between atoms: C_17  and  C_18
REMARK    8  A    between atoms: C_18  and  C_19
REMARK    9  A    between atoms: C_19  and  O_20
REMARK   10  A    between atoms: O_20  and  C_21
REMARK                            x       y       z     vdW  Elec       q    Type
REMARK                         _______ _______ _______ _____ _____    ______ ____
ROOT
ATOM      1  C   UNL     1      36.355 -24.297 -14.903  0.00  0.00    +0.032 C 
ATOM      2  C   UNL     1      37.866 -24.271 -15.193  0.00  0.00    +0.040 C 
ATOM      3  C   UNL     1      36.084 -24.541 -13.407  0.00  0.00    +0.137 C 
ATOM      4  C   UNL     1      38.571 -25.534 -14.689  0.00  0.00    +0.179 C 
ATOM      5  C   UNL     1      36.803 -25.793 -12.893  0.00  0.00    +0.140 C 
ATOM      6  C   UNL     1      38.299 -25.766 -13.206  0.00  0.00    +0.070 C 
ENDROOT
BRANCH   3   7
ATOM      7  O   UNL     1      34.685 -24.731 -13.193  0.00  0.00    -0.382 OA
ATOM      8  H   UNL     1      34.445 -25.645 -13.412  0.00  0.00    +0.210 HD
ENDBRANCH   3   7
BRANCH   4   9
ATOM      9  O   UNL     1      38.136 -26.671 -15.425  0.00  0.00    -0.376 OA
ATOM     10  H   UNL     1      37.260 -26.944 -15.111  0.00  0.00    +0.211 HD
ENDBRANCH   4   9
BRANCH   5  11
ATOM     11  O   UNL     1      36.630 -25.865 -11.477  0.00  0.00    -0.382 OA
ATOM     12  H   UNL     1      35.916 -26.488 -11.270  0.00  0.00    +0.210 HD
ENDBRANCH   5  11
BRANCH   4  14
ATOM     13  O   UNL     1      40.659 -25.978 -15.828  0.00  0.00    -0.248 OA
ATOM     14  C   UNL     1      40.052 -25.441 -14.913  0.00  0.00    +0.338 C 
BRANCH  14  15
ATOM     15  O   UNL     1      40.634 -24.678 -13.955  0.00  0.00    -0.479 OA
ATOM     16  H   UNL     1      40.968 -23.830 -14.171  0.00  0.00    +0.295 HD
ENDBRANCH  14  15
ENDBRANCH   4  14
BRANCH   1  17
ATOM     17  C   UNL     1      35.710 -22.996 -15.392  0.00  0.00    +0.006 C 
BRANCH  17  18
ATOM     18  C   UNL     1      34.784 -23.254 -16.572  0.00  0.00    +0.047 C 
BRANCH  18  19
ATOM     19  C   UNL     1      33.353 -22.845 -16.250  0.00  0.00    +0.205 C 
BRANCH  19  20
ATOM     20  O   UNL     1      32.790 -23.807 -15.368  0.00  0.00    -0.475 OA
BRANCH  20  21
ATOM     21  C   UNL     1      31.426 -23.950 -15.400  0.00  0.00    +0.139 C 
ATOM     22  C   UNL     1      30.824 -24.957 -14.654  0.00  0.00    +0.037 C 
ATOM     23  C   UNL     1      30.662 -23.089 -16.178  0.00  0.00    +0.037 C 
ATOM     24  C   UNL     1      29.436 -25.103 -14.686  0.00  0.00    +0.003 C 
ATOM     25  C   UNL     1      29.276 -23.236 -16.211  0.00  0.00    +0.003 C 
ATOM     26  C   UNL     1      28.662 -24.243 -15.465  0.00  0.00    +0.000 C 
ENDBRANCH  20  21
ENDBRANCH  19  20
ENDBRANCH  18  19
ENDBRANCH  17  18
ENDBRANCH   1  17
TORSDOF 10
ENDMDL
MODEL 9
REMARK VINA RESULT:      -8.9      2.590      3.913
REMARK  Name = 6102758
REMARK  10 active torsions:
REMARK  status: ('A' for Active; 'I' for Inactive)
REMARK    1  A    between atoms: C_1  and  C_17
REMARK    2  A    between atoms: C_3  and  O_7
REMARK    3  A    between atoms: C_4  and  O_9
REMARK    4  A    between atoms: C_4  and  C_14
REMARK    5  A    between atoms: C_5  and  O_11
REMARK    6  A    between atoms: C_14  and  O_15
REMARK    7  A    between atoms: C_17  and  C_18
REMARK    8  A    between atoms: C_18  and  C_19
REMARK    9  A    between atoms: C_19  and  O_20
REMARK   10  A    between atoms: O_20  and  C_21
REMARK                            x       y       z     vdW  Elec       q    Type
REMARK                         _______ _______ _______ _____ _____    ______ ____
ROOT
ATOM      1  C   UNL     1      36.453 -24.176 -14.724  0.00  0.00    +0.032 C 
ATOM      2  C   UNL     1      37.952 -24.168 -15.069  0.00  0.00    +0.040 C 
ATOM      3  C   UNL     1      36.227 -24.587 -13.257  0.00  0.00    +0.137 C 
ATOM      4  C   UNL     1      38.624 -25.505 -14.746  0.00  0.00    +0.179 C 
ATOM      5  C   UNL     1      36.914 -25.915 -12.924  0.00  0.00    +0.140 C 
ATOM      6  C   UNL     1      38.397 -25.903 -13.291  0.00  0.00    +0.070 C 
ENDROOT
BRANCH   3   7
ATOM      7  O   UNL     1      34.830 -24.752 -13.010  0.00  0.00    -0.382 OA
ATOM      8  H   UNL     1      34.543 -24.118 -12.334  0.00  0.00    +0.210 HD
ENDBRANCH   3   7
BRANCH   4   9
ATOM      9  O   UNL     1      38.120 -26.531 -15.593  0.00  0.00    -0.376 OA
ATOM     10  H   UNL     1      37.881 -26.153 -16.453  0.00  0.00    +0.211 HD
ENDBRANCH   4   9
BRANCH   5  11
ATOM     11  O   UNL     1      36.789 -26.149 -11.520  0.00  0.00    -0.382 OA
ATOM     12  H   UNL     1      37.451 -25.623 -11.044  0.00  0.00    +0.210 HD
ENDBRANCH   5  11
BRANCH   4  14
ATOM     13  O   UNL     1      40.678 -26.043 -15.908  0.00  0.00    -0.248 OA
ATOM     14  C   UNL     1      40.100 -25.438 -15.017  0.00  0.00    +0.338 C 
BRANCH  14  15
ATOM     15  O   UNL     1      40.711 -24.612 -14.134  0.00  0.00    -0.479 OA
ATOM     16  H   UNL     1      40.357 -24.501 -13.273  0.00  0.00    +0.295 HD
ENDBRANCH  14  15
ENDBRANCH   4  14
BRANCH   1  17
ATOM     17  C   UNL     1      35.841 -22.805 -15.030  0.00  0.00    +0.006 C 
BRANCH  17  18
ATOM     18  C   UNL     1      35.366 -22.728 -16.474  0.00  0.00    +0.047 C 
BRANCH  18  19
ATOM     19  C   UNL     1      34.182 -23.653 -16.715  0.00  0.00    +0.205 C 
BRANCH  19  20
ATOM     20  O   UNL     1      33.002 -22.869 -16.828  0.00  0.00    -0.475 OA
BRANCH  20  21
ATOM     21  C   UNL     1      31.931 -23.247 -16.060  0.00  0.00    +0.139 C 
ATOM     22  C   UNL     1      30.642 -22.935 -16.476  0.00  0.00    +0.037 C 
ATOM     23  C   UNL     1      32.147 -23.938 -14.873  0.00  0.00    +0.037 C 
ATOM     24  C   UNL     1      29.552 -23.320 -15.694  0.00  0.00    +0.003 C 
ATOM     25  C   UNL     1      31.058 -24.322 -14.091  0.00  0.00    +0.003 C 
ATOM     26  C   UNL     1      29.760 -24.013 -14.501  0.00  0.00    +0.000 C 
ENDBRANCH  20  21
ENDBRANCH  19  20
ENDBRANCH  18  19
ENDBRANCH  17  18
ENDBRANCH   1  17
TORSDOF 10
ENDMDL
