MODEL 1
REMARK VINA RESULT:      -5.2      0.000      0.000
REMARK  Name = 6120722
REMARK  5 active torsions:
REMARK  status: ('A' for Active; 'I' for Inactive)
REMARK    1  A    between atoms: P_1  and  O_3
REMARK    2  A    between atoms: P_1  and  O_5
REMARK    3  A    between atoms: P_1  and  O_7
REMARK    4  A    between atoms: O_7  and  C_8
REMARK    5  A    between atoms: C_9  and  N_10
REMARK                            x       y       z     vdW  Elec       q    Type
REMARK                         _______ _______ _______ _____ _____    ______ ____
ROOT
ATOM      1  P   UNL     1      40.097 -25.926 -14.569  0.00  0.00    +0.528 P 
ATOM      2  O   UNL     1      39.951 -24.600 -13.881  0.00  0.00    -0.216 OA
ENDROOT
BRANCH   1   3
ATOM      3  O   UNL     1      40.390 -25.824 -16.157  0.00  0.00    -0.293 OA
ATOM      4  H   UNL     1      39.899 -26.522 -16.620  0.00  0.00    +0.223 HD
ENDBRANCH   1   3
BRANCH   1   5
ATOM      5  O   UNL     1      41.327 -26.833 -14.036  0.00  0.00    -0.293 OA
ATOM      6  H   UNL     1      42.079 -26.747 -14.645  0.00  0.00    +0.223 HD
ENDBRANCH   1   5
BRANCH   1   7
ATOM      7  O   UNL     1      38.818 -26.910 -14.488  0.00  0.00    -0.398 OA
BRANCH   7   8
ATOM      8  C   UNL     1      37.575 -26.489 -14.151  0.00  0.00    +0.198 C 
ATOM      9  C   UNL     1      36.670 -26.100 -15.050  0.00  0.00    +0.096 C 
BRANCH   9  10
ATOM     10  N   UNL     1      35.407 -25.664 -14.818  0.00  0.00    -0.354 N 
ATOM     11  H   UNL     1      34.779 -26.224 -14.306  0.00  0.00    +0.142 HD
ATOM     12  H   UNL     1      35.118 -24.787 -15.161  0.00  0.00    +0.142 HD
ENDBRANCH   9  10
ENDBRANCH   7   8
ENDBRANCH   1   7
TORSDOF 5
ENDMDL
MODEL 2
REMARK VINA RESULT:      -5.0      4.235      4.997
REMARK  Name = 6120722
REMARK  5 active torsions:
REMARK  status: ('A' for Active; 'I' for Inactive)
REMARK    1  A    between atoms: P_1  and  O_3
REMARK    2  A    between atoms: P_1  and  O_5
REMARK    3  A    between atoms: P_1  and  O_7
REMARK    4  A    between atoms: O_7  and  C_8
REMARK    5  A    between atoms: C_9  and  N_10
REMARK                            x       y       z     vdW  Elec       q    Type
REMARK                         _______ _______ _______ _____ _____    ______ ____
ROOT
ATOM      1  P   UNL     1      36.038 -24.133 -11.122  0.00  0.00    +0.528 P 
ATOM      2  O   UNL     1      37.165 -23.148 -10.998  0.00  0.00    -0.216 OA
ENDROOT
BRANCH   1   3
ATOM      3  O   UNL     1      35.345 -24.533  -9.715  0.00  0.00    -0.293 OA
ATOM      4  H   UNL     1      35.570 -23.868  -9.045  0.00  0.00    +0.223 HD
ENDBRANCH   1   3
BRANCH   1   5
ATOM      5  O   UNL     1      34.784 -23.618 -12.005  0.00  0.00    -0.293 OA
ATOM      6  H   UNL     1      34.286 -22.954 -11.502  0.00  0.00    +0.223 HD
ENDBRANCH   1   5
BRANCH   1   7
ATOM      7  O   UNL     1      36.417 -25.563 -11.770  0.00  0.00    -0.398 OA
BRANCH   7   8
ATOM      8  C   UNL     1      37.292 -25.708 -12.794  0.00  0.00    +0.198 C 
ATOM      9  C   UNL     1      36.918 -25.729 -14.075  0.00  0.00    +0.096 C 
BRANCH   9  10
ATOM     10  N   UNL     1      37.710 -25.867 -15.167  0.00  0.00    -0.354 N 
ATOM     11  H   UNL     1      37.852 -25.104 -15.772  0.00  0.00    +0.142 HD
ATOM     12  H   UNL     1      38.144 -26.731 -15.354  0.00  0.00    +0.142 HD
ENDBRANCH   9  10
ENDBRANCH   7   8
ENDBRANCH   1   7
TORSDOF 5
ENDMDL
MODEL 3
REMARK VINA RESULT:      -5.0      1.366      1.754
REMARK  Name = 6120722
REMARK  5 active torsions:
REMARK  status: ('A' for Active; 'I' for Inactive)
REMARK    1  A    between atoms: P_1  and  O_3
REMARK    2  A    between atoms: P_1  and  O_5
REMARK    3  A    between atoms: P_1  and  O_7
REMARK    4  A    between atoms: O_7  and  C_8
REMARK    5  A    between atoms: C_9  and  N_10
REMARK                            x       y       z     vdW  Elec       q    Type
REMARK                         _______ _______ _______ _____ _____    ______ ____
ROOT
ATOM      1  P   UNL     1      39.808 -25.409 -14.861  0.00  0.00    +0.528 P 
ATOM      2  O   UNL     1      40.682 -24.950 -13.729  0.00  0.00    -0.216 OA
ENDROOT
BRANCH   1   3
ATOM      3  O   UNL     1      38.907 -24.239 -15.523  0.00  0.00    -0.293 OA
ATOM      4  H   UNL     1      38.566 -23.660 -14.823  0.00  0.00    +0.223 HD
ENDBRANCH   1   3
BRANCH   1   5
ATOM      5  O   UNL     1      40.608 -26.007 -16.134  0.00  0.00    -0.293 OA
ATOM      6  H   UNL     1      40.211 -25.670 -16.953  0.00  0.00    +0.223 HD
ENDBRANCH   1   5
BRANCH   1   7
ATOM      7  O   UNL     1      38.726 -26.553 -14.501  0.00  0.00    -0.398 OA
BRANCH   7   8
ATOM      8  C   UNL     1      37.494 -26.283 -14.005  0.00  0.00    +0.198 C 
ATOM      9  C   UNL     1      37.299 -25.653 -12.845  0.00  0.00    +0.096 C 
BRANCH   9  10
ATOM     10  N   UNL     1      36.115 -25.335 -12.264  0.00  0.00    -0.354 N 
ATOM     11  H   UNL     1      35.272 -25.665 -12.651  0.00  0.00    +0.142 HD
ATOM     12  H   UNL     1      36.099 -24.776 -11.455  0.00  0.00    +0.142 HD
ENDBRANCH   9  10
ENDBRANCH   7   8
ENDBRANCH   1   7
TORSDOF 5
ENDMDL
MODEL 4
REMARK VINA RESULT:      -4.8      4.202      4.839
REMARK  Name = 6120722
REMARK  5 active torsions:
REMARK  status: ('A' for Active; 'I' for Inactive)
REMARK    1  A    between atoms: P_1  and  O_3
REMARK    2  A    between atoms: P_1  and  O_5
REMARK    3  A    between atoms: P_1  and  O_7
REMARK    4  A    between atoms: O_7  and  C_8
REMARK    5  A    between atoms: C_9  and  N_10
REMARK                            x       y       z     vdW  Elec       q    Type
REMARK                         _______ _______ _______ _____ _____    ______ ____
ROOT
ATOM      1  P   UNL     1      35.822 -24.364 -11.266  0.00  0.00    +0.528 P 
ATOM      2  O   UNL     1      34.730 -23.843 -12.155  0.00  0.00    -0.216 OA
ENDROOT
BRANCH   1   3
ATOM      3  O   UNL     1      37.092 -23.372 -11.120  0.00  0.00    -0.293 OA
ATOM      4  H   UNL     1      37.692 -23.716 -10.440  0.00  0.00    +0.223 HD
ENDBRANCH   1   3
BRANCH   1   5
ATOM      5  O   UNL     1      35.382 -24.611  -9.729  0.00  0.00    -0.293 OA
ATOM      6  H   UNL     1      35.873 -24.005  -9.151  0.00  0.00    +0.223 HD
ENDBRANCH   1   5
BRANCH   1   7
ATOM      7  O   UNL     1      36.493 -25.764 -11.714  0.00  0.00    -0.398 OA
BRANCH   7   8
ATOM      8  C   UNL     1      37.360 -25.876 -12.749  0.00  0.00    +0.198 C 
ATOM      9  C   UNL     1      36.980 -25.818 -14.027  0.00  0.00    +0.096 C 
BRANCH   9  10
ATOM     10  N   UNL     1      37.764 -25.918 -15.129  0.00  0.00    -0.354 N 
ATOM     11  H   UNL     1      37.830 -26.774 -15.610  0.00  0.00    +0.142 HD
ATOM     12  H   UNL     1      38.265 -25.133 -15.449  0.00  0.00    +0.142 HD
ENDBRANCH   9  10
ENDBRANCH   7   8
ENDBRANCH   1   7
TORSDOF 5
ENDMDL
MODEL 5
REMARK VINA RESULT:      -4.8      1.829      2.464
REMARK  Name = 6120722
REMARK  5 active torsions:
REMARK  status: ('A' for Active; 'I' for Inactive)
REMARK    1  A    between atoms: P_1  and  O_3
REMARK    2  A    between atoms: P_1  and  O_5
REMARK    3  A    between atoms: P_1  and  O_7
REMARK    4  A    between atoms: O_7  and  C_8
REMARK    5  A    between atoms: C_9  and  N_10
REMARK                            x       y       z     vdW  Elec       q    Type
REMARK                         _______ _______ _______ _____ _____    ______ ____
ROOT
ATOM      1  P   UNL     1      39.710 -25.366 -14.747  0.00  0.00    +0.528 P 
ATOM      2  O   UNL     1      39.033 -26.421 -13.920  0.00  0.00    -0.216 OA
ENDROOT
BRANCH   1   3
ATOM      3  O   UNL     1      40.981 -24.670 -14.027  0.00  0.00    -0.293 OA
ATOM      4  H   UNL     1      40.724 -23.795 -13.695  0.00  0.00    +0.223 HD
ENDBRANCH   1   3
BRANCH   1   5
ATOM      5  O   UNL     1      40.336 -25.898 -16.141  0.00  0.00    -0.293 OA
ATOM      6  H   UNL     1      39.900 -26.726 -16.396  0.00  0.00    +0.223 HD
ENDBRANCH   1   5
BRANCH   1   7
ATOM      7  O   UNL     1      38.793 -24.108 -15.180  0.00  0.00    -0.398 OA
BRANCH   7   8
ATOM      8  C   UNL     1      37.459 -24.047 -14.951  0.00  0.00    +0.198 C 
ATOM      9  C   UNL     1      36.922 -23.323 -13.966  0.00  0.00    +0.096 C 
BRANCH   9  10
ATOM     10  N   UNL     1      35.608 -23.194 -13.655  0.00  0.00    -0.354 N 
ATOM     11  H   UNL     1      35.302 -23.360 -12.734  0.00  0.00    +0.142 HD
ATOM     12  H   UNL     1      34.961 -22.935 -14.350  0.00  0.00    +0.142 HD
ENDBRANCH   9  10
ENDBRANCH   7   8
ENDBRANCH   1   7
TORSDOF 5
ENDMDL
MODEL 6
REMARK VINA RESULT:      -4.7     10.085     10.713
REMARK  Name = 6120722
REMARK  5 active torsions:
REMARK  status: ('A' for Active; 'I' for Inactive)
REMARK    1  A    between atoms: P_1  and  O_3
REMARK    2  A    between atoms: P_1  and  O_5
REMARK    3  A    between atoms: P_1  and  O_7
REMARK    4  A    between atoms: O_7  and  C_8
REMARK    5  A    between atoms: C_9  and  N_10
REMARK                            x       y       z     vdW  Elec       q    Type
REMARK                         _______ _______ _______ _____ _____    ______ ____
ROOT
ATOM      1  P   UNL     1      28.250 -22.934 -16.598  0.00  0.00    +0.528 P 
ATOM      2  O   UNL     1      27.613 -22.072 -15.546  0.00  0.00    -0.216 OA
ENDROOT
BRANCH   1   3
ATOM      3  O   UNL     1      27.365 -23.109 -17.941  0.00  0.00    -0.293 OA
ATOM      4  H   UNL     1      26.934 -23.979 -17.932  0.00  0.00    +0.223 HD
ENDBRANCH   1   3
BRANCH   1   5
ATOM      5  O   UNL     1      29.659 -22.378 -17.167  0.00  0.00    -0.293 OA
ATOM      6  H   UNL     1      29.540 -22.074 -18.080  0.00  0.00    +0.223 HD
ENDBRANCH   1   5
BRANCH   1   7
ATOM      7  O   UNL     1      28.573 -24.457 -16.164  0.00  0.00    -0.398 OA
BRANCH   7   8
ATOM      8  C   UNL     1      28.991 -24.805 -14.923  0.00  0.00    +0.198 C 
ATOM      9  C   UNL     1      30.276 -24.809 -14.562  0.00  0.00    +0.096 C 
BRANCH   9  10
ATOM     10  N   UNL     1      30.795 -25.137 -13.353  0.00  0.00    -0.354 N 
ATOM     11  H   UNL     1      30.490 -24.670 -12.542  0.00  0.00    +0.142 HD
ATOM     12  H   UNL     1      31.478 -25.843 -13.287  0.00  0.00    +0.142 HD
ENDBRANCH   9  10
ENDBRANCH   7   8
ENDBRANCH   1   7
TORSDOF 5
ENDMDL
MODEL 7
REMARK VINA RESULT:      -4.7      3.115      4.028
REMARK  Name = 6120722
REMARK  5 active torsions:
REMARK  status: ('A' for Active; 'I' for Inactive)
REMARK    1  A    between atoms: P_1  and  O_3
REMARK    2  A    between atoms: P_1  and  O_5
REMARK    3  A    between atoms: P_1  and  O_7
REMARK    4  A    between atoms: O_7  and  C_8
REMARK    5  A    between atoms: C_9  and  N_10
REMARK                            x       y       z     vdW  Elec       q    Type
REMARK                         _______ _______ _______ _____ _____    ______ ____
ROOT
ATOM      1  P   UNL     1      37.358 -23.518 -12.190  0.00  0.00    +0.528 P 
ATOM      2  O   UNL     1      37.637 -24.571 -11.157  0.00  0.00    -0.216 OA
ENDROOT
BRANCH   1   3
ATOM      3  O   UNL     1      35.788 -23.184 -12.395  0.00  0.00    -0.293 OA
ATOM      4  H   UNL     1      35.430 -23.743 -13.102  0.00  0.00    +0.223 HD
ENDBRANCH   1   3
BRANCH   1   5
ATOM      5  O   UNL     1      37.993 -22.066 -11.864  0.00  0.00    -0.293 OA
ATOM      6  H   UNL     1      38.811 -22.178 -11.354  0.00  0.00    +0.223 HD
ENDBRANCH   1   5
BRANCH   1   7
ATOM      7  O   UNL     1      37.867 -23.844 -13.689  0.00  0.00    -0.398 OA
BRANCH   7   8
ATOM      8  C   UNL     1      37.154 -24.583 -14.572  0.00  0.00    +0.198 C 
ATOM      9  C   UNL     1      36.850 -25.866 -14.369  0.00  0.00    +0.096 C 
BRANCH   9  10
ATOM     10  N   UNL     1      36.145 -26.690 -15.185  0.00  0.00    -0.354 N 
ATOM     11  H   UNL     1      36.055 -27.644 -14.962  0.00  0.00    +0.142 HD
ATOM     12  H   UNL     1      35.723 -26.332 -15.999  0.00  0.00    +0.142 HD
ENDBRANCH   9  10
ENDBRANCH   7   8
ENDBRANCH   1   7
TORSDOF 5
ENDMDL
MODEL 8
REMARK VINA RESULT:      -4.6      9.780     10.478
REMARK  Name = 6120722
REMARK  5 active torsions:
REMARK  status: ('A' for Active; 'I' for Inactive)
REMARK    1  A    between atoms: P_1  and  O_3
REMARK    2  A    between atoms: P_1  and  O_5
REMARK    3  A    between atoms: P_1  and  O_7
REMARK    4  A    between atoms: O_7  and  C_8
REMARK    5  A    between atoms: C_9  and  N_10
REMARK                            x       y       z     vdW  Elec       q    Type
REMARK                         _______ _______ _______ _____ _____    ______ ____
ROOT
ATOM      1  P   UNL     1      28.378 -23.166 -16.572  0.00  0.00    +0.528 P 
ATOM      2  O   UNL     1      27.647 -23.890 -17.665  0.00  0.00    -0.216 OA
ENDROOT
BRANCH   1   3
ATOM      3  O   UNL     1      29.755 -22.460 -17.046  0.00  0.00    -0.293 OA
ATOM      4  H   UNL     1      30.430 -23.140 -17.197  0.00  0.00    +0.223 HD
ENDBRANCH   1   3
BRANCH   1   5
ATOM      5  O   UNL     1      27.558 -21.940 -15.906  0.00  0.00    -0.293 OA
ATOM      6  H   UNL     1      26.890 -21.620 -16.532  0.00  0.00    +0.223 HD
ENDBRANCH   1   5
BRANCH   1   7
ATOM      7  O   UNL     1      28.837 -24.066 -15.310  0.00  0.00    -0.398 OA
BRANCH   7   8
ATOM      8  C   UNL     1      30.072 -24.610 -15.194  0.00  0.00    +0.198 C 
ATOM      9  C   UNL     1      30.712 -24.721 -14.029  0.00  0.00    +0.096 C 
BRANCH   9  10
ATOM     10  N   UNL     1      31.942 -25.247 -13.806  0.00  0.00    -0.354 N 
ATOM     11  H   UNL     1      32.357 -25.171 -12.916  0.00  0.00    +0.142 HD
ATOM     12  H   UNL     1      32.420 -25.705 -14.534  0.00  0.00    +0.142 HD
ENDBRANCH   9  10
ENDBRANCH   7   8
ENDBRANCH   1   7
TORSDOF 5
ENDMDL
MODEL 9
REMARK VINA RESULT:      -4.6     10.867     11.404
REMARK  Name = 6120722
REMARK  5 active torsions:
REMARK  status: ('A' for Active; 'I' for Inactive)
REMARK    1  A    between atoms: P_1  and  O_3
REMARK    2  A    between atoms: P_1  and  O_5
REMARK    3  A    between atoms: P_1  and  O_7
REMARK    4  A    between atoms: O_7  and  C_8
REMARK    5  A    between atoms: C_9  and  N_10
REMARK                            x       y       z     vdW  Elec       q    Type
REMARK                         _______ _______ _______ _____ _____    ______ ____
ROOT
ATOM      1  P   UNL     1      42.096 -16.352 -17.446  0.00  0.00    +0.528 P 
ATOM      2  O   UNL     1      42.325 -16.332 -18.930  0.00  0.00    -0.216 OA
ENDROOT
BRANCH   1   3
ATOM      3  O   UNL     1      41.448 -17.727 -16.891  0.00  0.00    -0.293 OA
ATOM      4  H   UNL     1      40.647 -17.524 -16.383  0.00  0.00    +0.223 HD
ENDBRANCH   1   3
BRANCH   1   5
ATOM      5  O   UNL     1      43.437 -16.203 -16.553  0.00  0.00    -0.293 OA
ATOM      6  H   UNL     1      43.812 -17.082 -16.383  0.00  0.00    +0.223 HD
ENDBRANCH   1   5
BRANCH   1   7
ATOM      7  O   UNL     1      41.107 -15.214 -16.867  0.00  0.00    -0.398 OA
BRANCH   7   8
ATOM      8  C   UNL     1      40.953 -14.965 -15.543  0.00  0.00    +0.198 C 
ATOM      9  C   UNL     1      40.932 -13.733 -15.033  0.00  0.00    +0.096 C 
BRANCH   9  10
ATOM     10  N   UNL     1      40.784 -13.378 -13.732  0.00  0.00    -0.354 N 
ATOM     11  H   UNL     1      40.179 -13.890 -13.147  0.00  0.00    +0.142 HD
ATOM     12  H   UNL     1      41.283 -12.609 -13.372  0.00  0.00    +0.142 HD
ENDBRANCH   9  10
ENDBRANCH   7   8
ENDBRANCH   1   7
TORSDOF 5
ENDMDL
