MODEL 1
REMARK VINA RESULT:      -3.5      0.000      0.000
REMARK  Name = 79124
REMARK  1 active torsions:
REMARK  status: ('A' for Active; 'I' for Inactive)
REMARK    1  A    between atoms: N_2  and  C_3
REMARK                            x       y       z     vdW  Elec       q    Type
REMARK                         _______ _______ _______ _____ _____    ______ ____
ROOT
ATOM      1  O   UNL     1      26.169 -20.346 -17.904  0.00  0.00    -0.100 OA
ATOM      2  N   UNL     1      25.991 -21.388 -17.251  0.00  0.00    -0.048 NA
ENDROOT
BRANCH   2   3
ATOM      3  C   UNL     1      27.168 -22.257 -17.231  0.00  0.00    +0.125 C 
ATOM      4  C   UNL     1      27.615 -22.452 -15.797  0.00  0.00    +0.023 C 
ENDBRANCH   2   3
TORSDOF 1
ENDMDL
MODEL 2
REMARK VINA RESULT:      -3.4     11.177     11.415
REMARK  Name = 79124
REMARK  1 active torsions:
REMARK  status: ('A' for Active; 'I' for Inactive)
REMARK    1  A    between atoms: N_2  and  C_3
REMARK                            x       y       z     vdW  Elec       q    Type
REMARK                         _______ _______ _______ _____ _____    ______ ____
ROOT
ATOM      1  O   UNL     1      35.353 -24.535  -9.617  0.00  0.00    -0.100 OA
ATOM      2  N   UNL     1      35.377 -25.022 -10.761  0.00  0.00    -0.048 NA
ENDROOT
BRANCH   2   3
ATOM      3  C   UNL     1      35.565 -24.015 -11.806  0.00  0.00    +0.125 C 
ATOM      4  C   UNL     1      36.859 -23.271 -11.548  0.00  0.00    +0.023 C 
ENDBRANCH   2   3
TORSDOF 1
ENDMDL
MODEL 3
REMARK VINA RESULT:      -3.4     14.554     14.592
REMARK  Name = 79124
REMARK  1 active torsions:
REMARK  status: ('A' for Active; 'I' for Inactive)
REMARK    1  A    between atoms: N_2  and  C_3
REMARK                            x       y       z     vdW  Elec       q    Type
REMARK                         _______ _______ _______ _____ _____    ______ ____
ROOT
ATOM      1  O   UNL     1      41.252 -26.740 -14.109  0.00  0.00    -0.100 OA
ATOM      2  N   UNL     1      40.837 -26.182 -15.139  0.00  0.00    -0.048 NA
ENDROOT
BRANCH   2   3
ATOM      3  C   UNL     1      39.761 -25.227 -14.875  0.00  0.00    +0.125 C 
ATOM      4  C   UNL     1      39.172 -25.510 -13.509  0.00  0.00    +0.023 C 
ENDBRANCH   2   3
TORSDOF 1
ENDMDL
MODEL 4
REMARK VINA RESULT:      -3.2      2.620      2.626
REMARK  Name = 79124
REMARK  1 active torsions:
REMARK  status: ('A' for Active; 'I' for Inactive)
REMARK    1  A    between atoms: N_2  and  C_3
REMARK                            x       y       z     vdW  Elec       q    Type
REMARK                         _______ _______ _______ _____ _____    ______ ____
ROOT
ATOM      1  O   UNL     1      27.773 -24.436 -17.466  0.00  0.00    -0.100 OA
ATOM      2  N   UNL     1      27.501 -23.248 -17.712  0.00  0.00    -0.048 NA
ENDROOT
BRANCH   2   3
ATOM      3  C   UNL     1      27.528 -22.398 -16.522  0.00  0.00    +0.125 C 
ATOM      4  C   UNL     1      28.815 -22.651 -15.763  0.00  0.00    +0.023 C 
ENDBRANCH   2   3
TORSDOF 1
ENDMDL
MODEL 5
REMARK VINA RESULT:      -3.2     11.693     11.753
REMARK  Name = 79124
REMARK  1 active torsions:
REMARK  status: ('A' for Active; 'I' for Inactive)
REMARK    1  A    between atoms: N_2  and  C_3
REMARK                            x       y       z     vdW  Elec       q    Type
REMARK                         _______ _______ _______ _____ _____    ______ ____
ROOT
ATOM      1  O   UNL     1      36.665 -27.640 -16.674  0.00  0.00    -0.100 OA
ATOM      2  N   UNL     1      36.341 -26.831 -15.788  0.00  0.00    -0.048 NA
ENDROOT
BRANCH   2   3
ATOM      3  C   UNL     1      37.284 -26.800 -14.671  0.00  0.00    +0.125 C 
ATOM      4  C   UNL     1      38.047 -25.492 -14.703  0.00  0.00    +0.023 C 
ENDBRANCH   2   3
TORSDOF 1
ENDMDL
MODEL 6
REMARK VINA RESULT:      -3.1      7.562      7.629
REMARK  Name = 79124
REMARK  1 active torsions:
REMARK  status: ('A' for Active; 'I' for Inactive)
REMARK    1  A    between atoms: N_2  and  C_3
REMARK                            x       y       z     vdW  Elec       q    Type
REMARK                         _______ _______ _______ _____ _____    ______ ____
ROOT
ATOM      1  O   UNL     1      33.861 -23.392 -19.208  0.00  0.00    -0.100 OA
ATOM      2  N   UNL     1      33.102 -22.441 -19.465  0.00  0.00    -0.048 NA
ENDROOT
BRANCH   2   3
ATOM      3  C   UNL     1      33.820 -21.189 -19.706  0.00  0.00    +0.125 C 
ATOM      4  C   UNL     1      32.910 -20.232 -20.449  0.00  0.00    +0.023 C 
ENDBRANCH   2   3
TORSDOF 1
ENDMDL
MODEL 7
REMARK VINA RESULT:      -3.0     11.971     12.098
REMARK  Name = 79124
REMARK  1 active torsions:
REMARK  status: ('A' for Active; 'I' for Inactive)
REMARK    1  A    between atoms: N_2  and  C_3
REMARK                            x       y       z     vdW  Elec       q    Type
REMARK                         _______ _______ _______ _____ _____    ______ ____
ROOT
ATOM      1  O   UNL     1      33.839 -16.060 -26.128  0.00  0.00    -0.100 OA
ATOM      2  N   UNL     1      34.775 -16.813 -25.807  0.00  0.00    -0.048 NA
ENDROOT
BRANCH   2   3
ATOM      3  C   UNL     1      34.627 -17.365 -24.461  0.00  0.00    +0.125 C 
ATOM      4  C   UNL     1      34.551 -18.875 -24.550  0.00  0.00    +0.023 C 
ENDBRANCH   2   3
TORSDOF 1
ENDMDL
MODEL 8
REMARK VINA RESULT:      -3.0     12.404     12.482
REMARK  Name = 79124
REMARK  1 active torsions:
REMARK  status: ('A' for Active; 'I' for Inactive)
REMARK    1  A    between atoms: N_2  and  C_3
REMARK                            x       y       z     vdW  Elec       q    Type
REMARK                         _______ _______ _______ _____ _____    ______ ____
ROOT
ATOM      1  O   UNL     1      39.037 -23.309 -11.721  0.00  0.00    -0.100 OA
ATOM      2  N   UNL     1      38.040 -22.571 -11.626  0.00  0.00    -0.048 NA
ENDROOT
BRANCH   2   3
ATOM      3  C   UNL     1      36.778 -23.299 -11.745  0.00  0.00    +0.125 C 
ATOM      4  C   UNL     1      37.072 -24.757 -12.031  0.00  0.00    +0.023 C 
ENDBRANCH   2   3
TORSDOF 1
ENDMDL
MODEL 9
REMARK VINA RESULT:      -3.0     16.436     16.530
REMARK  Name = 79124
REMARK  1 active torsions:
REMARK  status: ('A' for Active; 'I' for Inactive)
REMARK    1  A    between atoms: N_2  and  C_3
REMARK                            x       y       z     vdW  Elec       q    Type
REMARK                         _______ _______ _______ _____ _____    ______ ____
ROOT
ATOM      1  O   UNL     1      43.264 -16.098 -16.353  0.00  0.00    -0.100 OA
ATOM      2  N   UNL     1      42.298 -16.591 -15.744  0.00  0.00    -0.048 NA
ENDROOT
BRANCH   2   3
ATOM      3  C   UNL     1      41.183 -15.657 -15.592  0.00  0.00    +0.125 C 
ATOM      4  C   UNL     1      41.210 -14.663 -16.734  0.00  0.00    +0.023 C 
ENDBRANCH   2   3
TORSDOF 1
ENDMDL
