MODEL 1
REMARK VINA RESULT:      -8.4      0.000      0.000
REMARK  Name = 446807
REMARK  7 active torsions:
REMARK  status: ('A' for Active; 'I' for Inactive)
REMARK    1  A    between atoms: C_2  and  O_13
REMARK    2  A    between atoms: C_3  and  O_7
REMARK    3  A    between atoms: C_4  and  C_18
REMARK    4  A    between atoms: C_5  and  O_9
REMARK    5  A    between atoms: C_6  and  O_11
REMARK    6  A    between atoms: O_13  and  S_14
REMARK    7  A    between atoms: C_18  and  O_19
REMARK                            x       y       z     vdW  Elec       q    Type
REMARK                         _______ _______ _______ _____ _____    ______ ____
ROOT
ATOM      1  O   UNL     1      36.373 -23.592 -13.952  0.00  0.00    -0.326 OA
ATOM      2  C   UNL     1      38.265 -25.031 -13.360  0.00  0.00    +0.206 C 
ATOM      3  C   UNL     1      37.662 -25.292 -11.977  0.00  0.00    +0.174 C 
ATOM      4  C   UNL     1      37.218 -24.648 -14.414  0.00  0.00    +0.179 C 
ATOM      5  C   UNL     1      36.748 -24.133 -11.573  0.00  0.00    +0.196 C 
ATOM      6  C   UNL     1      35.745 -23.777 -12.680  0.00  0.00    +0.262 C 
ENDROOT
BRANCH   3   7
ATOM      7  O   UNL     1      36.925 -26.510 -11.987  0.00  0.00    -0.379 OA
ATOM      8  H   UNL     1      37.508 -27.243 -11.733  0.00  0.00    +0.211 HD
ENDBRANCH   3   7
BRANCH   5   9
ATOM      9  O   UNL     1      37.542 -22.977 -11.310  0.00  0.00    -0.378 OA
ATOM     10  H   UNL     1      38.231 -22.898 -11.988  0.00  0.00    +0.211 HD
ENDBRANCH   5   9
BRANCH   6  11
ATOM     11  O   UNL     1      34.659 -24.696 -12.725  0.00  0.00    -0.358 OA
ATOM     12  H   UNL     1      34.979 -25.561 -13.025  0.00  0.00    +0.213 HD
ENDBRANCH   6  11
BRANCH   2  13
ATOM     13  O   UNL     1      39.030 -26.146 -13.797  0.00  0.00    -0.198 OA
BRANCH  13  14
ATOM     14  S   UNL     1      40.537 -25.911 -14.372  0.00  0.00    +0.239 S 
ATOM     15  O   UNL     1      40.345 -25.966 -15.992  0.00  0.00    -0.116 OA
ATOM     16  O   UNL     1      40.925 -24.556 -14.025  0.00  0.00    -0.022 OA
ATOM     17  O   UNL     1      41.375 -27.030 -13.983  0.00  0.00    -0.116 OA
ENDBRANCH  13  14
ENDBRANCH   2  13
BRANCH   4  18
ATOM     18  C   UNL     1      36.411 -25.804 -15.004  0.00  0.00    +0.169 C 
BRANCH  18  19
ATOM     19  O   UNL     1      37.262 -26.571 -15.836  0.00  0.00    -0.379 OA
ATOM     20  H   UNL     1      37.933 -25.993 -16.232  0.00  0.00    +0.211 HD
ENDBRANCH  18  19
ENDBRANCH   4  18
TORSDOF 7
ENDMDL
MODEL 2
REMARK VINA RESULT:      -6.6      2.625      4.762
REMARK  Name = 446807
REMARK  7 active torsions:
REMARK  status: ('A' for Active; 'I' for Inactive)
REMARK    1  A    between atoms: C_2  and  O_13
REMARK    2  A    between atoms: C_3  and  O_7
REMARK    3  A    between atoms: C_4  and  C_18
REMARK    4  A    between atoms: C_5  and  O_9
REMARK    5  A    between atoms: C_6  and  O_11
REMARK    6  A    between atoms: O_13  and  S_14
REMARK    7  A    between atoms: C_18  and  O_19
REMARK                            x       y       z     vdW  Elec       q    Type
REMARK                         _______ _______ _______ _____ _____    ______ ____
ROOT
ATOM      1  O   UNL     1      37.736 -23.705 -13.028  0.00  0.00    -0.326 OA
ATOM      2  C   UNL     1      36.515 -24.430 -15.025  0.00  0.00    +0.206 C 
ATOM      3  C   UNL     1      37.297 -25.746 -15.052  0.00  0.00    +0.174 C 
ATOM      4  C   UNL     1      36.442 -23.798 -13.629  0.00  0.00    +0.179 C 
ATOM      5  C   UNL     1      38.651 -25.569 -14.362  0.00  0.00    +0.196 C 
ATOM      6  C   UNL     1      38.515 -24.904 -12.985  0.00  0.00    +0.262 C 
ENDROOT
BRANCH   3   7
ATOM      7  O   UNL     1      36.551 -26.770 -14.401  0.00  0.00    -0.379 OA
ATOM      8  H   UNL     1      36.976 -27.628 -14.558  0.00  0.00    +0.211 HD
ENDBRANCH   3   7
BRANCH   5   9
ATOM      9  O   UNL     1      39.485 -24.741 -15.170  0.00  0.00    -0.378 OA
ATOM     10  H   UNL     1      39.735 -25.222 -15.975  0.00  0.00    +0.211 HD
ENDBRANCH   5   9
BRANCH   6  11
ATOM     11  O   UNL     1      38.064 -25.824 -11.996  0.00  0.00    -0.358 OA
ATOM     12  H   UNL     1      37.943 -26.698 -12.398  0.00  0.00    +0.213 HD
ENDBRANCH   6  11
BRANCH   2  13
ATOM     13  O   UNL     1      35.212 -24.604 -15.564  0.00  0.00    -0.198 OA
BRANCH  13  14
ATOM     14  S   UNL     1      34.459 -23.342 -16.271  0.00  0.00    +0.239 S 
ATOM     15  O   UNL     1      33.817 -23.985 -17.626  0.00  0.00    -0.116 OA
ATOM     16  O   UNL     1      33.359 -22.957 -15.407  0.00  0.00    -0.022 OA
ATOM     17  O   UNL     1      35.451 -22.360 -16.669  0.00  0.00    -0.116 OA
ENDBRANCH  13  14
ENDBRANCH   2  13
BRANCH   4  18
ATOM     18  C   UNL     1      35.415 -24.406 -12.674  0.00  0.00    +0.169 C 
BRANCH  18  19
ATOM     19  O   UNL     1      34.250 -23.600 -12.691  0.00  0.00    -0.379 OA
ATOM     20  H   UNL     1      34.278 -22.976 -11.949  0.00  0.00    +0.211 HD
ENDBRANCH  18  19
ENDBRANCH   4  18
TORSDOF 7
ENDMDL
MODEL 3
REMARK VINA RESULT:      -6.4      2.515      5.254
REMARK  Name = 446807
REMARK  7 active torsions:
REMARK  status: ('A' for Active; 'I' for Inactive)
REMARK    1  A    between atoms: C_2  and  O_13
REMARK    2  A    between atoms: C_3  and  O_7
REMARK    3  A    between atoms: C_4  and  C_18
REMARK    4  A    between atoms: C_5  and  O_9
REMARK    5  A    between atoms: C_6  and  O_11
REMARK    6  A    between atoms: O_13  and  S_14
REMARK    7  A    between atoms: C_18  and  O_19
REMARK                            x       y       z     vdW  Elec       q    Type
REMARK                         _______ _______ _______ _____ _____    ______ ____
ROOT
ATOM      1  O   UNL     1      37.882 -23.523 -14.241  0.00  0.00    -0.326 OA
ATOM      2  C   UNL     1      35.746 -24.643 -13.807  0.00  0.00    +0.206 C 
ATOM      3  C   UNL     1      36.467 -25.972 -13.564  0.00  0.00    +0.174 C 
ATOM      4  C   UNL     1      36.634 -23.418 -13.551  0.00  0.00    +0.179 C 
ATOM      5  C   UNL     1      37.804 -25.989 -14.308  0.00  0.00    +0.196 C 
ATOM      6  C   UNL     1      38.631 -24.725 -14.038  0.00  0.00    +0.262 C 
ENDROOT
BRANCH   3   7
ATOM      7  O   UNL     1      36.686 -26.162 -12.170  0.00  0.00    -0.379 OA
ATOM      8  H   UNL     1      36.817 -25.302 -11.743  0.00  0.00    +0.211 HD
ENDBRANCH   3   7
BRANCH   5   9
ATOM      9  O   UNL     1      37.560 -26.064 -15.712  0.00  0.00    -0.378 OA
ATOM     10  H   UNL     1      36.972 -25.340 -15.976  0.00  0.00    +0.211 HD
ENDBRANCH   5   9
BRANCH   6  11
ATOM     11  O   UNL     1      39.271 -24.773 -12.767  0.00  0.00    -0.358 OA
ATOM     12  H   UNL     1      40.189 -24.472 -12.855  0.00  0.00    +0.213 HD
ENDBRANCH   6  11
BRANCH   2  13
ATOM     13  O   UNL     1      34.555 -24.566 -13.036  0.00  0.00    -0.198 OA
BRANCH  13  14
ATOM     14  S   UNL     1      33.167 -24.091 -13.749  0.00  0.00    +0.239 S 
ATOM     15  O   UNL     1      32.306 -25.472 -13.874  0.00  0.00    -0.116 OA
ATOM     16  O   UNL     1      32.474 -23.228 -12.810  0.00  0.00    -0.022 OA
ATOM     17  O   UNL     1      33.458 -23.623 -15.091  0.00  0.00    -0.116 OA
ENDBRANCH  13  14
ENDBRANCH   2  13
BRANCH   4  18
ATOM     18  C   UNL     1      36.826 -23.026 -12.087  0.00  0.00    +0.169 C 
BRANCH  18  19
ATOM     19  O   UNL     1      37.902 -22.109 -12.002  0.00  0.00    -0.379 OA
ATOM     20  H   UNL     1      38.671 -22.469 -12.472  0.00  0.00    +0.211 HD
ENDBRANCH  18  19
ENDBRANCH   4  18
TORSDOF 7
ENDMDL
MODEL 4
REMARK VINA RESULT:      -6.3      1.613      2.324
REMARK  Name = 446807
REMARK  7 active torsions:
REMARK  status: ('A' for Active; 'I' for Inactive)
REMARK    1  A    between atoms: C_2  and  O_13
REMARK    2  A    between atoms: C_3  and  O_7
REMARK    3  A    between atoms: C_4  and  C_18
REMARK    4  A    between atoms: C_5  and  O_9
REMARK    5  A    between atoms: C_6  and  O_11
REMARK    6  A    between atoms: O_13  and  S_14
REMARK    7  A    between atoms: C_18  and  O_19
REMARK                            x       y       z     vdW  Elec       q    Type
REMARK                         _______ _______ _______ _____ _____    ______ ____
ROOT
ATOM      1  O   UNL     1      35.819 -23.053 -13.816  0.00  0.00    -0.326 OA
ATOM      2  C   UNL     1      37.822 -24.379 -14.298  0.00  0.00    +0.206 C 
ATOM      3  C   UNL     1      36.983 -25.658 -14.379  0.00  0.00    +0.174 C 
ATOM      4  C   UNL     1      37.017 -23.108 -14.595  0.00  0.00    +0.179 C 
ATOM      5  C   UNL     1      35.708 -25.504 -13.547  0.00  0.00    +0.196 C 
ATOM      6  C   UNL     1      34.965 -24.200 -13.866  0.00  0.00    +0.262 C 
ENDROOT
BRANCH   3   7
ATOM      7  O   UNL     1      36.647 -25.938 -15.734  0.00  0.00    -0.379 OA
ATOM      8  H   UNL     1      35.808 -25.505 -15.955  0.00  0.00    +0.211 HD
ENDBRANCH   3   7
BRANCH   5   9
ATOM      9  O   UNL     1      36.049 -25.489 -12.162  0.00  0.00    -0.378 OA
ATOM     10  H   UNL     1      36.685 -26.198 -11.979  0.00  0.00    +0.211 HD
ENDBRANCH   5   9
BRANCH   6  11
ATOM     11  O   UNL     1      34.231 -24.292 -15.082  0.00  0.00    -0.358 OA
ATOM     12  H   UNL     1      33.397 -24.760 -14.922  0.00  0.00    +0.213 HD
ENDBRANCH   6  11
BRANCH   2  13
ATOM     13  O   UNL     1      38.956 -24.464 -15.151  0.00  0.00    -0.198 OA
BRANCH  13  14
ATOM     14  S   UNL     1      40.248 -25.342 -14.685  0.00  0.00    +0.239 S 
ATOM     15  O   UNL     1      40.660 -26.166 -16.032  0.00  0.00    -0.116 OA
ATOM     16  O   UNL     1      41.323 -24.410 -14.399  0.00  0.00    -0.022 OA
ATOM     17  O   UNL     1      39.832 -26.304 -13.682  0.00  0.00    -0.116 OA
ENDBRANCH  13  14
ENDBRANCH   2  13
BRANCH   4  18
ATOM     18  C   UNL     1      36.748 -22.817 -16.071  0.00  0.00    +0.169 C 
BRANCH  18  19
ATOM     19  O   UNL     1      37.973 -22.476 -16.695  0.00  0.00    -0.379 OA
ATOM     20  H   UNL     1      37.982 -21.526 -16.890  0.00  0.00    +0.211 HD
ENDBRANCH  18  19
ENDBRANCH   4  18
TORSDOF 7
ENDMDL
MODEL 5
REMARK VINA RESULT:      -6.2      2.566      4.204
REMARK  Name = 446807
REMARK  7 active torsions:
REMARK  status: ('A' for Active; 'I' for Inactive)
REMARK    1  A    between atoms: C_2  and  O_13
REMARK    2  A    between atoms: C_3  and  O_7
REMARK    3  A    between atoms: C_4  and  C_18
REMARK    4  A    between atoms: C_5  and  O_9
REMARK    5  A    between atoms: C_6  and  O_11
REMARK    6  A    between atoms: O_13  and  S_14
REMARK    7  A    between atoms: C_18  and  O_19
REMARK                            x       y       z     vdW  Elec       q    Type
REMARK                         _______ _______ _______ _____ _____    ______ ____
ROOT
ATOM      1  O   UNL     1      33.116 -24.757 -14.675  0.00  0.00    -0.326 OA
ATOM      2  C   UNL     1      35.501 -24.683 -15.232  0.00  0.00    +0.206 C 
ATOM      3  C   UNL     1      35.328 -23.308 -15.885  0.00  0.00    +0.174 C 
ATOM      4  C   UNL     1      34.434 -24.987 -14.172  0.00  0.00    +0.179 C 
ATOM      5  C   UNL     1      33.886 -23.130 -16.364  0.00  0.00    +0.196 C 
ATOM      6  C   UNL     1      32.867 -23.480 -15.271  0.00  0.00    +0.262 C 
ENDROOT
BRANCH   3   7
ATOM      7  O   UNL     1      35.661 -22.281 -14.956  0.00  0.00    -0.379 OA
ATOM      8  H   UNL     1      35.275 -21.441 -15.251  0.00  0.00    +0.211 HD
ENDBRANCH   3   7
BRANCH   5   9
ATOM      9  O   UNL     1      33.651 -23.991 -17.477  0.00  0.00    -0.378 OA
ATOM     10  H   UNL     1      32.969 -23.603 -18.047  0.00  0.00    +0.211 HD
ENDBRANCH   5   9
BRANCH   6  11
ATOM     11  O   UNL     1      32.740 -22.435 -14.312  0.00  0.00    -0.358 OA
ATOM     12  H   UNL     1      31.914 -21.952 -14.467  0.00  0.00    +0.213 HD
ENDBRANCH   6  11
BRANCH   2  13
ATOM     13  O   UNL     1      36.804 -24.822 -14.685  0.00  0.00    -0.198 OA
BRANCH  13  14
ATOM     14  S   UNL     1      37.538 -26.278 -14.718  0.00  0.00    +0.239 S 
ATOM     15  O   UNL     1      36.778 -27.065 -15.928  0.00  0.00    -0.116 OA
ATOM     16  O   UNL     1      38.911 -26.060 -15.135  0.00  0.00    -0.022 OA
ATOM     17  O   UNL     1      37.256 -26.981 -13.481  0.00  0.00    -0.116 OA
ENDBRANCH  13  14
ENDBRANCH   2  13
BRANCH   4  18
ATOM     18  C   UNL     1      34.644 -24.333 -12.807  0.00  0.00    +0.169 C 
BRANCH  18  19
ATOM     19  O   UNL     1      35.438 -25.194 -12.011  0.00  0.00    -0.379 OA
ATOM     20  H   UNL     1      35.661 -25.989 -12.519  0.00  0.00    +0.211 HD
ENDBRANCH  18  19
ENDBRANCH   4  18
TORSDOF 7
ENDMDL
MODEL 6
REMARK VINA RESULT:      -6.2      2.845      5.646
REMARK  Name = 446807
REMARK  7 active torsions:
REMARK  status: ('A' for Active; 'I' for Inactive)
REMARK    1  A    between atoms: C_2  and  O_13
REMARK    2  A    between atoms: C_3  and  O_7
REMARK    3  A    between atoms: C_4  and  C_18
REMARK    4  A    between atoms: C_5  and  O_9
REMARK    5  A    between atoms: C_6  and  O_11
REMARK    6  A    between atoms: O_13  and  S_14
REMARK    7  A    between atoms: C_18  and  O_19
REMARK                            x       y       z     vdW  Elec       q    Type
REMARK                         _______ _______ _______ _____ _____    ______ ____
ROOT
ATOM      1  O   UNL     1      37.279 -23.180 -13.098  0.00  0.00    -0.326 OA
ATOM      2  C   UNL     1      34.981 -23.825 -13.648  0.00  0.00    +0.206 C 
ATOM      3  C   UNL     1      35.467 -24.591 -14.881  0.00  0.00    +0.174 C 
ATOM      4  C   UNL     1      36.054 -23.684 -12.561  0.00  0.00    +0.179 C 
ATOM      5  C   UNL     1      36.796 -24.012 -15.371  0.00  0.00    +0.196 C 
ATOM      6  C   UNL     1      37.816 -23.866 -14.233  0.00  0.00    +0.262 C 
ENDROOT
BRANCH   3   7
ATOM      7  O   UNL     1      35.626 -25.972 -14.568  0.00  0.00    -0.379 OA
ATOM      8  H   UNL     1      36.067 -26.422 -15.306  0.00  0.00    +0.211 HD
ENDBRANCH   3   7
BRANCH   5   9
ATOM      9  O   UNL     1      36.568 -22.718 -15.927  0.00  0.00    -0.378 OA
ATOM     10  H   UNL     1      35.750 -22.348 -15.559  0.00  0.00    +0.211 HD
ENDBRANCH   5   9
BRANCH   6  11
ATOM     11  O   UNL     1      38.416 -25.112 -13.897  0.00  0.00    -0.358 OA
ATOM     12  H   UNL     1      38.622 -25.602 -14.708  0.00  0.00    +0.213 HD
ENDBRANCH   6  11
BRANCH   2  13
ATOM     13  O   UNL     1      33.804 -24.419 -13.116  0.00  0.00    -0.198 OA
BRANCH  13  14
ATOM     14  S   UNL     1      32.370 -24.154 -13.844  0.00  0.00    +0.239 S 
ATOM     15  O   UNL     1      31.490 -23.395 -12.700  0.00  0.00    -0.116 OA
ATOM     16  O   UNL     1      32.600 -23.205 -14.918  0.00  0.00    -0.022 OA
ATOM     17  O   UNL     1      31.736 -25.430 -14.123  0.00  0.00    -0.116 OA
ENDBRANCH  13  14
ENDBRANCH   2  13
BRANCH   4  18
ATOM     18  C   UNL     1      36.282 -24.915 -11.684  0.00  0.00    +0.169 C 
BRANCH  18  19
ATOM     19  O   UNL     1      35.261 -24.966 -10.704  0.00  0.00    -0.379 OA
ATOM     20  H   UNL     1      34.651 -24.222 -10.833  0.00  0.00    +0.211 HD
ENDBRANCH  18  19
ENDBRANCH   4  18
TORSDOF 7
ENDMDL
MODEL 7
REMARK VINA RESULT:      -5.8      2.342      3.827
REMARK  Name = 446807
REMARK  7 active torsions:
REMARK  status: ('A' for Active; 'I' for Inactive)
REMARK    1  A    between atoms: C_2  and  O_13
REMARK    2  A    between atoms: C_3  and  O_7
REMARK    3  A    between atoms: C_4  and  C_18
REMARK    4  A    between atoms: C_5  and  O_9
REMARK    5  A    between atoms: C_6  and  O_11
REMARK    6  A    between atoms: O_13  and  S_14
REMARK    7  A    between atoms: C_18  and  O_19
REMARK                            x       y       z     vdW  Elec       q    Type
REMARK                         _______ _______ _______ _____ _____    ______ ____
ROOT
ATOM      1  O   UNL     1      34.976 -22.321 -15.250  0.00  0.00    -0.326 OA
ATOM      2  C   UNL     1      36.312 -23.953 -14.003  0.00  0.00    +0.206 C 
ATOM      3  C   UNL     1      35.520 -25.108 -14.621  0.00  0.00    +0.174 C 
ATOM      4  C   UNL     1      36.304 -22.683 -14.864  0.00  0.00    +0.179 C 
ATOM      5  C   UNL     1      34.127 -24.629 -15.036  0.00  0.00    +0.196 C 
ATOM      6  C   UNL     1      34.183 -23.340 -15.867  0.00  0.00    +0.262 C 
ENDROOT
BRANCH   3   7
ATOM      7  O   UNL     1      36.213 -25.623 -15.754  0.00  0.00    -0.379 OA
ATOM      8  H   UNL     1      36.080 -25.031 -16.511  0.00  0.00    +0.211 HD
ENDBRANCH   3   7
BRANCH   5   9
ATOM      9  O   UNL     1      33.354 -24.366 -13.866  0.00  0.00    -0.378 OA
ATOM     10  H   UNL     1      33.467 -25.092 -13.234  0.00  0.00    +0.211 HD
ENDBRANCH   5   9
BRANCH   6  11
ATOM     11  O   UNL     1      34.561 -23.597 -17.216  0.00  0.00    -0.358 OA
ATOM     12  H   UNL     1      34.988 -22.809 -17.587  0.00  0.00    +0.213 HD
ENDBRANCH   6  11
BRANCH   2  13
ATOM     13  O   UNL     1      37.645 -24.352 -13.712  0.00  0.00    -0.198 OA
BRANCH  13  14
ATOM     14  S   UNL     1      38.080 -24.635 -12.166  0.00  0.00    +0.239 S 
ATOM     15  O   UNL     1      36.668 -24.573 -11.351  0.00  0.00    -0.116 OA
ATOM     16  O   UNL     1      38.564 -26.001 -12.098  0.00  0.00    -0.022 OA
ATOM     17  O   UNL     1      38.914 -23.543 -11.700  0.00  0.00    -0.116 OA
ENDBRANCH  13  14
ENDBRANCH   2  13
BRANCH   4  18
ATOM     18  C   UNL     1      37.262 -22.678 -16.055  0.00  0.00    +0.169 C 
BRANCH  18  19
ATOM     19  O   UNL     1      38.419 -23.418 -15.706  0.00  0.00    -0.379 OA
ATOM     20  H   UNL     1      39.209 -22.942 -16.007  0.00  0.00    +0.211 HD
ENDBRANCH  18  19
ENDBRANCH   4  18
TORSDOF 7
ENDMDL
MODEL 8
REMARK VINA RESULT:      -5.7      5.084      6.950
REMARK  Name = 446807
REMARK  7 active torsions:
REMARK  status: ('A' for Active; 'I' for Inactive)
REMARK    1  A    between atoms: C_2  and  O_13
REMARK    2  A    between atoms: C_3  and  O_7
REMARK    3  A    between atoms: C_4  and  C_18
REMARK    4  A    between atoms: C_5  and  O_9
REMARK    5  A    between atoms: C_6  and  O_11
REMARK    6  A    between atoms: O_13  and  S_14
REMARK    7  A    between atoms: C_18  and  O_19
REMARK                            x       y       z     vdW  Elec       q    Type
REMARK                         _______ _______ _______ _____ _____    ______ ____
ROOT
ATOM      1  O   UNL     1      31.907 -25.512 -14.149  0.00  0.00    -0.326 OA
ATOM      2  C   UNL     1      32.370 -23.859 -15.897  0.00  0.00    +0.206 C 
ATOM      3  C   UNL     1      31.080 -23.108 -15.559  0.00  0.00    +0.174 C 
ATOM      4  C   UNL     1      32.918 -24.680 -14.722  0.00  0.00    +0.179 C 
ATOM      5  C   UNL     1      30.067 -24.060 -14.921  0.00  0.00    +0.196 C 
ATOM      6  C   UNL     1      30.682 -24.874 -13.775  0.00  0.00    +0.262 C 
ENDROOT
BRANCH   3   7
ATOM      7  O   UNL     1      31.361 -22.031 -14.669  0.00  0.00    -0.379 OA
ATOM      8  H   UNL     1      32.207 -22.193 -14.223  0.00  0.00    +0.211 HD
ENDBRANCH   3   7
BRANCH   5   9
ATOM      9  O   UNL     1      29.597 -24.976 -15.909  0.00  0.00    -0.378 OA
ATOM     10  H   UNL     1      30.073 -24.826 -16.741  0.00  0.00    +0.211 HD
ENDBRANCH   5   9
BRANCH   6  11
ATOM     11  O   UNL     1      30.798 -24.105 -12.582  0.00  0.00    -0.358 OA
ATOM     12  H   UNL     1      30.758 -23.161 -12.801  0.00  0.00    +0.213 HD
ENDBRANCH   6  11
BRANCH   2  13
ATOM     13  O   UNL     1      33.361 -22.968 -16.390  0.00  0.00    -0.198 OA
BRANCH  13  14
ATOM     14  S   UNL     1      33.757 -23.000 -17.971  0.00  0.00    +0.239 S 
ATOM     15  O   UNL     1      32.637 -22.040 -18.668  0.00  0.00    -0.116 OA
ATOM     16  O   UNL     1      35.043 -22.342 -18.108  0.00  0.00    -0.022 OA
ATOM     17  O   UNL     1      33.570 -24.346 -18.480  0.00  0.00    -0.116 OA
ENDBRANCH  13  14
ENDBRANCH   2  13
BRANCH   4  18
ATOM     18  C   UNL     1      33.678 -23.893 -13.655  0.00  0.00    +0.169 C 
BRANCH  18  19
ATOM     19  O   UNL     1      33.884 -24.735 -12.534  0.00  0.00    -0.379 OA
ATOM     20  H   UNL     1      33.083 -25.258 -12.373  0.00  0.00    +0.211 HD
ENDBRANCH  18  19
ENDBRANCH   4  18
TORSDOF 7
ENDMDL
MODEL 9
REMARK VINA RESULT:      -5.6      4.363      6.107
REMARK  Name = 446807
REMARK  7 active torsions:
REMARK  status: ('A' for Active; 'I' for Inactive)
REMARK    1  A    between atoms: C_2  and  O_13
REMARK    2  A    between atoms: C_3  and  O_7
REMARK    3  A    between atoms: C_4  and  C_18
REMARK    4  A    between atoms: C_5  and  O_9
REMARK    5  A    between atoms: C_6  and  O_11
REMARK    6  A    between atoms: O_13  and  S_14
REMARK    7  A    between atoms: C_18  and  O_19
REMARK                            x       y       z     vdW  Elec       q    Type
REMARK                         _______ _______ _______ _____ _____    ______ ____
ROOT
ATOM      1  O   UNL     1      34.841 -24.762 -14.414  0.00  0.00    -0.326 OA
ATOM      2  C   UNL     1      33.381 -23.658 -16.042  0.00  0.00    +0.206 C 
ATOM      3  C   UNL     1      32.328 -23.405 -14.960  0.00  0.00    +0.174 C 
ATOM      4  C   UNL     1      34.801 -23.811 -15.481  0.00  0.00    +0.179 C 
ATOM      5  C   UNL     1      32.461 -24.442 -13.843  0.00  0.00    +0.196 C 
ATOM      6  C   UNL     1      33.907 -24.573 -13.346  0.00  0.00    +0.262 C 
ENDROOT
BRANCH   3   7
ATOM      7  O   UNL     1      32.482 -22.094 -14.425  0.00  0.00    -0.379 OA
ATOM      8  H   UNL     1      33.412 -21.947 -14.192  0.00  0.00    +0.211 HD
ENDBRANCH   3   7
BRANCH   5   9
ATOM      9  O   UNL     1      32.047 -25.716 -14.333  0.00  0.00    -0.378 OA
ATOM     10  H   UNL     1      31.088 -25.711 -14.477  0.00  0.00    +0.211 HD
ENDBRANCH   5   9
BRANCH   6  11
ATOM     11  O   UNL     1      34.267 -23.504 -12.477  0.00  0.00    -0.358 OA
ATOM     12  H   UNL     1      33.497 -23.245 -11.947  0.00  0.00    +0.213 HD
ENDBRANCH   6  11
BRANCH   2  13
ATOM     13  O   UNL     1      33.342 -22.639 -17.033  0.00  0.00    -0.198 OA
BRANCH  13  14
ATOM     14  S   UNL     1      33.871 -22.965 -18.541  0.00  0.00    +0.239 S 
ATOM     15  O   UNL     1      32.870 -22.099 -19.495  0.00  0.00    -0.116 OA
ATOM     16  O   UNL     1      35.198 -22.392 -18.666  0.00  0.00    -0.022 OA
ATOM     17  O   UNL     1      33.655 -24.371 -18.826  0.00  0.00    -0.116 OA
ENDBRANCH  13  14
ENDBRANCH   2  13
BRANCH   4  18
ATOM     18  C   UNL     1      35.517 -22.513 -15.112  0.00  0.00    +0.169 C 
BRANCH  18  19
ATOM     19  O   UNL     1      36.423 -22.187 -16.151  0.00  0.00    -0.379 OA
ATOM     20  H   UNL     1      36.912 -21.383 -15.913  0.00  0.00    +0.211 HD
ENDBRANCH  18  19
ENDBRANCH   4  18
TORSDOF 7
ENDMDL
