MODEL 1
REMARK VINA RESULT:      -6.0      0.000      0.000
REMARK  Name = 176077
REMARK  5 active torsions:
REMARK  status: ('A' for Active; 'I' for Inactive)
REMARK    1  A    between atoms: C_2  and  O_9
REMARK    2  A    between atoms: CA_3  and  C_15
REMARK    3  A    between atoms: C_4  and  O_11
REMARK    4  A    between atoms: C_5  and  O_13
REMARK    5  A    between atoms: C_15  and  O_16
REMARK                            x       y       z     vdW  Elec       q    Type
REMARK                         _______ _______ _______ _____ _____    ______ ____
ROOT
ATOM      1  N   UNL     1      38.752 -23.930 -15.710  0.00  0.00    +0.390 N 
ATOM      2  C   UNL     1      37.505 -25.763 -14.588  0.00  0.00    +0.123 C 
ATOM      3  CA  UNL     1      38.788 -24.909 -14.611  0.00  0.00    -0.002 C 
ATOM      4  C   UNL     1      36.271 -24.863 -14.478  0.00  0.00    +0.160 C 
ATOM      5  C   UNL     1      36.269 -23.800 -15.579  0.00  0.00    +0.118 C 
ATOM      6  C   UNL     1      37.598 -23.040 -15.596  0.00  0.00    -0.049 C 
ATOM      7  H1  UNL     1      38.700 -24.430 -16.598  0.00  0.00    -0.084 HD
ATOM      8  H2  UNL     1      39.599 -23.363 -15.663  0.00  0.00    -0.084 HD
ENDROOT
BRANCH   2   9
ATOM      9  O   UNL     1      37.406 -26.546 -15.779  0.00  0.00    -0.384 OA
ATOM     10  H   UNL     1      37.799 -26.060 -16.520  0.00  0.00    +0.210 HD
ENDBRANCH   2   9
BRANCH   4  11
ATOM     11  O   UNL     1      35.096 -25.664 -14.570  0.00  0.00    -0.380 OA
ATOM     12  H   UNL     1      34.320 -25.088 -14.666  0.00  0.00    +0.211 HD
ENDBRANCH   4  11
BRANCH   5  13
ATOM     13  O   UNL     1      35.210 -22.881 -15.317  0.00  0.00    -0.384 OA
ATOM     14  H   UNL     1      35.523 -22.192 -14.710  0.00  0.00    +0.210 HD
ENDBRANCH   5  13
BRANCH   3  15
ATOM     15  C   UNL     1      40.051 -25.758 -14.760  0.00  0.00    +0.118 C 
BRANCH  15  16
ATOM     16  O   UNL     1      40.336 -25.897 -16.138  0.00  0.00    -0.384 OA
ATOM     17  H   UNL     1      41.288 -26.046 -16.259  0.00  0.00    +0.210 HD
ENDBRANCH  15  16
ENDBRANCH   3  15
TORSDOF 5
ENDMDL
MODEL 2
REMARK VINA RESULT:      -6.0      2.522      2.823
REMARK  Name = 176077
REMARK  5 active torsions:
REMARK  status: ('A' for Active; 'I' for Inactive)
REMARK    1  A    between atoms: C_2  and  O_9
REMARK    2  A    between atoms: CA_3  and  C_15
REMARK    3  A    between atoms: C_4  and  O_11
REMARK    4  A    between atoms: C_5  and  O_13
REMARK    5  A    between atoms: C_15  and  O_16
REMARK                            x       y       z     vdW  Elec       q    Type
REMARK                         _______ _______ _______ _____ _____    ______ ____
ROOT
ATOM      1  N   UNL     1      36.862 -24.751 -14.440  0.00  0.00    +0.390 N 
ATOM      2  C   UNL     1      37.230 -25.274 -12.040  0.00  0.00    +0.123 C 
ATOM      3  CA  UNL     1      37.848 -24.740 -13.347  0.00  0.00    -0.002 C 
ATOM      4  C   UNL     1      35.991 -24.457 -11.666  0.00  0.00    +0.160 C 
ATOM      5  C   UNL     1      34.996 -24.408 -12.828  0.00  0.00    +0.118 C 
ATOM      6  C   UNL     1      35.689 -23.942 -14.111  0.00  0.00    -0.049 C 
ATOM      7  H1  UNL     1      36.566 -25.712 -14.611  0.00  0.00    -0.084 HD
ATOM      8  H2  UNL     1      37.301 -24.354 -15.272  0.00  0.00    -0.084 HD
ENDROOT
BRANCH   2   9
ATOM      9  O   UNL     1      36.856 -26.646 -12.188  0.00  0.00    -0.384 OA
ATOM     10  H   UNL     1      36.750 -27.049 -11.313  0.00  0.00    +0.210 HD
ENDBRANCH   2   9
BRANCH   4  11
ATOM     11  O   UNL     1      35.374 -25.035 -10.519  0.00  0.00    -0.380 OA
ATOM     12  H   UNL     1      36.055 -25.252  -9.861  0.00  0.00    +0.211 HD
ENDBRANCH   4  11
BRANCH   5  13
ATOM     13  O   UNL     1      33.960 -23.485 -12.497  0.00  0.00    -0.384 OA
ATOM     14  H   UNL     1      34.348 -22.696 -12.088  0.00  0.00    +0.210 HD
ENDBRANCH   5  13
BRANCH   3  15
ATOM     15  C   UNL     1      39.068 -25.548 -13.788  0.00  0.00    +0.118 C 
BRANCH  15  16
ATOM     16  O   UNL     1      38.620 -26.671 -14.523  0.00  0.00    -0.384 OA
ATOM     17  H   UNL     1      37.717 -26.897 -14.250  0.00  0.00    +0.210 HD
ENDBRANCH  15  16
ENDBRANCH   3  15
TORSDOF 5
ENDMDL
MODEL 3
REMARK VINA RESULT:      -5.9      2.374      4.135
REMARK  Name = 176077
REMARK  5 active torsions:
REMARK  status: ('A' for Active; 'I' for Inactive)
REMARK    1  A    between atoms: C_2  and  O_9
REMARK    2  A    between atoms: CA_3  and  C_15
REMARK    3  A    between atoms: C_4  and  O_11
REMARK    4  A    between atoms: C_5  and  O_13
REMARK    5  A    between atoms: C_15  and  O_16
REMARK                            x       y       z     vdW  Elec       q    Type
REMARK                         _______ _______ _______ _____ _____    ______ ____
ROOT
ATOM      1  N   UNL     1      36.804 -26.060 -12.407  0.00  0.00    +0.390 N 
ATOM      2  C   UNL     1      35.639 -24.265 -13.669  0.00  0.00    +0.123 C 
ATOM      3  CA  UNL     1      36.588 -24.607 -12.502  0.00  0.00    -0.002 C 
ATOM      4  C   UNL     1      36.193 -24.823 -14.983  0.00  0.00    +0.160 C 
ATOM      5  C   UNL     1      36.486 -26.320 -14.862  0.00  0.00    +0.118 C 
ATOM      6  C   UNL     1      37.368 -26.600 -13.643  0.00  0.00    -0.049 C 
ATOM      7  H1  UNL     1      35.911 -26.518 -12.221  0.00  0.00    -0.084 HD
ATOM      8  H2  UNL     1      37.465 -26.236 -11.649  0.00  0.00    -0.084 HD
ENDROOT
BRANCH   2   9
ATOM      9  O   UNL     1      34.343 -24.819 -13.437  0.00  0.00    -0.384 OA
ATOM     10  H   UNL     1      33.940 -24.389 -12.667  0.00  0.00    +0.210 HD
ENDBRANCH   2   9
BRANCH   4  11
ATOM     11  O   UNL     1      35.250 -24.593 -16.026  0.00  0.00    -0.380 OA
ATOM     12  H   UNL     1      35.694 -24.674 -16.886  0.00  0.00    +0.211 HD
ENDBRANCH   4  11
BRANCH   5  13
ATOM     13  O   UNL     1      37.170 -26.743 -16.040  0.00  0.00    -0.384 OA
ATOM     14  H   UNL     1      37.246 -27.711 -16.040  0.00  0.00    +0.210 HD
ENDBRANCH   5  13
BRANCH   3  15
ATOM     15  C   UNL     1      36.061 -24.106 -11.157  0.00  0.00    +0.118 C 
BRANCH  15  16
ATOM     16  O   UNL     1      35.283 -25.132 -10.571  0.00  0.00    -0.384 OA
ATOM     17  H   UNL     1      35.507 -25.983 -10.981  0.00  0.00    +0.210 HD
ENDBRANCH  15  16
ENDBRANCH   3  15
TORSDOF 5
ENDMDL
MODEL 4
REMARK VINA RESULT:      -5.8      2.159      3.886
REMARK  Name = 176077
REMARK  5 active torsions:
REMARK  status: ('A' for Active; 'I' for Inactive)
REMARK    1  A    between atoms: C_2  and  O_9
REMARK    2  A    between atoms: CA_3  and  C_15
REMARK    3  A    between atoms: C_4  and  O_11
REMARK    4  A    between atoms: C_5  and  O_13
REMARK    5  A    between atoms: C_15  and  O_16
REMARK                            x       y       z     vdW  Elec       q    Type
REMARK                         _______ _______ _______ _____ _____    ______ ____
ROOT
ATOM      1  N   UNL     1      38.473 -24.821 -12.404  0.00  0.00    +0.390 N 
ATOM      2  C   UNL     1      36.653 -25.712 -13.843  0.00  0.00    +0.123 C 
ATOM      3  CA  UNL     1      37.088 -24.608 -12.858  0.00  0.00    -0.002 C 
ATOM      4  C   UNL     1      37.615 -25.769 -15.032  0.00  0.00    +0.160 C 
ATOM      5  C   UNL     1      39.063 -25.919 -14.560  0.00  0.00    +0.118 C 
ATOM      6  C   UNL     1      39.407 -24.840 -13.529  0.00  0.00    -0.049 C 
ATOM      7  H1  UNL     1      38.528 -25.712 -11.911  0.00  0.00    -0.084 HD
ATOM      8  H2  UNL     1      38.730 -24.049 -11.788  0.00  0.00    -0.084 HD
ENDROOT
BRANCH   2   9
ATOM      9  O   UNL     1      36.640 -26.984 -13.193  0.00  0.00    -0.384 OA
ATOM     10  H   UNL     1      35.999 -26.969 -12.465  0.00  0.00    +0.210 HD
ENDBRANCH   2   9
BRANCH   4  11
ATOM     11  O   UNL     1      37.260 -26.865 -15.872  0.00  0.00    -0.380 OA
ATOM     12  H   UNL     1      36.335 -27.108 -15.711  0.00  0.00    +0.211 HD
ENDBRANCH   4  11
BRANCH   5  13
ATOM     13  O   UNL     1      39.924 -25.776 -15.688  0.00  0.00    -0.384 OA
ATOM     14  H   UNL     1      39.541 -25.135 -16.308  0.00  0.00    +0.210 HD
ENDBRANCH   5  13
BRANCH   3  15
ATOM     15  C   UNL     1      36.182 -24.535 -11.628  0.00  0.00    +0.118 C 
BRANCH  15  16
ATOM     16  O   UNL     1      34.892 -24.984 -11.995  0.00  0.00    -0.384 OA
ATOM     17  H   UNL     1      34.909 -25.945 -12.125  0.00  0.00    +0.210 HD
ENDBRANCH  15  16
ENDBRANCH   3  15
TORSDOF 5
ENDMDL
MODEL 5
REMARK VINA RESULT:      -5.8      2.565      3.487
REMARK  Name = 176077
REMARK  5 active torsions:
REMARK  status: ('A' for Active; 'I' for Inactive)
REMARK    1  A    between atoms: C_2  and  O_9
REMARK    2  A    between atoms: CA_3  and  C_15
REMARK    3  A    between atoms: C_4  and  O_11
REMARK    4  A    between atoms: C_5  and  O_13
REMARK    5  A    between atoms: C_15  and  O_16
REMARK                            x       y       z     vdW  Elec       q    Type
REMARK                         _______ _______ _______ _____ _____    ______ ____
ROOT
ATOM      1  N   UNL     1      36.096 -23.744 -13.781  0.00  0.00    +0.390 N 
ATOM      2  C   UNL     1      38.121 -25.060 -13.196  0.00  0.00    +0.123 C 
ATOM      3  CA  UNL     1      36.960 -24.190 -12.675  0.00  0.00    -0.002 C 
ATOM      4  C   UNL     1      37.575 -26.256 -13.981  0.00  0.00    +0.160 C 
ATOM      5  C   UNL     1      36.622 -25.797 -15.087  0.00  0.00    +0.118 C 
ATOM      6  C   UNL     1      35.539 -24.878 -14.516  0.00  0.00    -0.049 C 
ATOM      7  H1  UNL     1      36.647 -23.170 -14.421  0.00  0.00    -0.084 HD
ATOM      8  H2  UNL     1      35.324 -23.206 -13.387  0.00  0.00    -0.084 HD
ENDROOT
BRANCH   2   9
ATOM      9  O   UNL     1      38.975 -24.295 -14.048  0.00  0.00    -0.384 OA
ATOM     10  H   UNL     1      38.676 -24.378 -14.966  0.00  0.00    +0.210 HD
ENDBRANCH   2   9
BRANCH   4  11
ATOM     11  O   UNL     1      38.663 -26.984 -14.546  0.00  0.00    -0.380 OA
ATOM     12  H   UNL     1      38.369 -27.422 -15.361  0.00  0.00    +0.211 HD
ENDBRANCH   4  11
BRANCH   5  13
ATOM     13  O   UNL     1      36.002 -26.949 -15.656  0.00  0.00    -0.384 OA
ATOM     14  H   UNL     1      35.042 -26.898 -15.524  0.00  0.00    +0.210 HD
ENDBRANCH   5  13
BRANCH   3  15
ATOM     15  C   UNL     1      37.451 -22.957 -11.916  0.00  0.00    +0.118 C 
BRANCH  15  16
ATOM     16  O   UNL     1      38.816 -23.143 -11.596  0.00  0.00    -0.384 OA
ATOM     17  H   UNL     1      39.060 -22.556 -10.863  0.00  0.00    +0.210 HD
ENDBRANCH  15  16
ENDBRANCH   3  15
TORSDOF 5
ENDMDL
MODEL 6
REMARK VINA RESULT:      -5.8      2.770      4.508
REMARK  Name = 176077
REMARK  5 active torsions:
REMARK  status: ('A' for Active; 'I' for Inactive)
REMARK    1  A    between atoms: C_2  and  O_9
REMARK    2  A    between atoms: CA_3  and  C_15
REMARK    3  A    between atoms: C_4  and  O_11
REMARK    4  A    between atoms: C_5  and  O_13
REMARK    5  A    between atoms: C_15  and  O_16
REMARK                            x       y       z     vdW  Elec       q    Type
REMARK                         _______ _______ _______ _____ _____    ______ ____
ROOT
ATOM      1  N   UNL     1      35.852 -25.045 -13.472  0.00  0.00    +0.390 N 
ATOM      2  C   UNL     1      37.980 -24.468 -12.327  0.00  0.00    +0.123 C 
ATOM      3  CA  UNL     1      36.556 -25.039 -12.179  0.00  0.00    -0.002 C 
ATOM      4  C   UNL     1      38.764 -25.264 -13.374  0.00  0.00    +0.160 C 
ATOM      5  C   UNL     1      38.000 -25.331 -14.698  0.00  0.00    +0.118 C 
ATOM      6  C   UNL     1      36.572 -25.834 -14.470  0.00  0.00    -0.049 C 
ATOM      7  H1  UNL     1      35.764 -24.085 -13.807  0.00  0.00    -0.084 HD
ATOM      8  H2  UNL     1      34.932 -25.466 -13.334  0.00  0.00    -0.084 HD
ENDROOT
BRANCH   2   9
ATOM      9  O   UNL     1      37.928 -23.097 -12.728  0.00  0.00    -0.384 OA
ATOM     10  H   UNL     1      38.806 -22.814 -13.026  0.00  0.00    +0.210 HD
ENDBRANCH   2   9
BRANCH   4  11
ATOM     11  O   UNL     1      40.036 -24.653 -13.575  0.00  0.00    -0.380 OA
ATOM     12  H   UNL     1      39.959 -23.694 -13.439  0.00  0.00    +0.211 HD
ENDBRANCH   4  11
BRANCH   5  13
ATOM     13  O   UNL     1      38.680 -26.235 -15.567  0.00  0.00    -0.384 OA
ATOM     14  H   UNL     1      39.537 -26.472 -15.180  0.00  0.00    +0.210 HD
ENDBRANCH   5  13
BRANCH   3  15
ATOM     15  C   UNL     1      35.715 -24.254 -11.173  0.00  0.00    +0.118 C 
BRANCH  15  16
ATOM     16  O   UNL     1      35.252 -25.149 -10.180  0.00  0.00    -0.384 OA
ATOM     17  H   UNL     1      34.468 -24.776  -9.748  0.00  0.00    +0.210 HD
ENDBRANCH  15  16
ENDBRANCH   3  15
TORSDOF 5
ENDMDL
MODEL 7
REMARK VINA RESULT:      -5.8      1.738      2.233
REMARK  Name = 176077
REMARK  5 active torsions:
REMARK  status: ('A' for Active; 'I' for Inactive)
REMARK    1  A    between atoms: C_2  and  O_9
REMARK    2  A    between atoms: CA_3  and  C_15
REMARK    3  A    between atoms: C_4  and  O_11
REMARK    4  A    between atoms: C_5  and  O_13
REMARK    5  A    between atoms: C_15  and  O_16
REMARK                            x       y       z     vdW  Elec       q    Type
REMARK                         _______ _______ _______ _____ _____    ______ ____
ROOT
ATOM      1  N   UNL     1      38.704 -25.232 -12.846  0.00  0.00    +0.390 N 
ATOM      2  C   UNL     1      37.952 -25.205 -15.214  0.00  0.00    +0.123 C 
ATOM      3  CA  UNL     1      38.868 -25.866 -14.165  0.00  0.00    -0.002 C 
ATOM      4  C   UNL     1      36.492 -25.265 -14.756  0.00  0.00    +0.160 C 
ATOM      5  C   UNL     1      36.332 -24.671 -13.355  0.00  0.00    +0.118 C 
ATOM      6  C   UNL     1      37.321 -25.316 -12.380  0.00  0.00    -0.049 C 
ATOM      7  H1  UNL     1      38.973 -24.250 -12.914  0.00  0.00    -0.084 HD
ATOM      8  H2  UNL     1      39.298 -25.724 -12.178  0.00  0.00    -0.084 HD
ENDROOT
BRANCH   2   9
ATOM      9  O   UNL     1      38.322 -23.838 -15.410  0.00  0.00    -0.384 OA
ATOM     10  H   UNL     1      39.113 -23.795 -15.969  0.00  0.00    +0.210 HD
ENDBRANCH   2   9
BRANCH   4  11
ATOM     11  O   UNL     1      35.678 -24.554 -15.684  0.00  0.00    -0.380 OA
ATOM     12  H   UNL     1      34.781 -24.927 -15.679  0.00  0.00    +0.211 HD
ENDBRANCH   4  11
BRANCH   5  13
ATOM     13  O   UNL     1      35.003 -24.924 -12.905  0.00  0.00    -0.384 OA
ATOM     14  H   UNL     1      34.906 -24.614 -11.991  0.00  0.00    +0.210 HD
ENDBRANCH   5  13
BRANCH   3  15
ATOM     15  C   UNL     1      40.345 -25.797 -14.555  0.00  0.00    +0.118 C 
BRANCH  15  16
ATOM     16  O   UNL     1      40.443 -25.916 -15.961  0.00  0.00    -0.384 OA
ATOM     17  H   UNL     1      41.122 -26.572 -16.184  0.00  0.00    +0.210 HD
ENDBRANCH  15  16
ENDBRANCH   3  15
TORSDOF 5
ENDMDL
MODEL 8
REMARK VINA RESULT:      -5.6      3.283      4.238
REMARK  Name = 176077
REMARK  5 active torsions:
REMARK  status: ('A' for Active; 'I' for Inactive)
REMARK    1  A    between atoms: C_2  and  O_9
REMARK    2  A    between atoms: CA_3  and  C_15
REMARK    3  A    between atoms: C_4  and  O_11
REMARK    4  A    between atoms: C_5  and  O_13
REMARK    5  A    between atoms: C_15  and  O_16
REMARK                            x       y       z     vdW  Elec       q    Type
REMARK                         _______ _______ _______ _____ _____    ______ ____
ROOT
ATOM      1  N   UNL     1      35.329 -24.861 -13.318  0.00  0.00    +0.390 N 
ATOM      2  C   UNL     1      37.207 -23.250 -13.544  0.00  0.00    +0.123 C 
ATOM      3  CA  UNL     1      35.807 -23.668 -14.036  0.00  0.00    -0.002 C 
ATOM      4  C   UNL     1      37.187 -23.008 -12.032  0.00  0.00    +0.160 C 
ATOM      5  C   UNL     1      36.624 -24.221 -11.289  0.00  0.00    +0.118 C 
ATOM      6  C   UNL     1      35.269 -24.630 -11.875  0.00  0.00    -0.049 C 
ATOM      7  H1  UNL     1      35.965 -25.638 -13.504  0.00  0.00    -0.084 HD
ATOM      8  H2  UNL     1      34.387 -25.078 -13.646  0.00  0.00    -0.084 HD
ENDROOT
BRANCH   2   9
ATOM      9  O   UNL     1      38.164 -24.270 -13.839  0.00  0.00    -0.384 OA
ATOM     10  H   UNL     1      38.075 -24.992 -13.199  0.00  0.00    +0.210 HD
ENDBRANCH   2   9
BRANCH   4  11
ATOM     11  O   UNL     1      38.511 -22.731 -11.582  0.00  0.00    -0.380 OA
ATOM     12  H   UNL     1      38.961 -22.167 -12.232  0.00  0.00    +0.211 HD
ENDBRANCH   4  11
BRANCH   5  13
ATOM     13  O   UNL     1      36.451 -23.872  -9.917  0.00  0.00    -0.384 OA
ATOM     14  H   UNL     1      37.176 -24.249  -9.394  0.00  0.00    +0.210 HD
ENDBRANCH   5  13
BRANCH   3  15
ATOM     15  C   UNL     1      35.780 -23.963 -15.536  0.00  0.00    +0.118 C 
BRANCH  15  16
ATOM     16  O   UNL     1      36.938 -23.401 -16.123  0.00  0.00    -0.384 OA
ATOM     17  H   UNL     1      37.685 -24.011 -16.014  0.00  0.00    +0.210 HD
ENDBRANCH  15  16
ENDBRANCH   3  15
TORSDOF 5
ENDMDL
MODEL 9
REMARK VINA RESULT:      -5.5      2.610      3.292
REMARK  Name = 176077
REMARK  5 active torsions:
REMARK  status: ('A' for Active; 'I' for Inactive)
REMARK    1  A    between atoms: C_2  and  O_9
REMARK    2  A    between atoms: CA_3  and  C_15
REMARK    3  A    between atoms: C_4  and  O_11
REMARK    4  A    between atoms: C_5  and  O_13
REMARK    5  A    between atoms: C_15  and  O_16
REMARK                            x       y       z     vdW  Elec       q    Type
REMARK                         _______ _______ _______ _____ _____    ______ ____
ROOT
ATOM      1  N   UNL     1      37.170 -24.343 -14.748  0.00  0.00    +0.390 N 
ATOM      2  C   UNL     1      36.991 -25.567 -12.593  0.00  0.00    +0.123 C 
ATOM      3  CA  UNL     1      37.521 -25.586 -14.041  0.00  0.00    -0.002 C 
ATOM      4  C   UNL     1      37.529 -24.343 -11.847  0.00  0.00    +0.160 C 
ATOM      5  C   UNL     1      37.227 -23.056 -12.617  0.00  0.00    +0.118 C 
ATOM      6  C   UNL     1      37.711 -23.168 -14.065  0.00  0.00    -0.049 C 
ATOM      7  H1  UNL     1      36.154 -24.263 -14.794  0.00  0.00    -0.084 HD
ATOM      8  H2  UNL     1      37.573 -24.383 -15.685  0.00  0.00    -0.084 HD
ENDROOT
BRANCH   2   9
ATOM      9  O   UNL     1      35.562 -25.526 -12.586  0.00  0.00    -0.384 OA
ATOM     10  H   UNL     1      35.212 -26.385 -12.869  0.00  0.00    +0.210 HD
ENDBRANCH   2   9
BRANCH   4  11
ATOM     11  O   UNL     1      36.940 -24.286 -10.551  0.00  0.00    -0.380 OA
ATOM     12  H   UNL     1      36.977 -25.166 -10.140  0.00  0.00    +0.211 HD
ENDBRANCH   4  11
BRANCH   5  13
ATOM     13  O   UNL     1      37.910 -21.977 -11.980  0.00  0.00    -0.384 OA
ATOM     14  H   UNL     1      37.338 -21.194 -11.971  0.00  0.00    +0.210 HD
ENDBRANCH   5  13
BRANCH   3  15
ATOM     15  C   UNL     1      36.981 -26.769 -14.844  0.00  0.00    +0.118 C 
BRANCH  15  16
ATOM     16  O   UNL     1      35.754 -26.386 -15.436  0.00  0.00    -0.384 OA
ATOM     17  H   UNL     1      35.889 -25.590 -15.975  0.00  0.00    +0.210 HD
ENDBRANCH  15  16
ENDBRANCH   3  15
TORSDOF 5
ENDMDL
