MODEL 1
REMARK VINA RESULT:      -9.1      0.000      0.000
REMARK  Name = 6505368
REMARK  8 active torsions:
REMARK  status: ('A' for Active; 'I' for Inactive)
REMARK    1  A    between atoms: C_2  and  O_18
REMARK    2  A    between atoms: C_3  and  C_20
REMARK    3  A    between atoms: C_5  and  N_8
REMARK    4  A    between atoms: C_12  and  C_16
REMARK    5  A    between atoms: C_20  and  O_21
REMARK    6  A    between atoms: O_21  and  P_22
REMARK    7  A    between atoms: P_22  and  O_24
REMARK    8  A    between atoms: P_22  and  O_26
REMARK                            x       y       z     vdW  Elec       q    Type
REMARK                         _______ _______ _______ _____ _____    ______ ____
ROOT
ATOM      1  O   UNL     1      37.754 -23.614 -13.402  0.00  0.00    -0.335 OA
ATOM      2  C   UNL     1      36.652 -24.720 -11.618  0.00  0.00    +0.144 C 
ATOM      3  C   UNL     1      37.905 -24.713 -12.483  0.00  0.00    +0.174 C 
ATOM      4  C   UNL     1      35.600 -24.140 -12.534  0.00  0.00    +0.083 C 
ATOM      5  C   UNL     1      36.398 -23.147 -13.364  0.00  0.00    +0.202 C 
ENDROOT
BRANCH   5   8
ATOM      6  O   UNL     1      37.980 -22.410 -15.577  0.00  0.00    -0.252 OA
ATOM      7  O   UNL     1      34.423 -22.672 -18.474  0.00  0.00    -0.270 OA
ATOM      8  N   UNL     1      35.903 -23.018 -14.703  0.00  0.00    -0.219 N 
ATOM      9  N   UNL     1      36.193 -22.546 -17.008  0.00  0.00    -0.236 N 
ATOM     10  C   UNL     1      34.562 -23.264 -14.971  0.00  0.00    +0.076 C 
ATOM     11  C   UNL     1      36.781 -22.642 -15.742  0.00  0.00    +0.315 C 
ATOM     12  C   UNL     1      33.999 -23.174 -16.184  0.00  0.00    +0.069 C 
ATOM     13  C   UNL     1      34.865 -22.779 -17.331  0.00  0.00    +0.254 C 
ATOM     14  H   UNL     1      36.786 -22.285 -17.748  0.00  0.00    +0.159 HD
BRANCH  12  16
ATOM     15 BR   UNL     1      29.859 -23.540 -15.716  0.00  0.00    -0.048 Br
ATOM     16  C   UNL     1      32.600 -23.442 -16.395  0.00  0.00    +0.013 C 
ATOM     17  C   UNL     1      31.667 -23.204 -15.472  0.00  0.00    +0.041 C 
ENDBRANCH  12  16
ENDBRANCH   5   8
BRANCH   2  18
ATOM     18  O   UNL     1      36.834 -23.863 -10.493  0.00  0.00    -0.382 OA
ATOM     19  H   UNL     1      36.026 -23.347 -10.345  0.00  0.00    +0.210 HD
ENDBRANCH   2  18
BRANCH   3  20
ATOM     20  C   UNL     1      38.069 -25.988 -13.299  0.00  0.00    +0.186 C 
BRANCH  20  21
ATOM     21  O   UNL     1      38.654 -25.661 -14.549  0.00  0.00    -0.271 OA
BRANCH  21  22
ATOM     22  P   UNL     1      40.264 -25.736 -14.691  0.00  0.00    +0.473 P 
ATOM     23  O   UNL     1      40.925 -26.790 -13.852  0.00  0.00    -0.227 OA
BRANCH  22  24
ATOM     24  O   UNL     1      40.746 -24.220 -14.402  0.00  0.00    -0.303 OA
ATOM     25  H   UNL     1      40.018 -23.607 -14.591  0.00  0.00    +0.222 HD
ENDBRANCH  22  24
BRANCH  22  26
ATOM     26  O   UNL     1      40.478 -25.898 -16.285  0.00  0.00    -0.303 OA
ATOM     27  H   UNL     1      41.406 -25.727 -16.507  0.00  0.00    +0.222 HD
ENDBRANCH  22  26
ENDBRANCH  21  22
ENDBRANCH  20  21
ENDBRANCH   3  20
TORSDOF 8
ENDMDL
MODEL 2
REMARK VINA RESULT:      -9.1      2.447      3.082
REMARK  Name = 6505368
REMARK  8 active torsions:
REMARK  status: ('A' for Active; 'I' for Inactive)
REMARK    1  A    between atoms: C_2  and  O_18
REMARK    2  A    between atoms: C_3  and  C_20
REMARK    3  A    between atoms: C_5  and  N_8
REMARK    4  A    between atoms: C_12  and  C_16
REMARK    5  A    between atoms: C_20  and  O_21
REMARK    6  A    between atoms: O_21  and  P_22
REMARK    7  A    between atoms: P_22  and  O_24
REMARK    8  A    between atoms: P_22  and  O_26
REMARK                            x       y       z     vdW  Elec       q    Type
REMARK                         _______ _______ _______ _____ _____    ______ ____
ROOT
ATOM      1  O   UNL     1      36.470 -22.959 -13.544  0.00  0.00    -0.335 OA
ATOM      2  C   UNL     1      36.999 -24.971 -12.409  0.00  0.00    +0.144 C 
ATOM      3  C   UNL     1      37.579 -23.818 -13.217  0.00  0.00    +0.174 C 
ATOM      4  C   UNL     1      35.589 -25.086 -12.937  0.00  0.00    +0.083 C 
ATOM      5  C   UNL     1      35.241 -23.642 -13.261  0.00  0.00    +0.202 C 
ENDROOT
BRANCH   5   8
ATOM      6  O   UNL     1      32.449 -24.015 -13.140  0.00  0.00    -0.252 OA
ATOM      7  O   UNL     1      31.929 -23.164 -17.625  0.00  0.00    -0.270 OA
ATOM      8  N   UNL     1      34.360 -23.522 -14.386  0.00  0.00    -0.219 N 
ATOM      9  N   UNL     1      32.209 -23.587 -15.380  0.00  0.00    -0.236 N 
ATOM     10  C   UNL     1      34.875 -23.200 -15.636  0.00  0.00    +0.076 C 
ATOM     11  C   UNL     1      32.974 -23.729 -14.217  0.00  0.00    +0.315 C 
ATOM     12  C   UNL     1      34.142 -23.063 -16.749  0.00  0.00    +0.069 C 
ATOM     13  C   UNL     1      32.669 -23.270 -16.649  0.00  0.00    +0.254 C 
ATOM     14  H   UNL     1      31.240 -23.728 -15.287  0.00  0.00    +0.159 HD
BRANCH  12  16
ATOM     15 BR   UNL     1      36.442 -21.319 -19.776  0.00  0.00    -0.048 Br
ATOM     16  C   UNL     1      34.739 -22.729 -18.017  0.00  0.00    +0.013 C 
ATOM     17  C   UNL     1      35.656 -21.771 -18.157  0.00  0.00    +0.041 C 
ENDBRANCH  12  16
ENDBRANCH   5   8
BRANCH   2  18
ATOM     18  O   UNL     1      36.967 -24.625 -11.025  0.00  0.00    -0.382 OA
ATOM     19  H   UNL     1      36.140 -24.158 -10.828  0.00  0.00    +0.210 HD
ENDBRANCH   2  18
BRANCH   3  20
ATOM     20  C   UNL     1      38.220 -24.273 -14.522  0.00  0.00    +0.186 C 
BRANCH  20  21
ATOM     21  O   UNL     1      39.579 -24.597 -14.277  0.00  0.00    -0.271 OA
BRANCH  21  22
ATOM     22  P   UNL     1      40.123 -26.047 -14.745  0.00  0.00    +0.473 P 
ATOM     23  O   UNL     1      41.279 -26.577 -13.950  0.00  0.00    -0.227 OA
BRANCH  22  24
ATOM     24  O   UNL     1      40.399 -25.860 -16.328  0.00  0.00    -0.303 OA
ATOM     25  H   UNL     1      41.191 -25.315 -16.456  0.00  0.00    +0.222 HD
ENDBRANCH  22  24
BRANCH  22  26
ATOM     26  O   UNL     1      38.789 -26.961 -14.706  0.00  0.00    -0.303 OA
ATOM     27  H   UNL     1      39.036 -27.888 -14.563  0.00  0.00    +0.222 HD
ENDBRANCH  22  26
ENDBRANCH  21  22
ENDBRANCH  20  21
ENDBRANCH   3  20
TORSDOF 8
ENDMDL
MODEL 3
REMARK VINA RESULT:      -8.9      4.492      7.060
REMARK  Name = 6505368
REMARK  8 active torsions:
REMARK  status: ('A' for Active; 'I' for Inactive)
REMARK    1  A    between atoms: C_2  and  O_18
REMARK    2  A    between atoms: C_3  and  C_20
REMARK    3  A    between atoms: C_5  and  N_8
REMARK    4  A    between atoms: C_12  and  C_16
REMARK    5  A    between atoms: C_20  and  O_21
REMARK    6  A    between atoms: O_21  and  P_22
REMARK    7  A    between atoms: P_22  and  O_24
REMARK    8  A    between atoms: P_22  and  O_26
REMARK                            x       y       z     vdW  Elec       q    Type
REMARK                         _______ _______ _______ _____ _____    ______ ____
ROOT
ATOM      1  O   UNL     1      32.070 -25.452 -14.307  0.00  0.00    -0.335 OA
ATOM      2  C   UNL     1      30.461 -23.974 -13.386  0.00  0.00    +0.144 C 
ATOM      3  C   UNL     1      30.685 -25.072 -14.417  0.00  0.00    +0.174 C 
ATOM      4  C   UNL     1      31.817 -23.315 -13.288  0.00  0.00    +0.083 C 
ATOM      5  C   UNL     1      32.766 -24.481 -13.513  0.00  0.00    +0.202 C 
ENDROOT
BRANCH   5   8
ATOM      6  O   UNL     1      35.356 -24.810 -12.450  0.00  0.00    -0.252 OA
ATOM      7  O   UNL     1      37.342 -22.965 -16.160  0.00  0.00    -0.270 OA
ATOM      8  N   UNL     1      33.971 -24.093 -14.187  0.00  0.00    -0.219 N 
ATOM      9  N   UNL     1      36.329 -23.887 -14.311  0.00  0.00    -0.236 N 
ATOM     10  C   UNL     1      33.903 -23.514 -15.448  0.00  0.00    +0.076 C 
ATOM     11  C   UNL     1      35.221 -24.303 -13.565  0.00  0.00    +0.315 C 
ATOM     12  C   UNL     1      34.965 -23.118 -16.163  0.00  0.00    +0.069 C 
ATOM     13  C   UNL     1      36.319 -23.305 -15.569  0.00  0.00    +0.254 C 
ATOM     14  H   UNL     1      37.212 -24.022 -13.897  0.00  0.00    +0.159 HD
BRANCH  12  16
ATOM     15 BR   UNL     1      33.448 -21.685 -19.788  0.00  0.00    -0.048 Br
ATOM     16  C   UNL     1      34.825 -22.523 -17.467  0.00  0.00    +0.013 C 
ATOM     17  C   UNL     1      33.658 -22.445 -18.109  0.00  0.00    +0.041 C 
ENDBRANCH  12  16
ENDBRANCH   5   8
BRANCH   2  18
ATOM     18  O   UNL     1      30.116 -24.553 -12.129  0.00  0.00    -0.382 OA
ATOM     19  H   UNL     1      29.560 -25.334 -12.274  0.00  0.00    +0.210 HD
ENDBRANCH   2  18
BRANCH   3  20
ATOM     20  C   UNL     1      30.439 -24.602 -15.845  0.00  0.00    +0.186 C 
BRANCH  20  21
ATOM     21  O   UNL     1      29.051 -24.368 -16.019  0.00  0.00    -0.271 OA
BRANCH  21  22
ATOM     22  P   UNL     1      28.575 -22.921 -16.563  0.00  0.00    +0.473 P 
ATOM     23  O   UNL     1      27.855 -22.072 -15.557  0.00  0.00    -0.227 OA
BRANCH  22  24
ATOM     24  O   UNL     1      27.734 -23.271 -17.900  0.00  0.00    -0.303 OA
ATOM     25  H   UNL     1      27.555 -24.224 -17.929  0.00  0.00    +0.222 HD
ENDBRANCH  22  24
BRANCH  22  26
ATOM     26  O   UNL     1      29.945 -22.285 -17.140  0.00  0.00    -0.303 OA
ATOM     27  H   UNL     1      30.213 -21.536 -16.586  0.00  0.00    +0.222 HD
ENDBRANCH  22  26
ENDBRANCH  21  22
ENDBRANCH  20  21
ENDBRANCH   3  20
TORSDOF 8
ENDMDL
MODEL 4
REMARK VINA RESULT:      -8.7      4.837      7.545
REMARK  Name = 6505368
REMARK  8 active torsions:
REMARK  status: ('A' for Active; 'I' for Inactive)
REMARK    1  A    between atoms: C_2  and  O_18
REMARK    2  A    between atoms: C_3  and  C_20
REMARK    3  A    between atoms: C_5  and  N_8
REMARK    4  A    between atoms: C_12  and  C_16
REMARK    5  A    between atoms: C_20  and  O_21
REMARK    6  A    between atoms: O_21  and  P_22
REMARK    7  A    between atoms: P_22  and  O_24
REMARK    8  A    between atoms: P_22  and  O_26
REMARK                            x       y       z     vdW  Elec       q    Type
REMARK                         _______ _______ _______ _____ _____    ______ ____
ROOT
ATOM      1  O   UNL     1      31.368 -24.184 -15.851  0.00  0.00    -0.335 OA
ATOM      2  C   UNL     1      30.821 -23.627 -13.613  0.00  0.00    +0.144 C 
ATOM      3  C   UNL     1      30.294 -23.671 -15.041  0.00  0.00    +0.174 C 
ATOM      4  C   UNL     1      32.304 -23.414 -13.802  0.00  0.00    +0.083 C 
ATOM      5  C   UNL     1      32.584 -24.172 -15.090  0.00  0.00    +0.202 C 
ENDROOT
BRANCH   5   8
ATOM      6  O   UNL     1      35.261 -23.927 -14.241  0.00  0.00    -0.252 OA
ATOM      7  O   UNL     1      36.531 -21.863 -18.145  0.00  0.00    -0.270 OA
ATOM      8  N   UNL     1      33.627 -23.574 -15.871  0.00  0.00    -0.219 N 
ATOM      9  N   UNL     1      35.876 -22.899 -16.197  0.00  0.00    -0.236 N 
ATOM     10  C   UNL     1      33.343 -23.071 -17.134  0.00  0.00    +0.076 C 
ATOM     11  C   UNL     1      34.938 -23.501 -15.352  0.00  0.00    +0.315 C 
ATOM     12  C   UNL     1      34.243 -22.495 -17.944  0.00  0.00    +0.069 C 
ATOM     13  C   UNL     1      35.648 -22.380 -17.463  0.00  0.00    +0.254 C 
ATOM     14  H   UNL     1      36.797 -22.836 -15.855  0.00  0.00    +0.159 HD
BRANCH  12  16
ATOM     15 BR   UNL     1      32.831 -20.132 -21.093  0.00  0.00    -0.048 Br
ATOM     16  C   UNL     1      33.883 -21.993 -19.245  0.00  0.00    +0.013 C 
ATOM     17  C   UNL     1      33.305 -20.805 -19.431  0.00  0.00    +0.041 C 
ENDBRANCH  12  16
ENDBRANCH   5   8
BRANCH   2  18
ATOM     18  O   UNL     1      30.594 -24.881 -12.973  0.00  0.00    -0.382 OA
ATOM     19  H   UNL     1      30.280 -25.526 -13.627  0.00  0.00    +0.210 HD
ENDBRANCH   2  18
BRANCH   3  20
ATOM     20  C   UNL     1      29.918 -22.296 -15.576  0.00  0.00    +0.186 C 
BRANCH  20  21
ATOM     21  O   UNL     1      29.326 -22.447 -16.856  0.00  0.00    -0.271 OA
BRANCH  21  22
ATOM     22  P   UNL     1      27.715 -22.570 -16.951  0.00  0.00    +0.473 P 
ATOM     23  O   UNL     1      27.034 -21.438 -17.662  0.00  0.00    -0.227 OA
BRANCH  22  24
ATOM     24  O   UNL     1      27.257 -22.799 -15.416  0.00  0.00    -0.303 OA
ATOM     25  H   UNL     1      27.690 -23.592 -15.064  0.00  0.00    +0.222 HD
ENDBRANCH  22  24
BRANCH  22  26
ATOM     26  O   UNL     1      27.504 -24.025 -17.623  0.00  0.00    -0.303 OA
ATOM     27  H   UNL     1      28.355 -24.489 -17.666  0.00  0.00    +0.222 HD
ENDBRANCH  22  26
ENDBRANCH  21  22
ENDBRANCH  20  21
ENDBRANCH   3  20
TORSDOF 8
ENDMDL
MODEL 5
REMARK VINA RESULT:      -8.7      4.968      7.572
REMARK  Name = 6505368
REMARK  8 active torsions:
REMARK  status: ('A' for Active; 'I' for Inactive)
REMARK    1  A    between atoms: C_2  and  O_18
REMARK    2  A    between atoms: C_3  and  C_20
REMARK    3  A    between atoms: C_5  and  N_8
REMARK    4  A    between atoms: C_12  and  C_16
REMARK    5  A    between atoms: C_20  and  O_21
REMARK    6  A    between atoms: O_21  and  P_22
REMARK    7  A    between atoms: P_22  and  O_24
REMARK    8  A    between atoms: P_22  and  O_26
REMARK                            x       y       z     vdW  Elec       q    Type
REMARK                         _______ _______ _______ _____ _____    ______ ____
ROOT
ATOM      1  O   UNL     1      31.927 -25.478 -14.449  0.00  0.00    -0.335 OA
ATOM      2  C   UNL     1      30.321 -24.091 -13.392  0.00  0.00    +0.144 C 
ATOM      3  C   UNL     1      30.514 -25.203 -14.415  0.00  0.00    +0.174 C 
ATOM      4  C   UNL     1      31.625 -23.333 -13.461  0.00  0.00    +0.083 C 
ATOM      5  C   UNL     1      32.630 -24.434 -13.761  0.00  0.00    +0.202 C 
ENDROOT
BRANCH   5   8
ATOM      6  O   UNL     1      32.330 -23.071 -16.211  0.00  0.00    -0.252 OA
ATOM      7  O   UNL     1      36.871 -22.732 -16.820  0.00  0.00    -0.270 OA
ATOM      8  N   UNL     1      33.722 -23.982 -14.573  0.00  0.00    -0.219 N 
ATOM      9  N   UNL     1      34.600 -22.911 -16.497  0.00  0.00    -0.236 N 
ATOM     10  C   UNL     1      35.030 -24.209 -14.162  0.00  0.00    +0.076 C 
ATOM     11  C   UNL     1      33.463 -23.307 -15.785  0.00  0.00    +0.315 C 
ATOM     12  C   UNL     1      36.119 -23.828 -14.844  0.00  0.00    +0.069 C 
ATOM     13  C   UNL     1      35.924 -23.112 -16.136  0.00  0.00    +0.254 C 
ATOM     14  H   UNL     1      34.443 -22.439 -17.346  0.00  0.00    +0.159 HD
BRANCH  12  16
ATOM     15 BR   UNL     1      39.857 -25.551 -14.102  0.00  0.00    -0.048 Br
ATOM     16  C   UNL     1      37.450 -24.095 -14.361  0.00  0.00    +0.013 C 
ATOM     17  C   UNL     1      38.143 -25.181 -14.706  0.00  0.00    +0.041 C 
ENDBRANCH  12  16
ENDBRANCH   5   8
BRANCH   2  18
ATOM     18  O   UNL     1      30.159 -24.652 -12.091  0.00  0.00    -0.382 OA
ATOM     19  H   UNL     1      29.325 -25.148 -12.054  0.00  0.00    +0.210 HD
ENDBRANCH   2  18
BRANCH   3  20
ATOM     20  C   UNL     1      30.080 -24.799 -15.818  0.00  0.00    +0.186 C 
BRANCH  20  21
ATOM     21  O   UNL     1      28.732 -24.362 -15.774  0.00  0.00    -0.271 OA
BRANCH  21  22
ATOM     22  P   UNL     1      28.347 -22.972 -16.507  0.00  0.00    +0.473 P 
ATOM     23  O   UNL     1      27.657 -21.965 -15.635  0.00  0.00    -0.227 OA
BRANCH  22  24
ATOM     24  O   UNL     1      27.515 -23.444 -17.811  0.00  0.00    -0.303 OA
ATOM     25  H   UNL     1      27.796 -24.336 -18.070  0.00  0.00    +0.222 HD
ENDBRANCH  22  24
BRANCH  22  26
ATOM     26  O   UNL     1      29.761 -22.488 -17.124  0.00  0.00    -0.303 OA
ATOM     27  H   UNL     1      30.442 -23.151 -16.934  0.00  0.00    +0.222 HD
ENDBRANCH  22  26
ENDBRANCH  21  22
ENDBRANCH  20  21
ENDBRANCH   3  20
TORSDOF 8
ENDMDL
MODEL 6
REMARK VINA RESULT:      -8.6      2.910      3.761
REMARK  Name = 6505368
REMARK  8 active torsions:
REMARK  status: ('A' for Active; 'I' for Inactive)
REMARK    1  A    between atoms: C_2  and  O_18
REMARK    2  A    between atoms: C_3  and  C_20
REMARK    3  A    between atoms: C_5  and  N_8
REMARK    4  A    between atoms: C_12  and  C_16
REMARK    5  A    between atoms: C_20  and  O_21
REMARK    6  A    between atoms: O_21  and  P_22
REMARK    7  A    between atoms: P_22  and  O_24
REMARK    8  A    between atoms: P_22  and  O_26
REMARK                            x       y       z     vdW  Elec       q    Type
REMARK                         _______ _______ _______ _____ _____    ______ ____
ROOT
ATOM      1  O   UNL     1      35.645 -22.807 -14.678  0.00  0.00    -0.335 OA
ATOM      2  C   UNL     1      35.950 -25.062 -14.013  0.00  0.00    +0.144 C 
ATOM      3  C   UNL     1      36.650 -23.723 -14.201  0.00  0.00    +0.174 C 
ATOM      4  C   UNL     1      34.847 -25.020 -15.044  0.00  0.00    +0.083 C 
ATOM      5  C   UNL     1      34.480 -23.545 -15.074  0.00  0.00    +0.202 C 
ENDROOT
BRANCH   5   8
ATOM      6  O   UNL     1      31.819 -23.653 -15.998  0.00  0.00    -0.252 OA
ATOM      7  O   UNL     1      32.935 -21.835 -20.067  0.00  0.00    -0.270 OA
ATOM      8  N   UNL     1      34.057 -23.105 -16.371  0.00  0.00    -0.219 N 
ATOM      9  N   UNL     1      32.396 -22.744 -18.023  0.00  0.00    -0.236 N 
ATOM     10  C   UNL     1      34.987 -22.583 -17.261  0.00  0.00    +0.076 C 
ATOM     11  C   UNL     1      32.697 -23.202 -16.736  0.00  0.00    +0.315 C 
ATOM     12  C   UNL     1      34.698 -22.143 -18.494  0.00  0.00    +0.069 C 
ATOM     13  C   UNL     1      33.281 -22.217 -18.950  0.00  0.00    +0.254 C 
ATOM     14  H   UNL     1      31.453 -22.803 -18.299  0.00  0.00    +0.159 HD
BRANCH  12  16
ATOM     15 BR   UNL     1      36.976 -19.654 -20.965  0.00  0.00    -0.048 Br
ATOM     16  C   UNL     1      35.711 -21.612 -19.370  0.00  0.00    +0.013 C 
ATOM     17  C   UNL     1      35.686 -20.364 -19.837  0.00  0.00    +0.041 C 
ENDBRANCH  12  16
ENDBRANCH   5   8
BRANCH   2  18
ATOM     18  O   UNL     1      35.384 -25.133 -12.706  0.00  0.00    -0.382 OA
ATOM     19  H   UNL     1      35.372 -26.057 -12.409  0.00  0.00    +0.210 HD
ENDBRANCH   2  18
BRANCH   3  20
ATOM     20  C   UNL     1      37.765 -23.777 -15.237  0.00  0.00    +0.186 C 
BRANCH  20  21
ATOM     21  O   UNL     1      38.996 -24.017 -14.575  0.00  0.00    -0.271 OA
BRANCH  21  22
ATOM     22  P   UNL     1      39.468 -25.550 -14.357  0.00  0.00    +0.473 P 
ATOM     23  O   UNL     1      39.194 -26.109 -12.992  0.00  0.00    -0.227 OA
BRANCH  22  24
ATOM     24  O   UNL     1      41.023 -25.538 -14.801  0.00  0.00    -0.303 OA
ATOM     25  H   UNL     1      41.519 -24.932 -14.229  0.00  0.00    +0.222 HD
ENDBRANCH  22  24
BRANCH  22  26
ATOM     26  O   UNL     1      38.739 -26.327 -15.574  0.00  0.00    -0.303 OA
ATOM     27  H   UNL     1      38.036 -25.769 -15.940  0.00  0.00    +0.222 HD
ENDBRANCH  22  26
ENDBRANCH  21  22
ENDBRANCH  20  21
ENDBRANCH   3  20
TORSDOF 8
ENDMDL
MODEL 7
REMARK VINA RESULT:      -8.3      2.392      4.092
REMARK  Name = 6505368
REMARK  8 active torsions:
REMARK  status: ('A' for Active; 'I' for Inactive)
REMARK    1  A    between atoms: C_2  and  O_18
REMARK    2  A    between atoms: C_3  and  C_20
REMARK    3  A    between atoms: C_5  and  N_8
REMARK    4  A    between atoms: C_12  and  C_16
REMARK    5  A    between atoms: C_20  and  O_21
REMARK    6  A    between atoms: O_21  and  P_22
REMARK    7  A    between atoms: P_22  and  O_24
REMARK    8  A    between atoms: P_22  and  O_26
REMARK                            x       y       z     vdW  Elec       q    Type
REMARK                         _______ _______ _______ _____ _____    ______ ____
ROOT
ATOM      1  O   UNL     1      35.871 -24.866 -15.974  0.00  0.00    -0.335 OA
ATOM      2  C   UNL     1      37.396 -23.533 -14.743  0.00  0.00    +0.144 C 
ATOM      3  C   UNL     1      36.734 -24.902 -14.821  0.00  0.00    +0.174 C 
ATOM      4  C   UNL     1      36.368 -22.618 -15.365  0.00  0.00    +0.083 C 
ATOM      5  C   UNL     1      35.731 -23.509 -16.420  0.00  0.00    +0.202 C 
ENDROOT
BRANCH   5   8
ATOM      6  O   UNL     1      34.597 -22.876 -18.922  0.00  0.00    -0.252 OA
ATOM      7  O   UNL     1      30.392 -22.403 -17.133  0.00  0.00    -0.270 OA
ATOM      8  N   UNL     1      34.342 -23.218 -16.627  0.00  0.00    -0.219 N 
ATOM      9  N   UNL     1      32.505 -22.645 -18.011  0.00  0.00    -0.236 N 
ATOM     10  C   UNL     1      33.464 -23.240 -15.551  0.00  0.00    +0.076 C 
ATOM     11  C   UNL     1      33.876 -22.913 -17.923  0.00  0.00    +0.315 C 
ATOM     12  C   UNL     1      32.150 -22.985 -15.635  0.00  0.00    +0.069 C 
ATOM     13  C   UNL     1      31.585 -22.652 -16.973  0.00  0.00    +0.254 C 
ATOM     14  H   UNL     1      32.157 -22.428 -18.905  0.00  0.00    +0.159 HD
BRANCH  12  16
ATOM     15 BR   UNL     1      30.033 -24.195 -12.237  0.00  0.00    -0.048 Br
ATOM     16  C   UNL     1      31.292 -23.024 -14.479  0.00  0.00    +0.013 C 
ATOM     17  C   UNL     1      31.130 -24.116 -13.731  0.00  0.00    +0.041 C 
ENDBRANCH  12  16
ENDBRANCH   5   8
BRANCH   2  18
ATOM     18  O   UNL     1      38.586 -23.525 -15.529  0.00  0.00    -0.382 OA
ATOM     19  H   UNL     1      39.355 -23.658 -14.953  0.00  0.00    +0.210 HD
ENDBRANCH   2  18
BRANCH   3  20
ATOM     20  C   UNL     1      35.875 -25.215 -13.603  0.00  0.00    +0.186 C 
BRANCH  20  21
ATOM     21  O   UNL     1      36.639 -24.981 -12.431  0.00  0.00    -0.271 OA
BRANCH  21  22
ATOM     22  P   UNL     1      36.010 -24.037 -11.277  0.00  0.00    +0.473 P 
ATOM     23  O   UNL     1      36.958 -23.028 -10.697  0.00  0.00    -0.227 OA
BRANCH  22  24
ATOM     24  O   UNL     1      35.387 -25.089 -10.218  0.00  0.00    -0.303 OA
ATOM     25  H   UNL     1      35.805 -25.955 -10.338  0.00  0.00    +0.222 HD
ENDBRANCH  22  24
BRANCH  22  26
ATOM     26  O   UNL     1      34.702 -23.413 -11.995  0.00  0.00    -0.303 OA
ATOM     27  H   UNL     1      33.954 -24.020 -11.888  0.00  0.00    +0.222 HD
ENDBRANCH  22  26
ENDBRANCH  21  22
ENDBRANCH  20  21
ENDBRANCH   3  20
TORSDOF 8
ENDMDL
MODEL 8
REMARK VINA RESULT:      -8.1      2.209      3.554
REMARK  Name = 6505368
REMARK  8 active torsions:
REMARK  status: ('A' for Active; 'I' for Inactive)
REMARK    1  A    between atoms: C_2  and  O_18
REMARK    2  A    between atoms: C_3  and  C_20
REMARK    3  A    between atoms: C_5  and  N_8
REMARK    4  A    between atoms: C_12  and  C_16
REMARK    5  A    between atoms: C_20  and  O_21
REMARK    6  A    between atoms: O_21  and  P_22
REMARK    7  A    between atoms: P_22  and  O_24
REMARK    8  A    between atoms: P_22  and  O_26
REMARK                            x       y       z     vdW  Elec       q    Type
REMARK                         _______ _______ _______ _____ _____    ______ ____
ROOT
ATOM      1  O   UNL     1      36.131 -24.428 -15.899  0.00  0.00    -0.335 OA
ATOM      2  C   UNL     1      37.321 -22.404 -15.570  0.00  0.00    +0.144 C 
ATOM      3  C   UNL     1      37.436 -23.923 -15.560  0.00  0.00    +0.174 C 
ATOM      4  C   UNL     1      35.877 -22.169 -15.194  0.00  0.00    +0.083 C 
ATOM      5  C   UNL     1      35.174 -23.362 -15.821  0.00  0.00    +0.202 C 
ENDROOT
BRANCH   5   8
ATOM      6  O   UNL     1      35.325 -24.515 -13.253  0.00  0.00    -0.252 OA
ATOM      7  O   UNL     1      30.766 -25.013 -12.978  0.00  0.00    -0.270 OA
ATOM      8  N   UNL     1      34.038 -23.798 -15.064  0.00  0.00    -0.219 N 
ATOM      9  N   UNL     1      33.048 -24.755 -13.134  0.00  0.00    -0.236 N 
ATOM     10  C   UNL     1      32.760 -23.661 -15.592  0.00  0.00    +0.076 C 
ATOM     11  C   UNL     1      34.223 -24.364 -13.784  0.00  0.00    +0.315 C 
ATOM     12  C   UNL     1      31.634 -24.035 -14.969  0.00  0.00    +0.069 C 
ATOM     13  C   UNL     1      31.751 -24.643 -13.614  0.00  0.00    +0.254 C 
ATOM     14  H   UNL     1      33.152 -25.153 -12.241  0.00  0.00    +0.159 HD
BRANCH  12  16
ATOM     15 BR   UNL     1      27.887 -22.563 -16.104  0.00  0.00    -0.048 Br
ATOM     16  C   UNL     1      30.338 -23.865 -15.574  0.00  0.00    +0.013 C 
ATOM     17  C   UNL     1      29.560 -22.808 -15.339  0.00  0.00    +0.041 C 
ENDBRANCH  12  16
ENDBRANCH   5   8
BRANCH   2  18
ATOM     18  O   UNL     1      37.562 -21.908 -16.885  0.00  0.00    -0.382 OA
ATOM     19  H   UNL     1      38.057 -22.569 -17.394  0.00  0.00    +0.210 HD
ENDBRANCH   2  18
BRANCH   3  20
ATOM     20  C   UNL     1      37.814 -24.479 -14.194  0.00  0.00    +0.186 C 
BRANCH  20  21
ATOM     21  O   UNL     1      39.226 -24.594 -14.119  0.00  0.00    -0.271 OA
BRANCH  21  22
ATOM     22  P   UNL     1      39.914 -25.982 -14.588  0.00  0.00    +0.473 P 
ATOM     23  O   UNL     1      41.062 -26.438 -13.737  0.00  0.00    -0.227 OA
BRANCH  22  24
ATOM     24  O   UNL     1      40.264 -25.728 -16.146  0.00  0.00    -0.303 OA
ATOM     25  H   UNL     1      39.509 -25.305 -16.584  0.00  0.00    +0.222 HD
ENDBRANCH  22  24
BRANCH  22  26
ATOM     26  O   UNL     1      38.660 -27.001 -14.650  0.00  0.00    -0.303 OA
ATOM     27  H   UNL     1      38.034 -26.704 -15.328  0.00  0.00    +0.222 HD
ENDBRANCH  22  26
ENDBRANCH  21  22
ENDBRANCH  20  21
ENDBRANCH   3  20
TORSDOF 8
ENDMDL
MODEL 9
REMARK VINA RESULT:      -8.1      4.338      6.241
REMARK  Name = 6505368
REMARK  8 active torsions:
REMARK  status: ('A' for Active; 'I' for Inactive)
REMARK    1  A    between atoms: C_2  and  O_18
REMARK    2  A    between atoms: C_3  and  C_20
REMARK    3  A    between atoms: C_5  and  N_8
REMARK    4  A    between atoms: C_12  and  C_16
REMARK    5  A    between atoms: C_20  and  O_21
REMARK    6  A    between atoms: O_21  and  P_22
REMARK    7  A    between atoms: P_22  and  O_24
REMARK    8  A    between atoms: P_22  and  O_26
REMARK                            x       y       z     vdW  Elec       q    Type
REMARK                         _______ _______ _______ _____ _____    ______ ____
ROOT
ATOM      1  O   UNL     1      35.532 -23.552 -16.936  0.00  0.00    -0.335 OA
ATOM      2  C   UNL     1      37.189 -22.372 -15.719  0.00  0.00    +0.144 C 
ATOM      3  C   UNL     1      36.016 -23.336 -15.597  0.00  0.00    +0.174 C 
ATOM      4  C   UNL     1      36.843 -21.565 -16.948  0.00  0.00    +0.083 C 
ATOM      5  C   UNL     1      36.116 -22.580 -17.815  0.00  0.00    +0.202 C 
ENDROOT
BRANCH   5   8
ATOM      6  O   UNL     1      33.406 -23.352 -17.746  0.00  0.00    -0.252 OA
ATOM      7  O   UNL     1      32.227 -20.261 -20.935  0.00  0.00    -0.270 OA
ATOM      8  N   UNL     1      35.087 -21.988 -18.620  0.00  0.00    -0.219 N 
ATOM      9  N   UNL     1      32.836 -21.802 -19.339  0.00  0.00    -0.236 N 
ATOM     10  C   UNL     1      35.404 -20.964 -19.503  0.00  0.00    +0.076 C 
ATOM     11  C   UNL     1      33.758 -22.449 -18.508  0.00  0.00    +0.315 C 
ATOM     12  C   UNL     1      34.520 -20.343 -20.298  0.00  0.00    +0.069 C 
ATOM     13  C   UNL     1      33.096 -20.778 -20.237  0.00  0.00    +0.254 C 
ATOM     14  H   UNL     1      31.903 -22.108 -19.279  0.00  0.00    +0.159 HD
BRANCH  12  16
ATOM     15 BR   UNL     1      35.303 -18.035 -23.697  0.00  0.00    -0.048 Br
ATOM     16  C   UNL     1      34.914 -19.287 -21.194  0.00  0.00    +0.013 C 
ATOM     17  C   UNL     1      34.804 -19.379 -22.519  0.00  0.00    +0.041 C 
ENDBRANCH  12  16
ENDBRANCH   5   8
BRANCH   2  18
ATOM     18  O   UNL     1      38.394 -23.101 -15.948  0.00  0.00    -0.382 OA
ATOM     19  H   UNL     1      39.127 -22.480 -16.081  0.00  0.00    +0.210 HD
ENDBRANCH   2  18
BRANCH   3  20
ATOM     20  C   UNL     1      34.869 -22.771 -14.770  0.00  0.00    +0.186 C 
BRANCH  20  21
ATOM     21  O   UNL     1      34.239 -23.834 -14.074  0.00  0.00    -0.271 OA
BRANCH  21  22
ATOM     22  P   UNL     1      32.624 -23.837 -13.969  0.00  0.00    +0.473 P 
ATOM     23  O   UNL     1      31.999 -25.196 -13.859  0.00  0.00    -0.227 OA
BRANCH  22  24
ATOM     24  O   UNL     1      32.155 -22.961 -15.245  0.00  0.00    -0.303 OA
ATOM     25  H   UNL     1      31.937 -22.061 -14.957  0.00  0.00    +0.222 HD
ENDBRANCH  22  24
BRANCH  22  26
ATOM     26  O   UNL     1      32.343 -22.852 -12.718  0.00  0.00    -0.303 OA
ATOM     27  H   UNL     1      33.155 -22.749 -12.198  0.00  0.00    +0.222 HD
ENDBRANCH  22  26
ENDBRANCH  21  22
ENDBRANCH  20  21
ENDBRANCH   3  20
TORSDOF 8
ENDMDL
