MODEL 1
REMARK VINA RESULT:      -4.0      0.000      0.000
REMARK  Name = 6407
REMARK  1 active torsions:
REMARK  status: ('A' for Active; 'I' for Inactive)
REMARK    1  A    between atoms: C_4  and  C_6
REMARK                            x       y       z     vdW  Elec       q    Type
REMARK                         _______ _______ _______ _____ _____    ______ ____
ROOT
ATOM      1 CL   UNL     1      33.513 -19.827 -20.666  0.00  0.00    -0.075 Cl
ATOM      2 CL   UNL     1      34.852 -19.294 -23.196  0.00  0.00    -0.075 Cl
ATOM      3 CL   UNL     1      36.393 -19.402 -20.721  0.00  0.00    -0.075 Cl
ATOM      4  C   UNL     1      34.840 -18.963 -21.454  0.00  0.00    +0.256 C 
ENDROOT
BRANCH   4   6
ATOM      5  O   UNL     1      35.240 -16.791 -20.438  0.00  0.00    -0.284 OA
ATOM      6  C   UNL     1      34.674 -17.474 -21.286  0.00  0.00    +0.253 C 
ENDBRANCH   4   6
TORSDOF 1
ENDMDL
MODEL 2
REMARK VINA RESULT:      -3.9      0.052      2.051
REMARK  Name = 6407
REMARK  1 active torsions:
REMARK  status: ('A' for Active; 'I' for Inactive)
REMARK    1  A    between atoms: C_4  and  C_6
REMARK                            x       y       z     vdW  Elec       q    Type
REMARK                         _______ _______ _______ _____ _____    ______ ____
ROOT
ATOM      1 CL   UNL     1      34.849 -19.320 -23.202  0.00  0.00    -0.075 Cl
ATOM      2 CL   UNL     1      36.413 -19.331 -20.746  0.00  0.00    -0.075 Cl
ATOM      3 CL   UNL     1      33.538 -19.816 -20.649  0.00  0.00    -0.075 Cl
ATOM      4  C   UNL     1      34.843 -18.944 -21.473  0.00  0.00    +0.256 C 
ENDROOT
BRANCH   4   6
ATOM      5  O   UNL     1      35.223 -16.763 -20.468  0.00  0.00    -0.284 OA
ATOM      6  C   UNL     1      34.602 -17.473 -21.254  0.00  0.00    +0.253 C 
ENDBRANCH   4   6
TORSDOF 1
ENDMDL
MODEL 3
REMARK VINA RESULT:      -3.9      0.280      2.010
REMARK  Name = 6407
REMARK  1 active torsions:
REMARK  status: ('A' for Active; 'I' for Inactive)
REMARK    1  A    between atoms: C_4  and  C_6
REMARK                            x       y       z     vdW  Elec       q    Type
REMARK                         _______ _______ _______ _____ _____    ______ ____
ROOT
ATOM      1 CL   UNL     1      36.098 -19.775 -20.642  0.00  0.00    -0.075 Cl
ATOM      2 CL   UNL     1      33.191 -19.782 -20.809  0.00  0.00    -0.075 Cl
ATOM      3 CL   UNL     1      34.792 -19.362 -23.212  0.00  0.00    -0.075 Cl
ATOM      4  C   UNL     1      34.687 -19.092 -21.463  0.00  0.00    +0.256 C 
ENDROOT
BRANCH   4   6
ATOM      5  O   UNL     1      35.336 -16.966 -20.476  0.00  0.00    -0.284 OA
ATOM      6  C   UNL     1      34.621 -17.602 -21.246  0.00  0.00    +0.253 C 
ENDBRANCH   4   6
TORSDOF 1
ENDMDL
MODEL 4
REMARK VINA RESULT:      -3.9      1.775      2.600
REMARK  Name = 6407
REMARK  1 active torsions:
REMARK  status: ('A' for Active; 'I' for Inactive)
REMARK    1  A    between atoms: C_4  and  C_6
REMARK                            x       y       z     vdW  Elec       q    Type
REMARK                         _______ _______ _______ _____ _____    ______ ____
ROOT
ATOM      1 CL   UNL     1      34.758 -19.405 -23.146  0.00  0.00    -0.075 Cl
ATOM      2 CL   UNL     1      33.063 -19.661 -20.792  0.00  0.00    -0.075 Cl
ATOM      3 CL   UNL     1      34.987 -17.476 -20.976  0.00  0.00    -0.075 Cl
ATOM      4  C   UNL     1      34.654 -19.166 -21.396  0.00  0.00    +0.256 C 
ENDROOT
BRANCH   4   6
ATOM      5  O   UNL     1      36.672 -19.578 -20.104  0.00  0.00    -0.284 OA
ATOM      6  C   UNL     1      35.681 -20.010 -20.686  0.00  0.00    +0.253 C 
ENDBRANCH   4   6
TORSDOF 1
ENDMDL
MODEL 5
REMARK VINA RESULT:      -3.9      1.796      2.481
REMARK  Name = 6407
REMARK  1 active torsions:
REMARK  status: ('A' for Active; 'I' for Inactive)
REMARK    1  A    between atoms: C_4  and  C_6
REMARK                            x       y       z     vdW  Elec       q    Type
REMARK                         _______ _______ _______ _____ _____    ______ ____
ROOT
ATOM      1 CL   UNL     1      34.888 -17.444 -20.979  0.00  0.00    -0.075 Cl
ATOM      2 CL   UNL     1      34.775 -19.424 -23.111  0.00  0.00    -0.075 Cl
ATOM      3 CL   UNL     1      33.032 -19.679 -20.786  0.00  0.00    -0.075 Cl
ATOM      4  C   UNL     1      34.621 -19.149 -21.366  0.00  0.00    +0.256 C 
ENDROOT
BRANCH   4   6
ATOM      5  O   UNL     1      36.659 -19.598 -20.119  0.00  0.00    -0.284 OA
ATOM      6  C   UNL     1      35.652 -20.012 -20.687  0.00  0.00    +0.253 C 
ENDBRANCH   4   6
TORSDOF 1
ENDMDL
MODEL 6
REMARK VINA RESULT:      -3.8      1.823      2.321
REMARK  Name = 6407
REMARK  1 active torsions:
REMARK  status: ('A' for Active; 'I' for Inactive)
REMARK    1  A    between atoms: C_4  and  C_6
REMARK                            x       y       z     vdW  Elec       q    Type
REMARK                         _______ _______ _______ _____ _____    ______ ____
ROOT
ATOM      1 CL   UNL     1      33.677 -19.896 -20.670  0.00  0.00    -0.075 Cl
ATOM      2 CL   UNL     1      34.211 -17.096 -21.263  0.00  0.00    -0.075 Cl
ATOM      3 CL   UNL     1      34.722 -19.139 -23.281  0.00  0.00    -0.075 Cl
ATOM      4  C   UNL     1      34.722 -18.769 -21.547  0.00  0.00    +0.256 C 
ENDROOT
BRANCH   4   6
ATOM      5  O   UNL     1      36.524 -19.600 -20.142  0.00  0.00    -0.284 OA
ATOM      6  C   UNL     1      36.146 -18.887 -21.067  0.00  0.00    +0.253 C 
ENDBRANCH   4   6
TORSDOF 1
ENDMDL
MODEL 7
REMARK VINA RESULT:      -3.8      8.958      9.760
REMARK  Name = 6407
REMARK  1 active torsions:
REMARK  status: ('A' for Active; 'I' for Inactive)
REMARK    1  A    between atoms: C_4  and  C_6
REMARK                            x       y       z     vdW  Elec       q    Type
REMARK                         _______ _______ _______ _____ _____    ______ ____
ROOT
ATOM      1 CL   UNL     1      43.501 -13.832 -16.536  0.00  0.00    -0.075 Cl
ATOM      2 CL   UNL     1      41.030 -14.131 -18.048  0.00  0.00    -0.075 Cl
ATOM      3 CL   UNL     1      40.962 -14.087 -15.132  0.00  0.00    -0.075 Cl
ATOM      4  C   UNL     1      41.892 -14.569 -16.562  0.00  0.00    +0.256 C 
ENDROOT
BRANCH   4   6
ATOM      5  O   UNL     1      42.503 -16.729 -15.630  0.00  0.00    -0.284 OA
ATOM      6  C   UNL     1      42.000 -16.071 -16.536  0.00  0.00    +0.253 C 
ENDBRANCH   4   6
TORSDOF 1
ENDMDL
MODEL 8
REMARK VINA RESULT:      -3.7      9.068      9.817
REMARK  Name = 6407
REMARK  1 active torsions:
REMARK  status: ('A' for Active; 'I' for Inactive)
REMARK    1  A    between atoms: C_4  and  C_6
REMARK                            x       y       z     vdW  Elec       q    Type
REMARK                         _______ _______ _______ _____ _____    ______ ____
ROOT
ATOM      1 CL   UNL     1      41.012 -14.113 -18.044  0.00  0.00    -0.075 Cl
ATOM      2 CL   UNL     1      40.896 -14.370 -15.146  0.00  0.00    -0.075 Cl
ATOM      3 CL   UNL     1      43.320 -13.374 -16.428  0.00  0.00    -0.075 Cl
ATOM      4  C   UNL     1      41.936 -14.472 -16.578  0.00  0.00    +0.256 C 
ENDROOT
BRANCH   4   6
ATOM      5  O   UNL     1      42.464 -16.677 -15.702  0.00  0.00    -0.284 OA
ATOM      6  C   UNL     1      42.485 -15.874 -16.630  0.00  0.00    +0.253 C 
ENDBRANCH   4   6
TORSDOF 1
ENDMDL
MODEL 9
REMARK VINA RESULT:      -3.7      8.821      9.618
REMARK  Name = 6407
REMARK  1 active torsions:
REMARK  status: ('A' for Active; 'I' for Inactive)
REMARK    1  A    between atoms: C_4  and  C_6
REMARK                            x       y       z     vdW  Elec       q    Type
REMARK                         _______ _______ _______ _____ _____    ______ ____
ROOT
ATOM      1 CL   UNL     1      29.158 -24.808 -14.689  0.00  0.00    -0.075 Cl
ATOM      2 CL   UNL     1      30.632 -23.009 -16.440  0.00  0.00    -0.075 Cl
ATOM      3 CL   UNL     1      28.127 -22.138 -15.224  0.00  0.00    -0.075 Cl
ATOM      4  C   UNL     1      29.025 -23.515 -15.888  0.00  0.00    +0.256 C 
ENDROOT
BRANCH   4   6
ATOM      5  O   UNL     1      27.673 -23.273 -17.895  0.00  0.00    -0.284 OA
ATOM      6  C   UNL     1      28.269 -23.995 -17.101  0.00  0.00    +0.253 C 
ENDBRANCH   4   6
TORSDOF 1
ENDMDL
