MODEL 1
REMARK VINA RESULT:      -6.7      0.000      0.000
REMARK  Name = 3007
REMARK  3 active torsions:
REMARK  status: ('A' for Active; 'I' for Inactive)
REMARK    1  A    between atoms: C_1  and  C_2
REMARK    2  A    between atoms: C_1  and  C_8
REMARK    3  A    between atoms: C_8  and  N_10
REMARK                            x       y       z     vdW  Elec       q    Type
REMARK                         _______ _______ _______ _____ _____    ______ ____
ROOT
ATOM      1  C   UNL     1      35.768 -18.610 -21.820  0.00  0.00    +0.004 C 
ENDROOT
BRANCH   1   2
ATOM      2  C   UNL     1      34.995 -19.604 -21.001  0.00  0.00    -0.024 C 
ATOM      3  C   UNL     1      35.672 -20.610 -20.323  0.00  0.00    -0.004 C 
ATOM      4  C   UNL     1      33.610 -19.506 -20.931  0.00  0.00    -0.004 C 
ATOM      5  C   UNL     1      34.953 -21.532 -19.562  0.00  0.00    -0.000 C 
ATOM      6  C   UNL     1      32.893 -20.428 -20.170  0.00  0.00    -0.000 C 
ATOM      7  C   UNL     1      33.563 -21.442 -19.486  0.00  0.00    -0.000 C 
ENDBRANCH   1   2
BRANCH   1   8
ATOM      8  C   UNL     1      34.968 -18.021 -22.998  0.00  0.00    -0.061 C 
ATOM      9  C   UNL     1      34.898 -18.969 -24.195  0.00  0.00    -0.024 C 
BRANCH   8  10
ATOM     10  N   UNL     1      35.593 -16.769 -23.437  0.00  0.00    +0.382 N 
ATOM     11  H   UNL     1      36.441 -16.979 -23.963  0.00  0.00    -0.089 HD
ATOM     12  H   UNL     1      35.828 -16.204 -22.621  0.00  0.00    -0.089 HD
ATOM     13  H   UNL     1      34.942 -16.255 -24.030  0.00  0.00    -0.089 HD
ENDBRANCH   8  10
ENDBRANCH   1   8
TORSDOF 3
ENDMDL
MODEL 2
REMARK VINA RESULT:      -6.6      1.206      1.790
REMARK  Name = 3007
REMARK  3 active torsions:
REMARK  status: ('A' for Active; 'I' for Inactive)
REMARK    1  A    between atoms: C_1  and  C_2
REMARK    2  A    between atoms: C_1  and  C_8
REMARK    3  A    between atoms: C_8  and  N_10
REMARK                            x       y       z     vdW  Elec       q    Type
REMARK                         _______ _______ _______ _____ _____    ______ ____
ROOT
ATOM      1  C   UNL     1      34.136 -18.651 -21.564  0.00  0.00    +0.004 C 
ENDROOT
BRANCH   1   2
ATOM      2  C   UNL     1      34.362 -19.862 -20.704  0.00  0.00    -0.024 C 
ATOM      3  C   UNL     1      35.658 -20.301 -20.465  0.00  0.00    -0.004 C 
ATOM      4  C   UNL     1      33.273 -20.528 -20.158  0.00  0.00    -0.004 C 
ATOM      5  C   UNL     1      35.868 -21.425 -19.665  0.00  0.00    -0.000 C 
ATOM      6  C   UNL     1      33.483 -21.652 -19.359  0.00  0.00    -0.000 C 
ATOM      7  C   UNL     1      34.781 -22.101 -19.113  0.00  0.00    -0.000 C 
ENDBRANCH   1   2
BRANCH   1   8
ATOM      8  C   UNL     1      35.265 -17.607 -21.475  0.00  0.00    -0.061 C 
ATOM      9  C   UNL     1      34.788 -16.269 -20.912  0.00  0.00    -0.024 C 
BRANCH   8  10
ATOM     10  N   UNL     1      35.821 -17.372 -22.812  0.00  0.00    +0.382 N 
ATOM     11  H   UNL     1      36.391 -16.526 -22.799  0.00  0.00    -0.089 HD
ATOM     12  H   UNL     1      35.059 -17.260 -23.481  0.00  0.00    -0.089 HD
ATOM     13  H   UNL     1      36.399 -18.167 -23.085  0.00  0.00    -0.089 HD
ENDBRANCH   8  10
ENDBRANCH   1   8
TORSDOF 3
ENDMDL
MODEL 3
REMARK VINA RESULT:      -6.6      1.096      2.176
REMARK  Name = 3007
REMARK  3 active torsions:
REMARK  status: ('A' for Active; 'I' for Inactive)
REMARK    1  A    between atoms: C_1  and  C_2
REMARK    2  A    between atoms: C_1  and  C_8
REMARK    3  A    between atoms: C_8  and  N_10
REMARK                            x       y       z     vdW  Elec       q    Type
REMARK                         _______ _______ _______ _____ _____    ______ ____
ROOT
ATOM      1  C   UNL     1      34.269 -18.744 -21.834  0.00  0.00    +0.004 C 
ENDROOT
BRANCH   1   2
ATOM      2  C   UNL     1      34.412 -19.877 -20.857  0.00  0.00    -0.024 C 
ATOM      3  C   UNL     1      33.276 -20.442 -20.292  0.00  0.00    -0.004 C 
ATOM      4  C   UNL     1      35.679 -20.344 -20.530  0.00  0.00    -0.004 C 
ATOM      5  C   UNL     1      33.410 -21.495 -19.385  0.00  0.00    -0.000 C 
ATOM      6  C   UNL     1      35.811 -21.396 -19.623  0.00  0.00    -0.000 C 
ATOM      7  C   UNL     1      34.677 -21.971 -19.050  0.00  0.00    -0.000 C 
ENDBRANCH   1   2
BRANCH   1   8
ATOM      8  C   UNL     1      35.329 -17.639 -21.661  0.00  0.00    -0.061 C 
ATOM      9  C   UNL     1      34.799 -16.429 -20.894  0.00  0.00    -0.024 C 
BRANCH   8  10
ATOM     10  N   UNL     1      35.783 -17.186 -22.980  0.00  0.00    +0.382 N 
ATOM     11  H   UNL     1      34.978 -16.906 -23.539  0.00  0.00    -0.089 HD
ATOM     12  H   UNL     1      36.276 -17.946 -23.449  0.00  0.00    -0.089 HD
ATOM     13  H   UNL     1      36.413 -16.391 -22.868  0.00  0.00    -0.089 HD
ENDBRANCH   8  10
ENDBRANCH   1   8
TORSDOF 3
ENDMDL
MODEL 4
REMARK VINA RESULT:      -6.2      1.990      4.657
REMARK  Name = 3007
REMARK  3 active torsions:
REMARK  status: ('A' for Active; 'I' for Inactive)
REMARK    1  A    between atoms: C_1  and  C_2
REMARK    2  A    between atoms: C_1  and  C_8
REMARK    3  A    between atoms: C_8  and  N_10
REMARK                            x       y       z     vdW  Elec       q    Type
REMARK                         _______ _______ _______ _____ _____    ______ ____
ROOT
ATOM      1  C   UNL     1      34.919 -18.506 -21.078  0.00  0.00    +0.004 C 
ENDROOT
BRANCH   1   2
ATOM      2  C   UNL     1      34.815 -18.088 -22.517  0.00  0.00    -0.024 C 
ATOM      3  C   UNL     1      34.911 -16.743 -22.849  0.00  0.00    -0.004 C 
ATOM      4  C   UNL     1      34.623 -19.052 -23.499  0.00  0.00    -0.004 C 
ATOM      5  C   UNL     1      34.815 -16.355 -24.186  0.00  0.00    -0.000 C 
ATOM      6  C   UNL     1      34.527 -18.664 -24.835  0.00  0.00    -0.000 C 
ATOM      7  C   UNL     1      34.622 -17.315 -25.179  0.00  0.00    -0.000 C 
ENDBRANCH   1   2
BRANCH   1   8
ATOM      8  C   UNL     1      34.666 -20.009 -20.849  0.00  0.00    -0.061 C 
ATOM      9  C   UNL     1      33.260 -20.296 -20.322  0.00  0.00    -0.024 C 
BRANCH   8  10
ATOM     10  N   UNL     1      35.636 -20.527 -19.879  0.00  0.00    +0.382 N 
ATOM     11  H   UNL     1      36.352 -21.064 -20.368  0.00  0.00    -0.089 HD
ATOM     12  H   UNL     1      35.157 -21.128 -19.208  0.00  0.00    -0.089 HD
ATOM     13  H   UNL     1      36.073 -19.748 -19.386  0.00  0.00    -0.089 HD
ENDBRANCH   8  10
ENDBRANCH   1   8
TORSDOF 3
ENDMDL
MODEL 5
REMARK VINA RESULT:      -6.2      1.982      4.577
REMARK  Name = 3007
REMARK  3 active torsions:
REMARK  status: ('A' for Active; 'I' for Inactive)
REMARK    1  A    between atoms: C_1  and  C_2
REMARK    2  A    between atoms: C_1  and  C_8
REMARK    3  A    between atoms: C_8  and  N_10
REMARK                            x       y       z     vdW  Elec       q    Type
REMARK                         _______ _______ _______ _____ _____    ______ ____
ROOT
ATOM      1  C   UNL     1      34.932 -18.518 -21.063  0.00  0.00    +0.004 C 
ENDROOT
BRANCH   1   2
ATOM      2  C   UNL     1      34.827 -18.106 -22.504  0.00  0.00    -0.024 C 
ATOM      3  C   UNL     1      34.639 -19.074 -23.483  0.00  0.00    -0.004 C 
ATOM      4  C   UNL     1      34.920 -16.761 -22.841  0.00  0.00    -0.004 C 
ATOM      5  C   UNL     1      34.542 -18.690 -24.821  0.00  0.00    -0.000 C 
ATOM      6  C   UNL     1      34.822 -16.378 -24.178  0.00  0.00    -0.000 C 
ATOM      7  C   UNL     1      34.634 -17.342 -25.169  0.00  0.00    -0.000 C 
ENDBRANCH   1   2
BRANCH   1   8
ATOM      8  C   UNL     1      34.735 -20.029 -20.835  0.00  0.00    -0.061 C 
ATOM      9  C   UNL     1      33.344 -20.367 -20.297  0.00  0.00    -0.024 C 
BRANCH   8  10
ATOM     10  N   UNL     1      35.730 -20.513 -19.873  0.00  0.00    +0.382 N 
ATOM     11  H   UNL     1      35.742 -19.900 -19.058  0.00  0.00    -0.089 HD
ATOM     12  H   UNL     1      36.652 -20.516 -20.311  0.00  0.00    -0.089 HD
ATOM     13  H   UNL     1      35.490 -21.461 -19.583  0.00  0.00    -0.089 HD
ENDBRANCH   8  10
ENDBRANCH   1   8
TORSDOF 3
ENDMDL
MODEL 6
REMARK VINA RESULT:      -5.8      2.503      4.401
REMARK  Name = 3007
REMARK  3 active torsions:
REMARK  status: ('A' for Active; 'I' for Inactive)
REMARK    1  A    between atoms: C_1  and  C_2
REMARK    2  A    between atoms: C_1  and  C_8
REMARK    3  A    between atoms: C_8  and  N_10
REMARK                            x       y       z     vdW  Elec       q    Type
REMARK                         _______ _______ _______ _____ _____    ______ ____
ROOT
ATOM      1  C   UNL     1      33.104 -20.144 -20.979  0.00  0.00    +0.004 C 
ENDROOT
BRANCH   1   2
ATOM      2  C   UNL     1      33.963 -19.089 -21.617  0.00  0.00    -0.024 C 
ATOM      3  C   UNL     1      34.616 -19.365 -22.811  0.00  0.00    -0.004 C 
ATOM      4  C   UNL     1      34.094 -17.849 -21.003  0.00  0.00    -0.004 C 
ATOM      5  C   UNL     1      35.413 -18.384 -23.402  0.00  0.00    -0.000 C 
ATOM      6  C   UNL     1      34.890 -16.869 -21.595  0.00  0.00    -0.000 C 
ATOM      7  C   UNL     1      35.551 -17.137 -22.794  0.00  0.00    -0.000 C 
ENDBRANCH   1   2
BRANCH   1   8
ATOM      8  C   UNL     1      33.749 -20.807 -19.747  0.00  0.00    -0.061 C 
ATOM      9  C   UNL     1      35.230 -21.124 -19.956  0.00  0.00    -0.024 C 
BRANCH   8  10
ATOM     10  N   UNL     1      33.049 -22.059 -19.441  0.00  0.00    +0.382 N 
ATOM     11  H   UNL     1      33.550 -22.558 -18.707  0.00  0.00    -0.089 HD
ATOM     12  H   UNL     1      33.007 -22.638 -20.280  0.00  0.00    -0.089 HD
ATOM     13  H   UNL     1      32.102 -21.850 -19.125  0.00  0.00    -0.089 HD
ENDBRANCH   8  10
ENDBRANCH   1   8
TORSDOF 3
ENDMDL
MODEL 7
REMARK VINA RESULT:      -5.8      3.645      5.794
REMARK  Name = 3007
REMARK  3 active torsions:
REMARK  status: ('A' for Active; 'I' for Inactive)
REMARK    1  A    between atoms: C_1  and  C_2
REMARK    2  A    between atoms: C_1  and  C_8
REMARK    3  A    between atoms: C_8  and  N_10
REMARK                            x       y       z     vdW  Elec       q    Type
REMARK                         _______ _______ _______ _____ _____    ______ ____
ROOT
ATOM      1  C   UNL     1      33.748 -23.226 -18.453  0.00  0.00    +0.004 C 
ENDROOT
BRANCH   1   2
ATOM      2  C   UNL     1      34.092 -22.015 -19.273  0.00  0.00    -0.024 C 
ATOM      3  C   UNL     1      33.074 -21.210 -19.768  0.00  0.00    -0.004 C 
ATOM      4  C   UNL     1      35.425 -21.714 -19.526  0.00  0.00    -0.004 C 
ATOM      5  C   UNL     1      33.394 -20.085 -20.529  0.00  0.00    -0.000 C 
ATOM      6  C   UNL     1      35.744 -20.589 -20.286  0.00  0.00    -0.000 C 
ATOM      7  C   UNL     1      34.729 -19.774 -20.788  0.00  0.00    -0.000 C 
ENDBRANCH   1   2
BRANCH   1   8
ATOM      8  C   UNL     1      33.444 -22.910 -16.977  0.00  0.00    -0.061 C 
ATOM      9  C   UNL     1      34.366 -23.656 -16.012  0.00  0.00    -0.024 C 
BRANCH   8  10
ATOM     10  N   UNL     1      32.059 -23.284 -16.671  0.00  0.00    +0.382 N 
ATOM     11  H   UNL     1      31.665 -23.801 -17.457  0.00  0.00    -0.089 HD
ATOM     12  H   UNL     1      31.508 -22.440 -16.508  0.00  0.00    -0.089 HD
ATOM     13  H   UNL     1      32.041 -23.868 -15.835  0.00  0.00    -0.089 HD
ENDBRANCH   8  10
ENDBRANCH   1   8
TORSDOF 3
ENDMDL
MODEL 8
REMARK VINA RESULT:      -5.7     11.320     13.478
REMARK  Name = 3007
REMARK  3 active torsions:
REMARK  status: ('A' for Active; 'I' for Inactive)
REMARK    1  A    between atoms: C_1  and  C_2
REMARK    2  A    between atoms: C_1  and  C_8
REMARK    3  A    between atoms: C_8  and  N_10
REMARK                            x       y       z     vdW  Elec       q    Type
REMARK                         _______ _______ _______ _____ _____    ______ ____
ROOT
ATOM      1  C   UNL     1      31.929  -7.069 -21.818  0.00  0.00    +0.004 C 
ENDROOT
BRANCH   1   2
ATOM      2  C   UNL     1      32.684  -6.742 -23.075  0.00  0.00    -0.024 C 
ATOM      3  C   UNL     1      32.124  -5.876 -24.006  0.00  0.00    -0.004 C 
ATOM      4  C   UNL     1      33.933  -7.310 -23.292  0.00  0.00    -0.004 C 
ATOM      5  C   UNL     1      32.826  -5.573 -25.174  0.00  0.00    -0.000 C 
ATOM      6  C   UNL     1      34.634  -7.007 -24.459  0.00  0.00    -0.000 C 
ATOM      7  C   UNL     1      34.080  -6.139 -25.401  0.00  0.00    -0.000 C 
ENDBRANCH   1   2
BRANCH   1   8
ATOM      8  C   UNL     1      32.678  -8.032 -20.877  0.00  0.00    -0.061 C 
ATOM      9  C   UNL     1      31.910  -9.330 -20.630  0.00  0.00    -0.024 C 
BRANCH   8  10
ATOM     10  N   UNL     1      32.904  -7.377 -19.585  0.00  0.00    +0.382 N 
ATOM     11  H   UNL     1      32.208  -6.645 -19.448  0.00  0.00    -0.089 HD
ATOM     12  H   UNL     1      33.839  -6.966 -19.572  0.00  0.00    -0.089 HD
ATOM     13  H   UNL     1      32.826  -8.066 -18.836  0.00  0.00    -0.089 HD
ENDBRANCH   8  10
ENDBRANCH   1   8
TORSDOF 3
ENDMDL
MODEL 9
REMARK VINA RESULT:      -5.7      3.110      4.855
REMARK  Name = 3007
REMARK  3 active torsions:
REMARK  status: ('A' for Active; 'I' for Inactive)
REMARK    1  A    between atoms: C_1  and  C_2
REMARK    2  A    between atoms: C_1  and  C_8
REMARK    3  A    between atoms: C_8  and  N_10
REMARK                            x       y       z     vdW  Elec       q    Type
REMARK                         _______ _______ _______ _____ _____    ______ ____
ROOT
ATOM      1  C   UNL     1      34.578 -15.018 -22.880  0.00  0.00    +0.004 C 
ENDROOT
BRANCH   1   2
ATOM      2  C   UNL     1      34.668 -16.445 -23.342  0.00  0.00    -0.024 C 
ATOM      3  C   UNL     1      34.389 -16.757 -24.666  0.00  0.00    -0.004 C 
ATOM      4  C   UNL     1      35.029 -17.436 -22.437  0.00  0.00    -0.004 C 
ATOM      5  C   UNL     1      34.473 -18.083 -25.094  0.00  0.00    -0.000 C 
ATOM      6  C   UNL     1      35.113 -18.761 -22.866  0.00  0.00    -0.000 C 
ATOM      7  C   UNL     1      34.835 -19.085 -24.194  0.00  0.00    -0.000 C 
ENDBRANCH   1   2
BRANCH   1   8
ATOM      8  C   UNL     1      33.338 -14.273 -23.409  0.00  0.00    -0.061 C 
ATOM      9  C   UNL     1      33.688 -12.938 -24.067  0.00  0.00    -0.024 C 
BRANCH   8  10
ATOM     10  N   UNL     1      32.414 -14.012 -22.301  0.00  0.00    +0.382 N 
ATOM     11  H   UNL     1      32.809 -13.298 -21.690  0.00  0.00    -0.089 HD
ATOM     12  H   UNL     1      32.268 -14.871 -21.771  0.00  0.00    -0.089 HD
ATOM     13  H   UNL     1      31.521 -13.686 -22.672  0.00  0.00    -0.089 HD
ENDBRANCH   8  10
ENDBRANCH   1   8
TORSDOF 3
ENDMDL
