MODEL 1
REMARK VINA RESULT:      -8.6      0.000      0.000
REMARK  Name = 5289469
REMARK  13 active torsions:
REMARK  status: ('A' for Active; 'I' for Inactive)
REMARK    1  A    between atoms: CA_1  and  N_3
REMARK    2  A    between atoms: CA_1  and  C_16
REMARK    3  A    between atoms: CA_1  and  CB_24
REMARK    4  A    between atoms: C_4  and  C_6
REMARK    5  A    between atoms: C_6  and  S_7
REMARK    6  A    between atoms: C_6  and  C_9
REMARK    7  A    between atoms: C_9  and  C_10
REMARK    8  A    between atoms: C_10  and  C_11
REMARK    9  A    between atoms: C_11  and  C_12
REMARK   10  A    between atoms: N_15  and  CA_18
REMARK   11  A    between atoms: CA_18  and  C_21
REMARK   12  A    between atoms: C_21  and  O_22
REMARK   13  A    between atoms: CB_24  and  CG_25
REMARK                            x       y       z     vdW  Elec       q    Type
REMARK                         _______ _______ _______ _____ _____    ______ ____
ROOT
ATOM      1  CA  UNL     1      33.623 -22.786 -16.861  0.00  0.00    +0.153 C 
ENDROOT
BRANCH   1   3
ATOM      2  O   UNL     1      36.273 -22.158 -15.939  0.00  0.00    -0.274 OA
ATOM      3  N   UNL     1      34.427 -23.563 -15.947  0.00  0.00    -0.297 N 
ATOM      4  C   ACE A   0      35.702 -23.178 -15.557  0.00  0.00    +0.232 C 
ATOM      5  H   UNL     1      34.056 -24.400 -15.585  0.00  0.00    +0.150 HD
BRANCH   4   6
ATOM      6  C   UNL     1      36.330 -24.149 -14.562  0.00  0.00    +0.120 C 
BRANCH   6   7
ATOM      7  S   UNL     1      35.335 -24.118 -13.031  0.00  0.00    -0.160 S 
ATOM      8  H   UNL     1      36.154 -24.270 -11.956  0.00  0.00    +0.103 HD
ENDBRANCH   6   7
BRANCH   6   9
ATOM      9  C   UNL     1      36.405 -25.544 -15.199  0.00  0.00    +0.020 C 
BRANCH   9  10
ATOM     10  C   UNL     1      37.559 -26.442 -14.732  0.00  0.00    +0.001 C 
BRANCH  10  11
ATOM     11  C   UNL     1      38.371 -25.843 -13.582  0.00  0.00    +0.000 C 
BRANCH  11  12
ATOM     12  C   UNL     1      39.868 -25.861 -13.895  0.00  0.00    +0.000 C 
ATOM     13  C   UNL     1      40.170 -25.153 -15.207  0.00  0.00    +0.000 C 
ENDBRANCH  11  12
ENDBRANCH  10  11
ENDBRANCH   9  10
ENDBRANCH   6   9
ENDBRANCH   4   6
ENDBRANCH   1   3
BRANCH   1  16
ATOM     14  O   UNL     1      31.224 -22.626 -17.169  0.00  0.00    -0.273 OA
ATOM     15  N   UNL     1      32.042 -23.693 -15.275  0.00  0.00    -0.295 N 
ATOM     16  C   UNL     1      32.165 -22.997 -16.470  0.00  0.00    +0.241 C 
ATOM     17  H   UNL     1      32.864 -23.943 -14.794  0.00  0.00    +0.150 HD
BRANCH  15  18
ATOM     18  CA  UNL     1      30.770 -24.068 -14.703  0.00  0.00    +0.171 C 
ATOM     19  CB  UNL     1      30.078 -25.107 -15.571  0.00  0.00    +0.033 C 
BRANCH  18  21
ATOM     20  OXT UNL     1      30.179 -24.249 -12.366  0.00  0.00    -0.248 OA
ATOM     21  C   UNL     1      30.922 -24.585 -13.281  0.00  0.00    +0.332 C 
BRANCH  21  22
ATOM     22  O   UNL     1      31.956 -25.440 -13.098  0.00  0.00    -0.479 OA
ATOM     23  H   UNL     1      31.790 -26.351 -12.949  0.00  0.00    +0.295 HD
ENDBRANCH  21  22
ENDBRANCH  18  21
ENDBRANCH  15  18
ENDBRANCH   1  16
BRANCH   1  24
ATOM     24  CB  UNL     1      33.849 -23.195 -18.321  0.00  0.00    +0.055 C 
BRANCH  24  25
ATOM     25  CG  UNL     1      34.253 -22.034 -19.197  0.00  0.00    -0.020 C 
ATOM     26  CD1 UNL     1      35.602 -21.786 -19.448  0.00  0.00    -0.004 C 
ATOM     27  CD2 UNL     1      33.276 -21.211 -19.758  0.00  0.00    -0.004 C 
ATOM     28  CE1 UNL     1      35.976 -20.714 -20.258  0.00  0.00    -0.000 C 
ATOM     29  CE2 UNL     1      33.650 -20.139 -20.568  0.00  0.00    -0.000 C 
ATOM     30  CZ  UNL     1      35.000 -19.890 -20.818  0.00  0.00    -0.000 C 
ENDBRANCH  24  25
ENDBRANCH   1  24
TORSDOF 13
ENDMDL
MODEL 2
REMARK VINA RESULT:      -8.6      1.844      2.599
REMARK  Name = 5289469
REMARK  13 active torsions:
REMARK  status: ('A' for Active; 'I' for Inactive)
REMARK    1  A    between atoms: CA_1  and  N_3
REMARK    2  A    between atoms: CA_1  and  C_16
REMARK    3  A    between atoms: CA_1  and  CB_24
REMARK    4  A    between atoms: C_4  and  C_6
REMARK    5  A    between atoms: C_6  and  S_7
REMARK    6  A    between atoms: C_6  and  C_9
REMARK    7  A    between atoms: C_9  and  C_10
REMARK    8  A    between atoms: C_10  and  C_11
REMARK    9  A    between atoms: C_11  and  C_12
REMARK   10  A    between atoms: N_15  and  CA_18
REMARK   11  A    between atoms: CA_18  and  C_21
REMARK   12  A    between atoms: C_21  and  O_22
REMARK   13  A    between atoms: CB_24  and  CG_25
REMARK                            x       y       z     vdW  Elec       q    Type
REMARK                         _______ _______ _______ _____ _____    ______ ____
ROOT
ATOM      1  CA  UNL     1      34.171 -23.296 -15.982  0.00  0.00    +0.153 C 
ENDROOT
BRANCH   1   3
ATOM      2  O   UNL     1      36.904 -22.838 -15.212  0.00  0.00    -0.274 OA
ATOM      3  N   UNL     1      35.158 -24.300 -15.658  0.00  0.00    -0.297 N 
ATOM      4  C   ACE A   0      36.459 -23.983 -15.296  0.00  0.00    +0.232 C 
ATOM      5  H   UNL     1      34.897 -25.249 -15.697  0.00  0.00    +0.150 HD
BRANCH   4   6
ATOM      6  C   UNL     1      37.296 -25.216 -14.973  0.00  0.00    +0.120 C 
BRANCH   6   7
ATOM      7  S   UNL     1      39.058 -24.767 -15.130  0.00  0.00    -0.160 S 
ATOM      8  H   UNL     1      39.726 -25.768 -15.765  0.00  0.00    +0.103 HD
ENDBRANCH   6   7
BRANCH   6   9
ATOM      9  C   UNL     1      36.929 -25.720 -13.570  0.00  0.00    +0.020 C 
BRANCH   9  10
ATOM     10  C   UNL     1      37.939 -25.416 -12.454  0.00  0.00    +0.001 C 
BRANCH  10  11
ATOM     11  C   UNL     1      37.760 -24.031 -11.831  0.00  0.00    +0.000 C 
BRANCH  11  12
ATOM     12  C   UNL     1      36.279 -23.677 -11.686  0.00  0.00    +0.000 C 
ATOM     13  C   UNL     1      35.658 -24.364 -10.480  0.00  0.00    +0.000 C 
ENDBRANCH  11  12
ENDBRANCH  10  11
ENDBRANCH   9  10
ENDBRANCH   6   9
ENDBRANCH   4   6
ENDBRANCH   1   3
BRANCH   1  16
ATOM     14  O   UNL     1      33.297 -23.503 -13.731  0.00  0.00    -0.273 OA
ATOM     15  N   UNL     1      31.804 -23.292 -15.498  0.00  0.00    -0.295 N 
ATOM     16  C   UNL     1      33.069 -23.393 -14.933  0.00  0.00    +0.241 C 
ATOM     17  H   UNL     1      31.735 -23.208 -16.476  0.00  0.00    +0.150 HD
BRANCH  15  18
ATOM     18  CA  UNL     1      30.586 -23.304 -14.721  0.00  0.00    +0.171 C 
ATOM     19  CB  UNL     1      29.414 -22.817 -15.557  0.00  0.00    +0.033 C 
BRANCH  18  21
ATOM     20  OXT UNL     1      29.832 -25.598 -14.828  0.00  0.00    -0.248 OA
ATOM     21  C   UNL     1      30.294 -24.684 -14.155  0.00  0.00    +0.332 C 
BRANCH  21  22
ATOM     22  O   UNL     1      30.572 -24.826 -12.837  0.00  0.00    -0.479 OA
ATOM     23  H   UNL     1      31.112 -25.535 -12.545  0.00  0.00    +0.295 HD
ENDBRANCH  21  22
ENDBRANCH  18  21
ENDBRANCH  15  18
ENDBRANCH   1  16
BRANCH   1  24
ATOM     24  CB  UNL     1      33.590 -23.488 -17.387  0.00  0.00    +0.055 C 
BRANCH  24  25
ATOM     25  CG  UNL     1      34.079 -22.451 -18.368  0.00  0.00    -0.020 C 
ATOM     26  CD1 UNL     1      33.166 -21.755 -19.161  0.00  0.00    -0.004 C 
ATOM     27  CD2 UNL     1      35.444 -22.187 -18.481  0.00  0.00    -0.004 C 
ATOM     28  CE1 UNL     1      33.618 -20.797 -20.068  0.00  0.00    -0.000 C 
ATOM     29  CE2 UNL     1      35.896 -21.228 -19.388  0.00  0.00    -0.000 C 
ATOM     30  CZ  UNL     1      34.983 -20.533 -20.181  0.00  0.00    -0.000 C 
ENDBRANCH  24  25
ENDBRANCH   1  24
TORSDOF 13
ENDMDL
MODEL 3
REMARK VINA RESULT:      -8.5      2.521      6.342
REMARK  Name = 5289469
REMARK  13 active torsions:
REMARK  status: ('A' for Active; 'I' for Inactive)
REMARK    1  A    between atoms: CA_1  and  N_3
REMARK    2  A    between atoms: CA_1  and  C_16
REMARK    3  A    between atoms: CA_1  and  CB_24
REMARK    4  A    between atoms: C_4  and  C_6
REMARK    5  A    between atoms: C_6  and  S_7
REMARK    6  A    between atoms: C_6  and  C_9
REMARK    7  A    between atoms: C_9  and  C_10
REMARK    8  A    between atoms: C_10  and  C_11
REMARK    9  A    between atoms: C_11  and  C_12
REMARK   10  A    between atoms: N_15  and  CA_18
REMARK   11  A    between atoms: CA_18  and  C_21
REMARK   12  A    between atoms: C_21  and  O_22
REMARK   13  A    between atoms: CB_24  and  CG_25
REMARK                            x       y       z     vdW  Elec       q    Type
REMARK                         _______ _______ _______ _____ _____    ______ ____
ROOT
ATOM      1  CA  UNL     1      36.601 -23.131 -16.129  0.00  0.00    +0.153 C 
ENDROOT
BRANCH   1   3
ATOM      2  O   UNL     1      34.976 -25.228 -15.021  0.00  0.00    -0.274 OA
ATOM      3  N   UNL     1      35.270 -22.997 -15.584  0.00  0.00    -0.297 N 
ATOM      4  C   ACE A   0      34.559 -24.072 -15.068  0.00  0.00    +0.232 C 
ATOM      5  H   UNL     1      34.849 -22.106 -15.579  0.00  0.00    +0.150 HD
BRANCH   4   6
ATOM      6  C   UNL     1      33.193 -23.665 -14.526  0.00  0.00    +0.120 C 
BRANCH   6   7
ATOM      7  S   UNL     1      32.195 -23.027 -15.916  0.00  0.00    -0.160 S 
ATOM      8  H   UNL     1      32.969 -22.952 -17.032  0.00  0.00    +0.103 HD
ENDBRANCH   6   7
BRANCH   6   9
ATOM      9  C   UNL     1      32.548 -24.872 -13.831  0.00  0.00    +0.020 C 
BRANCH   9  10
ATOM     10  C   UNL     1      31.030 -24.800 -13.615  0.00  0.00    +0.001 C 
BRANCH  10  11
ATOM     11  C   UNL     1      30.223 -25.472 -14.728  0.00  0.00    +0.000 C 
BRANCH  11  12
ATOM     12  C   UNL     1      28.870 -24.784 -14.920  0.00  0.00    +0.000 C 
ATOM     13  C   UNL     1      28.670 -24.342 -16.361  0.00  0.00    +0.000 C 
ENDBRANCH  11  12
ENDBRANCH  10  11
ENDBRANCH   9  10
ENDBRANCH   6   9
ENDBRANCH   4   6
ENDBRANCH   1   3
BRANCH   1  16
ATOM     14  O   UNL     1      37.629 -22.666 -13.984  0.00  0.00    -0.273 OA
ATOM     15  N   UNL     1      38.228 -24.602 -15.118  0.00  0.00    -0.295 N 
ATOM     16  C   UNL     1      37.541 -23.406 -14.961  0.00  0.00    +0.241 C 
ATOM     17  H   UNL     1      38.083 -25.120 -15.943  0.00  0.00    +0.150 HD
BRANCH  15  18
ATOM     18  CA  UNL     1      39.147 -25.124 -14.132  0.00  0.00    +0.171 C 
ATOM     19  CB  UNL     1      38.411 -25.986 -13.119  0.00  0.00    +0.033 C 
BRANCH  18  21
ATOM     20  OXT UNL     1      41.120 -26.520 -14.129  0.00  0.00    -0.248 OA
ATOM     21  C   UNL     1      40.276 -25.913 -14.777  0.00  0.00    +0.332 C 
BRANCH  21  22
ATOM     22  O   UNL     1      40.286 -25.883 -16.131  0.00  0.00    -0.479 OA
ATOM     23  H   UNL     1      40.014 -26.636 -16.618  0.00  0.00    +0.295 HD
ENDBRANCH  21  22
ENDBRANCH  18  21
ENDBRANCH  15  18
ENDBRANCH   1  16
BRANCH   1  24
ATOM     24  CB  UNL     1      37.045 -21.875 -16.886  0.00  0.00    +0.055 C 
BRANCH  24  25
ATOM     25  CG  UNL     1      36.230 -21.624 -18.132  0.00  0.00    -0.020 C 
ATOM     26  CD1 UNL     1      36.745 -20.826 -19.153  0.00  0.00    -0.004 C 
ATOM     27  CD2 UNL     1      34.963 -22.193 -18.262  0.00  0.00    -0.004 C 
ATOM     28  CE1 UNL     1      35.992 -20.594 -20.305  0.00  0.00    -0.000 C 
ATOM     29  CE2 UNL     1      34.210 -21.962 -19.414  0.00  0.00    -0.000 C 
ATOM     30  CZ  UNL     1      34.725 -21.163 -20.434  0.00  0.00    -0.000 C 
ENDBRANCH  24  25
ENDBRANCH   1  24
TORSDOF 13
ENDMDL
MODEL 4
REMARK VINA RESULT:      -8.4      2.360      6.546
REMARK  Name = 5289469
REMARK  13 active torsions:
REMARK  status: ('A' for Active; 'I' for Inactive)
REMARK    1  A    between atoms: CA_1  and  N_3
REMARK    2  A    between atoms: CA_1  and  C_16
REMARK    3  A    between atoms: CA_1  and  CB_24
REMARK    4  A    between atoms: C_4  and  C_6
REMARK    5  A    between atoms: C_6  and  S_7
REMARK    6  A    between atoms: C_6  and  C_9
REMARK    7  A    between atoms: C_9  and  C_10
REMARK    8  A    between atoms: C_10  and  C_11
REMARK    9  A    between atoms: C_11  and  C_12
REMARK   10  A    between atoms: N_15  and  CA_18
REMARK   11  A    between atoms: CA_18  and  C_21
REMARK   12  A    between atoms: C_21  and  O_22
REMARK   13  A    between atoms: CB_24  and  CG_25
REMARK                            x       y       z     vdW  Elec       q    Type
REMARK                         _______ _______ _______ _____ _____    ______ ____
ROOT
ATOM      1  CA  UNL     1      33.722 -23.663 -13.707  0.00  0.00    +0.153 C 
ENDROOT
BRANCH   1   3
ATOM      2  O   UNL     1      35.035 -24.449 -16.142  0.00  0.00    -0.274 OA
ATOM      3  N   UNL     1      34.400 -22.796 -14.642  0.00  0.00    -0.297 N 
ATOM      4  C   ACE A   0      35.008 -23.268 -15.797  0.00  0.00    +0.232 C 
ATOM      5  H   UNL     1      34.432 -21.830 -14.452  0.00  0.00    +0.150 HD
BRANCH   4   6
ATOM      6  C   UNL     1      35.626 -22.151 -16.632  0.00  0.00    +0.120 C 
BRANCH   6   7
ATOM      7  S   UNL     1      37.437 -22.213 -16.414  0.00  0.00    -0.160 S 
ATOM      8  H   UNL     1      37.933 -23.312 -17.045  0.00  0.00    +0.103 HD
ENDBRANCH   6   7
BRANCH   6   9
ATOM      9  C   UNL     1      35.193 -22.319 -18.095  0.00  0.00    +0.020 C 
BRANCH   9  10
ATOM     10  C   UNL     1      36.012 -21.545 -19.138  0.00  0.00    +0.001 C 
BRANCH  10  11
ATOM     11  C   UNL     1      35.152 -20.726 -20.103  0.00  0.00    +0.000 C 
BRANCH  11  12
ATOM     12  C   UNL     1      33.663 -20.997 -19.882  0.00  0.00    +0.000 C 
ATOM     13  C   UNL     1      32.798 -19.999 -20.635  0.00  0.00    +0.000 C 
ENDBRANCH  11  12
ENDBRANCH  10  11
ENDBRANCH   9  10
ENDBRANCH   6   9
ENDBRANCH   4   6
ENDBRANCH   1   3
BRANCH   1  16
ATOM     14  O   UNL     1      34.770 -24.076 -11.561  0.00  0.00    -0.273 OA
ATOM     15  N   UNL     1      35.712 -25.011 -13.467  0.00  0.00    -0.295 N 
ATOM     16  C   UNL     1      34.782 -24.244 -12.779  0.00  0.00    +0.241 C 
ATOM     17  H   UNL     1      35.629 -25.078 -14.446  0.00  0.00    +0.150 HD
BRANCH  15  18
ATOM     18  CA  UNL     1      36.795 -25.715 -12.820  0.00  0.00    +0.171 C 
ATOM     19  CB  UNL     1      37.348 -26.799 -13.730  0.00  0.00    +0.033 C 
BRANCH  18  21
ATOM     20  OXT UNL     1      38.828 -24.444 -13.128  0.00  0.00    -0.248 OA
ATOM     21  C   UNL     1      37.904 -24.768 -12.390  0.00  0.00    +0.332 C 
BRANCH  21  22
ATOM     22  O   UNL     1      37.801 -24.316 -11.118  0.00  0.00    -0.479 OA
ATOM     23  H   UNL     1      37.500 -23.443 -10.954  0.00  0.00    +0.295 HD
ENDBRANCH  21  22
ENDBRANCH  18  21
ENDBRANCH  15  18
ENDBRANCH   1  16
BRANCH   1  24
ATOM     24  CB  UNL     1      32.956 -24.788 -14.412  0.00  0.00    +0.055 C 
BRANCH  24  25
ATOM     25  CG  UNL     1      31.541 -24.400 -14.766  0.00  0.00    -0.020 C 
ATOM     26  CD1 UNL     1      30.484 -25.256 -14.455  0.00  0.00    -0.004 C 
ATOM     27  CD2 UNL     1      31.290 -23.184 -15.402  0.00  0.00    -0.004 C 
ATOM     28  CE1 UNL     1      29.177 -24.897 -14.782  0.00  0.00    -0.000 C 
ATOM     29  CE2 UNL     1      29.982 -22.825 -15.729  0.00  0.00    -0.000 C 
ATOM     30  CZ  UNL     1      28.926 -23.682 -15.419  0.00  0.00    -0.000 C 
ENDBRANCH  24  25
ENDBRANCH   1  24
TORSDOF 13
ENDMDL
MODEL 5
REMARK VINA RESULT:      -8.3      2.241      5.695
REMARK  Name = 5289469
REMARK  13 active torsions:
REMARK  status: ('A' for Active; 'I' for Inactive)
REMARK    1  A    between atoms: CA_1  and  N_3
REMARK    2  A    between atoms: CA_1  and  C_16
REMARK    3  A    between atoms: CA_1  and  CB_24
REMARK    4  A    between atoms: C_4  and  C_6
REMARK    5  A    between atoms: C_6  and  S_7
REMARK    6  A    between atoms: C_6  and  C_9
REMARK    7  A    between atoms: C_9  and  C_10
REMARK    8  A    between atoms: C_10  and  C_11
REMARK    9  A    between atoms: C_11  and  C_12
REMARK   10  A    between atoms: N_15  and  CA_18
REMARK   11  A    between atoms: CA_18  and  C_21
REMARK   12  A    between atoms: C_21  and  O_22
REMARK   13  A    between atoms: CB_24  and  CG_25
REMARK                            x       y       z     vdW  Elec       q    Type
REMARK                         _______ _______ _______ _____ _____    ______ ____
ROOT
ATOM      1  CA  UNL     1      33.558 -23.438 -17.153  0.00  0.00    +0.153 C 
ENDROOT
BRANCH   1   3
ATOM      2  O   UNL     1      35.251 -25.238 -15.682  0.00  0.00    -0.274 OA
ATOM      3  N   UNL     1      34.769 -23.099 -16.443  0.00  0.00    -0.297 N 
ATOM      4  C   ACE A   0      35.525 -24.041 -15.757  0.00  0.00    +0.232 C 
ATOM      5  H   UNL     1      35.072 -22.162 -16.445  0.00  0.00    +0.150 HD
BRANCH   4   6
ATOM      6  C   UNL     1      36.772 -23.440 -15.119  0.00  0.00    +0.120 C 
BRANCH   6   7
ATOM      7  S   UNL     1      37.328 -22.045 -16.157  0.00  0.00    -0.160 S 
ATOM      8  H   UNL     1      37.703 -22.511 -17.379  0.00  0.00    +0.103 HD
ENDBRANCH   6   7
BRANCH   6   9
ATOM      9  C   UNL     1      36.448 -23.021 -13.678  0.00  0.00    +0.020 C 
BRANCH   9  10
ATOM     10  C   UNL     1      36.640 -24.096 -12.599  0.00  0.00    +0.001 C 
BRANCH  10  11
ATOM     11  C   UNL     1      38.109 -24.403 -12.298  0.00  0.00    +0.000 C 
BRANCH  11  12
ATOM     12  C   UNL     1      38.550 -25.704 -12.971  0.00  0.00    +0.000 C 
ATOM     13  C   UNL     1      39.735 -25.478 -13.896  0.00  0.00    +0.000 C 
ENDBRANCH  11  12
ENDBRANCH  10  11
ENDBRANCH   9  10
ENDBRANCH   6   9
ENDBRANCH   4   6
ENDBRANCH   1   3
BRANCH   1  16
ATOM     14  O   UNL     1      33.849 -23.937 -19.506  0.00  0.00    -0.273 OA
ATOM     15  N   UNL     1      33.848 -21.717 -18.824  0.00  0.00    -0.295 N 
ATOM     16  C   UNL     1      33.783 -23.089 -18.620  0.00  0.00    +0.241 C 
ATOM     17  H   UNL     1      33.785 -21.125 -18.040  0.00  0.00    +0.150 HD
BRANCH  15  18
ATOM     18  CA  UNL     1      34.007 -21.116 -20.128  0.00  0.00    +0.171 C 
ATOM     19  CB  UNL     1      32.882 -20.131 -20.403  0.00  0.00    +0.033 C 
BRANCH  18  21
ATOM     20  OXT UNL     1      35.477 -19.252 -20.580  0.00  0.00    -0.248 OA
ATOM     21  C   UNL     1      35.356 -20.432 -20.272  0.00  0.00    +0.332 C 
BRANCH  21  22
ATOM     22  O   UNL     1      36.424 -21.233 -20.046  0.00  0.00    -0.479 OA
ATOM     23  H   UNL     1      37.291 -20.917 -20.214  0.00  0.00    +0.295 HD
ENDBRANCH  21  22
ENDBRANCH  18  21
ENDBRANCH  15  18
ENDBRANCH   1  16
BRANCH   1  24
ATOM     24  CB  UNL     1      32.338 -22.688 -16.607  0.00  0.00    +0.055 C 
BRANCH  24  25
ATOM     25  CG  UNL     1      31.414 -23.576 -15.811  0.00  0.00    -0.020 C 
ATOM     26  CD1 UNL     1      31.887 -24.241 -14.680  0.00  0.00    -0.004 C 
ATOM     27  CD2 UNL     1      30.084 -23.729 -16.205  0.00  0.00    -0.004 C 
ATOM     28  CE1 UNL     1      31.032 -25.062 -13.944  0.00  0.00    -0.000 C 
ATOM     29  CE2 UNL     1      29.229 -24.550 -15.468  0.00  0.00    -0.000 C 
ATOM     30  CZ  UNL     1      29.703 -25.216 -14.339  0.00  0.00    -0.000 C 
ENDBRANCH  24  25
ENDBRANCH   1  24
TORSDOF 13
ENDMDL
MODEL 6
REMARK VINA RESULT:      -8.1      2.207      6.205
REMARK  Name = 5289469
REMARK  13 active torsions:
REMARK  status: ('A' for Active; 'I' for Inactive)
REMARK    1  A    between atoms: CA_1  and  N_3
REMARK    2  A    between atoms: CA_1  and  C_16
REMARK    3  A    between atoms: CA_1  and  CB_24
REMARK    4  A    between atoms: C_4  and  C_6
REMARK    5  A    between atoms: C_6  and  S_7
REMARK    6  A    between atoms: C_6  and  C_9
REMARK    7  A    between atoms: C_9  and  C_10
REMARK    8  A    between atoms: C_10  and  C_11
REMARK    9  A    between atoms: C_11  and  C_12
REMARK   10  A    between atoms: N_15  and  CA_18
REMARK   11  A    between atoms: CA_18  and  C_21
REMARK   12  A    between atoms: C_21  and  O_22
REMARK   13  A    between atoms: CB_24  and  CG_25
REMARK                            x       y       z     vdW  Elec       q    Type
REMARK                         _______ _______ _______ _____ _____    ______ ____
ROOT
ATOM      1  CA  UNL     1      34.175 -23.287 -16.838  0.00  0.00    +0.153 C 
ENDROOT
BRANCH   1   3
ATOM      2  O   UNL     1      34.017 -23.800 -19.663  0.00  0.00    -0.274 OA
ATOM      3  N   UNL     1      34.423 -22.344 -17.903  0.00  0.00    -0.297 N 
ATOM      4  C   ACE A   0      34.322 -22.684 -19.244  0.00  0.00    +0.232 C 
ATOM      5  H   UNL     1      34.675 -21.421 -17.667  0.00  0.00    +0.150 HD
BRANCH   4   6
ATOM      6  C   UNL     1      34.601 -21.505 -20.171  0.00  0.00    +0.120 C 
BRANCH   6   7
ATOM      7  S   UNL     1      33.097 -20.473 -20.250  0.00  0.00    -0.160 S 
ATOM      8  H   UNL     1      32.850 -19.937 -19.024  0.00  0.00    +0.103 HD
ENDBRANCH   6   7
BRANCH   6   9
ATOM      9  C   UNL     1      35.826 -20.738 -19.654  0.00  0.00    +0.020 C 
BRANCH   9  10
ATOM     10  C   UNL     1      36.608 -19.926 -20.696  0.00  0.00    +0.001 C 
BRANCH  10  11
ATOM     11  C   UNL     1      35.933 -18.604 -21.070  0.00  0.00    +0.000 C 
BRANCH  11  12
ATOM     12  C   UNL     1      36.008 -18.353 -22.578  0.00  0.00    +0.000 C 
ATOM     13  C   UNL     1      34.865 -19.036 -23.313  0.00  0.00    +0.000 C 
ENDBRANCH  11  12
ENDBRANCH  10  11
ENDBRANCH   9  10
ENDBRANCH   6   9
ENDBRANCH   4   6
ENDBRANCH   1   3
BRANCH   1  16
ATOM     14  O   UNL     1      31.850 -22.770 -17.287  0.00  0.00    -0.273 OA
ATOM     15  N   UNL     1      32.409 -23.741 -15.252  0.00  0.00    -0.295 N 
ATOM     16  C   UNL     1      32.689 -23.211 -16.505  0.00  0.00    +0.241 C 
ATOM     17  H   UNL     1      33.160 -24.067 -14.705  0.00  0.00    +0.150 HD
BRANCH  15  18
ATOM     18  CA  UNL     1      31.073 -23.836 -14.712  0.00  0.00    +0.171 C 
ATOM     19  CB  UNL     1      30.424 -25.149 -15.119  0.00  0.00    +0.033 C 
BRANCH  18  21
ATOM     20  OXT UNL     1      30.277 -24.286 -12.474  0.00  0.00    -0.248 OA
ATOM     21  C   UNL     1      31.065 -23.690 -13.199  0.00  0.00    +0.332 C 
BRANCH  21  22
ATOM     22  O   UNL     1      31.994 -22.834 -12.709  0.00  0.00    -0.479 OA
ATOM     23  H   UNL     1      32.326 -22.143 -13.249  0.00  0.00    +0.295 HD
ENDBRANCH  21  22
ENDBRANCH  18  21
ENDBRANCH  15  18
ENDBRANCH   1  16
BRANCH   1  24
ATOM     24  CB  UNL     1      35.017 -22.989 -15.592  0.00  0.00    +0.055 C 
BRANCH  24  25
ATOM     25  CG  UNL     1      36.064 -24.042 -15.329  0.00  0.00    -0.020 C 
ATOM     26  CD1 UNL     1      35.697 -25.384 -15.235  0.00  0.00    -0.004 C 
ATOM     27  CD2 UNL     1      37.402 -23.674 -15.181  0.00  0.00    -0.004 C 
ATOM     28  CE1 UNL     1      36.665 -26.358 -14.992  0.00  0.00    -0.000 C 
ATOM     29  CE2 UNL     1      38.371 -24.648 -14.937  0.00  0.00    -0.000 C 
ATOM     30  CZ  UNL     1      38.002 -25.989 -14.843  0.00  0.00    -0.000 C 
ENDBRANCH  24  25
ENDBRANCH   1  24
TORSDOF 13
ENDMDL
MODEL 7
REMARK VINA RESULT:      -8.1      1.978      6.133
REMARK  Name = 5289469
REMARK  13 active torsions:
REMARK  status: ('A' for Active; 'I' for Inactive)
REMARK    1  A    between atoms: CA_1  and  N_3
REMARK    2  A    between atoms: CA_1  and  C_16
REMARK    3  A    between atoms: CA_1  and  CB_24
REMARK    4  A    between atoms: C_4  and  C_6
REMARK    5  A    between atoms: C_6  and  S_7
REMARK    6  A    between atoms: C_6  and  C_9
REMARK    7  A    between atoms: C_9  and  C_10
REMARK    8  A    between atoms: C_10  and  C_11
REMARK    9  A    between atoms: C_11  and  C_12
REMARK   10  A    between atoms: N_15  and  CA_18
REMARK   11  A    between atoms: CA_18  and  C_21
REMARK   12  A    between atoms: C_21  and  O_22
REMARK   13  A    between atoms: CB_24  and  CG_25
REMARK                            x       y       z     vdW  Elec       q    Type
REMARK                         _______ _______ _______ _____ _____    ______ ____
ROOT
ATOM      1  CA  UNL     1      34.007 -24.124 -13.995  0.00  0.00    +0.153 C 
ENDROOT
BRANCH   1   3
ATOM      2  O   UNL     1      34.335 -24.300 -16.847  0.00  0.00    -0.274 OA
ATOM      3  N   UNL     1      34.658 -23.160 -14.852  0.00  0.00    -0.297 N 
ATOM      4  C   ACE A   0      34.768 -23.331 -16.225  0.00  0.00    +0.232 C 
ATOM      5  H   UNL     1      35.038 -22.347 -14.446  0.00  0.00    +0.150 HD
BRANCH   4   6
ATOM      6  C   UNL     1      35.468 -22.160 -16.907  0.00  0.00    +0.120 C 
BRANCH   6   7
ATOM      7  S   UNL     1      37.220 -22.165 -16.395  0.00  0.00    -0.160 S 
ATOM      8  H   UNL     1      37.833 -21.047 -16.867  0.00  0.00    +0.103 HD
ENDBRANCH   6   7
BRANCH   6   9
ATOM      9  C   UNL     1      35.288 -22.283 -18.427  0.00  0.00    +0.020 C 
BRANCH   9  10
ATOM     10  C   UNL     1      36.070 -21.280 -19.286  0.00  0.00    +0.001 C 
BRANCH  10  11
ATOM     11  C   UNL     1      35.185 -20.473 -20.239  0.00  0.00    +0.000 C 
BRANCH  11  12
ATOM     12  C   UNL     1      33.708 -20.821 -20.048  0.00  0.00    +0.000 C 
ATOM     13  C   UNL     1      32.806 -19.837 -20.776  0.00  0.00    +0.000 C 
ENDBRANCH  11  12
ENDBRANCH  10  11
ENDBRANCH   9  10
ENDBRANCH   6   9
ENDBRANCH   4   6
ENDBRANCH   1   3
BRANCH   1  16
ATOM     14  O   UNL     1      32.173 -23.070 -12.813  0.00  0.00    -0.273 OA
ATOM     15  N   UNL     1      31.783 -23.956 -14.924  0.00  0.00    -0.295 N 
ATOM     16  C   UNL     1      32.565 -23.665 -13.814  0.00  0.00    +0.241 C 
ATOM     17  H   UNL     1      32.199 -24.439 -15.674  0.00  0.00    +0.150 HD
BRANCH  15  18
ATOM     18  CA  UNL     1      30.391 -23.586 -15.033  0.00  0.00    +0.171 C 
ATOM     19  CB  UNL     1      30.133 -22.853 -16.339  0.00  0.00    +0.033 C 
BRANCH  18  21
ATOM     20  OXT UNL     1      28.274 -24.746 -15.145  0.00  0.00    -0.248 OA
ATOM     21  C   UNL     1      29.477 -24.794 -14.914  0.00  0.00    +0.332 C 
BRANCH  21  22
ATOM     22  O   UNL     1      30.093 -25.934 -14.521  0.00  0.00    -0.479 OA
ATOM     23  H   UNL     1      29.583 -26.686 -14.286  0.00  0.00    +0.295 HD
ENDBRANCH  21  22
ENDBRANCH  18  21
ENDBRANCH  15  18
ENDBRANCH   1  16
BRANCH   1  24
ATOM     24  CB  UNL     1      34.702 -24.250 -12.635  0.00  0.00    +0.055 C 
BRANCH  24  25
ATOM     25  CG  UNL     1      36.176 -24.551 -12.757  0.00  0.00    -0.020 C 
ATOM     26  CD1 UNL     1      37.101 -23.822 -12.011  0.00  0.00    -0.004 C 
ATOM     27  CD2 UNL     1      36.613 -25.561 -13.615  0.00  0.00    -0.004 C 
ATOM     28  CE1 UNL     1      38.463 -24.100 -12.123  0.00  0.00    -0.000 C 
ATOM     29  CE2 UNL     1      37.975 -25.840 -13.727  0.00  0.00    -0.000 C 
ATOM     30  CZ  UNL     1      38.900 -25.109 -12.981  0.00  0.00    -0.000 C 
ENDBRANCH  24  25
ENDBRANCH   1  24
TORSDOF 13
ENDMDL
MODEL 8
REMARK VINA RESULT:      -7.9      2.453      5.793
REMARK  Name = 5289469
REMARK  13 active torsions:
REMARK  status: ('A' for Active; 'I' for Inactive)
REMARK    1  A    between atoms: CA_1  and  N_3
REMARK    2  A    between atoms: CA_1  and  C_16
REMARK    3  A    between atoms: CA_1  and  CB_24
REMARK    4  A    between atoms: C_4  and  C_6
REMARK    5  A    between atoms: C_6  and  S_7
REMARK    6  A    between atoms: C_6  and  C_9
REMARK    7  A    between atoms: C_9  and  C_10
REMARK    8  A    between atoms: C_10  and  C_11
REMARK    9  A    between atoms: C_11  and  C_12
REMARK   10  A    between atoms: N_15  and  CA_18
REMARK   11  A    between atoms: CA_18  and  C_21
REMARK   12  A    between atoms: C_21  and  O_22
REMARK   13  A    between atoms: CB_24  and  CG_25
REMARK                            x       y       z     vdW  Elec       q    Type
REMARK                         _______ _______ _______ _____ _____    ______ ____
ROOT
ATOM      1  CA  UNL     1      35.319 -23.508 -15.964  0.00  0.00    +0.153 C 
ENDROOT
BRANCH   1   3
ATOM      2  O   UNL     1      35.850 -26.305 -15.557  0.00  0.00    -0.274 OA
ATOM      3  N   UNL     1      36.485 -24.084 -15.336  0.00  0.00    -0.297 N 
ATOM      4  C   ACE A   0      36.655 -25.453 -15.183  0.00  0.00    +0.232 C 
ATOM      5  H   UNL     1      37.188 -23.481 -15.001  0.00  0.00    +0.150 HD
BRANCH   4   6
ATOM      6  C   UNL     1      37.981 -25.809 -14.518  0.00  0.00    +0.120 C 
BRANCH   6   7
ATOM      7  S   UNL     1      39.249 -24.639 -15.115  0.00  0.00    -0.160 S 
ATOM      8  H   UNL     1      38.681 -23.757 -15.982  0.00  0.00    +0.103 HD
ENDBRANCH   6   7
BRANCH   6   9
ATOM      9  C   UNL     1      37.805 -25.775 -12.994  0.00  0.00    +0.020 C 
BRANCH   9  10
ATOM     10  C   UNL     1      38.328 -24.521 -12.278  0.00  0.00    +0.001 C 
BRANCH  10  11
ATOM     11  C   UNL     1      37.241 -23.481 -12.000  0.00  0.00    +0.000 C 
BRANCH  11  12
ATOM     12  C   UNL     1      35.876 -24.145 -11.809  0.00  0.00    +0.000 C 
ATOM     13  C   UNL     1      35.616 -24.471 -10.347  0.00  0.00    +0.000 C 
ENDBRANCH  11  12
ENDBRANCH  10  11
ENDBRANCH   9  10
ENDBRANCH   6   9
ENDBRANCH   4   6
ENDBRANCH   1   3
BRANCH   1  16
ATOM     14  O   UNL     1      36.885 -21.868 -16.818  0.00  0.00    -0.273 OA
ATOM     15  N   UNL     1      34.933 -22.277 -18.007  0.00  0.00    -0.295 N 
ATOM     16  C   UNL     1      35.812 -22.451 -16.946  0.00  0.00    +0.241 C 
ATOM     17  H   UNL     1      34.097 -22.797 -18.011  0.00  0.00    +0.150 HD
BRANCH  15  18
ATOM     18  CA  UNL     1      35.183 -21.371 -19.104  0.00  0.00    +0.171 C 
ATOM     19  CB  UNL     1      36.252 -21.931 -20.027  0.00  0.00    +0.033 C 
BRANCH  18  21
ATOM     20  OXT UNL     1      33.821 -20.130 -20.668  0.00  0.00    -0.248 OA
ATOM     21  C   UNL     1      33.915 -21.069 -19.885  0.00  0.00    +0.332 C 
BRANCH  21  22
ATOM     22  O   UNL     1      32.884 -21.913 -19.640  0.00  0.00    -0.479 OA
ATOM     23  H   UNL     1      32.007 -21.654 -19.846  0.00  0.00    +0.295 HD
ENDBRANCH  21  22
ENDBRANCH  18  21
ENDBRANCH  15  18
ENDBRANCH   1  16
BRANCH   1  24
ATOM     24  CB  UNL     1      34.360 -22.884 -14.945  0.00  0.00    +0.055 C 
BRANCH  24  25
ATOM     25  CG  UNL     1      33.026 -23.587 -14.889  0.00  0.00    -0.020 C 
ATOM     26  CD1 UNL     1      32.069 -23.347 -15.874  0.00  0.00    -0.004 C 
ATOM     27  CD2 UNL     1      32.751 -24.480 -13.852  0.00  0.00    -0.004 C 
ATOM     28  CE1 UNL     1      30.836 -23.997 -15.823  0.00  0.00    -0.000 C 
ATOM     29  CE2 UNL     1      31.518 -25.130 -13.801  0.00  0.00    -0.000 C 
ATOM     30  CZ  UNL     1      30.561 -24.888 -14.786  0.00  0.00    -0.000 C 
ENDBRANCH  24  25
ENDBRANCH   1  24
TORSDOF 13
ENDMDL
MODEL 9
REMARK VINA RESULT:      -7.9     13.008     16.142
REMARK  Name = 5289469
REMARK  13 active torsions:
REMARK  status: ('A' for Active; 'I' for Inactive)
REMARK    1  A    between atoms: CA_1  and  N_3
REMARK    2  A    between atoms: CA_1  and  C_16
REMARK    3  A    between atoms: CA_1  and  CB_24
REMARK    4  A    between atoms: C_4  and  C_6
REMARK    5  A    between atoms: C_6  and  S_7
REMARK    6  A    between atoms: C_6  and  C_9
REMARK    7  A    between atoms: C_9  and  C_10
REMARK    8  A    between atoms: C_10  and  C_11
REMARK    9  A    between atoms: C_11  and  C_12
REMARK   10  A    between atoms: N_15  and  CA_18
REMARK   11  A    between atoms: CA_18  and  C_21
REMARK   12  A    between atoms: C_21  and  O_22
REMARK   13  A    between atoms: CB_24  and  CG_25
REMARK                            x       y       z     vdW  Elec       q    Type
REMARK                         _______ _______ _______ _____ _____    ______ ____
ROOT
ATOM      1  CA  UNL     1      33.059 -10.277 -23.894  0.00  0.00    +0.153 C 
ENDROOT
BRANCH   1   3
ATOM      2  O   UNL     1      30.534  -9.855 -22.585  0.00  0.00    -0.274 OA
ATOM      3  N   UNL     1      32.553 -10.987 -22.743  0.00  0.00    -0.297 N 
ATOM      4  C   ACE A   0      31.316 -10.713 -22.177  0.00  0.00    +0.232 C 
ATOM      5  H   UNL     1      33.109 -11.695 -22.343  0.00  0.00    +0.150 HD
BRANCH   4   6
ATOM      6  C   UNL     1      30.999 -11.620 -20.993  0.00  0.00    +0.120 C 
BRANCH   6   7
ATOM      7  S   UNL     1      32.215 -12.982 -20.977  0.00  0.00    -0.160 S 
ATOM      8  H   UNL     1      31.893 -13.889 -21.938  0.00  0.00    +0.103 HD
ENDBRANCH   6   7
BRANCH   6   9
ATOM      9  C   UNL     1      31.015 -10.788 -19.703  0.00  0.00    +0.020 C 
BRANCH   9  10
ATOM     10  C   UNL     1      32.218  -9.855 -19.512  0.00  0.00    +0.001 C 
BRANCH  10  11
ATOM     11  C   UNL     1      31.842  -8.372 -19.484  0.00  0.00    +0.000 C 
BRANCH  11  12
ATOM     12  C   UNL     1      32.746  -7.556 -20.409  0.00  0.00    +0.000 C 
ATOM     13  C   UNL     1      32.070  -6.268 -20.853  0.00  0.00    +0.000 C 
ENDBRANCH  11  12
ENDBRANCH  10  11
ENDBRANCH   9  10
ENDBRANCH   6   9
ENDBRANCH   4   6
ENDBRANCH   1   3
BRANCH   1  16
ATOM     14  O   UNL     1      34.768 -10.988 -25.459  0.00  0.00    -0.273 OA
ATOM     15  N   UNL     1      33.298 -12.572 -24.609  0.00  0.00    -0.295 N 
ATOM     16  C   UNL     1      33.805 -11.288 -24.757  0.00  0.00    +0.241 C 
ATOM     17  H   UNL     1      32.520 -12.702 -24.020  0.00  0.00    +0.150 HD
BRANCH  15  18
ATOM     18  CA  UNL     1      33.854 -13.727 -25.276  0.00  0.00    +0.171 C 
ATOM     19  CB  UNL     1      33.691 -14.971 -24.418  0.00  0.00    +0.033 C 
BRANCH  18  21
ATOM     20  OXT UNL     1      33.772 -13.604 -27.689  0.00  0.00    -0.248 OA
ATOM     21  C   UNL     1      33.227 -13.942 -26.644  0.00  0.00    +0.332 C 
BRANCH  21  22
ATOM     22  O   UNL     1      32.007 -14.528 -26.622  0.00  0.00    -0.479 OA
ATOM     23  H   UNL     1      31.636 -14.807 -25.807  0.00  0.00    +0.295 HD
ENDBRANCH  21  22
ENDBRANCH  18  21
ENDBRANCH  15  18
ENDBRANCH   1  16
BRANCH   1  24
ATOM     24  CB  UNL     1      33.989  -9.124 -23.501  0.00  0.00    +0.055 C 
BRANCH  24  25
ATOM     25  CG  UNL     1      33.602  -7.815 -24.144  0.00  0.00    -0.020 C 
ATOM     26  CD1 UNL     1      34.556  -7.066 -24.832  0.00  0.00    -0.004 C 
ATOM     27  CD2 UNL     1      32.287  -7.355 -24.054  0.00  0.00    -0.004 C 
ATOM     28  CE1 UNL     1      34.198  -5.856 -25.427  0.00  0.00    -0.000 C 
ATOM     29  CE2 UNL     1      31.929  -6.145 -24.649  0.00  0.00    -0.000 C 
ATOM     30  CZ  UNL     1      32.885  -5.396 -25.335  0.00  0.00    -0.000 C 
ENDBRANCH  24  25
ENDBRANCH   1  24
TORSDOF 13
ENDMDL
