MODEL 1
REMARK VINA RESULT:      -7.6      0.000      0.000
REMARK  Name = 95034
REMARK  1 active torsions:
REMARK  status: ('A' for Active; 'I' for Inactive)
REMARK    1  A    between atoms: N_7  and  C_12
REMARK                            x       y       z     vdW  Elec       q    Type
REMARK                         _______ _______ _______ _____ _____    ______ ____
ROOT
ATOM      1  O   UNL     1      36.561 -25.989 -11.834  0.00  0.00    -0.265 OA
ATOM      2  O   UNL     1      35.227 -22.537 -14.723  0.00  0.00    -0.246 OA
ATOM      3  N   UNL     1      37.273 -23.573 -15.118  0.00  0.00    -0.266 N 
ATOM      4  N   UNL     1      35.868 -24.256 -13.267  0.00  0.00    -0.246 N 
ATOM      5  N   UNL     1      39.016 -26.158 -13.522  0.00  0.00    -0.300 N 
ATOM      6  N   UNL     1      39.374 -24.843 -15.287  0.00  0.00    -0.292 N 
ATOM      7  C   UNL     1      37.928 -25.339 -13.615  0.00  0.00    +0.134 A 
ATOM      8  C   UNL     1      38.172 -24.546 -14.703  0.00  0.00    +0.133 A 
ATOM      9  C   UNL     1      36.756 -25.263 -12.804  0.00  0.00    +0.280 A 
ATOM     10  C   UNL     1      36.064 -23.388 -14.401  0.00  0.00    +0.335 A 
ATOM     11  C   UNL     1      39.859 -25.821 -14.550  0.00  0.00    +0.205 C 
ATOM     12  C   UNL     1      37.577 -22.752 -16.283  0.00  0.00    +0.136 C 
ATOM     13  C   UNL     1      34.629 -24.082 -12.517  0.00  0.00    +0.138 C 
ATOM     14  H   UNL     1      39.168 -26.857 -12.846  0.00  0.00    +0.150 HD
ATOM     15  H   UNL     1      39.782 -24.423 -16.078  0.00  0.00    +0.151 HD
ENDROOT
BRANCH  11  16
ATOM     16  N   UNL     1      41.022 -26.500 -14.671  0.00  0.00    -0.291 NA
ATOM     17  H   UNL     1      41.877 -26.048 -14.487  0.00  0.00    +0.122 HD
ATOM     18  H   UNL     1      41.013 -27.446 -14.944  0.00  0.00    +0.122 HD
ENDBRANCH  11  16
TORSDOF 1
ENDMDL
MODEL 2
REMARK VINA RESULT:      -7.5     10.923     13.150
REMARK  Name = 95034
REMARK  1 active torsions:
REMARK  status: ('A' for Active; 'I' for Inactive)
REMARK    1  A    between atoms: N_7  and  C_12
REMARK                            x       y       z     vdW  Elec       q    Type
REMARK                         _______ _______ _______ _____ _____    ______ ____
ROOT
ATOM      1  O   UNL     1      34.800 -16.815 -25.799  0.00  0.00    -0.265 OA
ATOM      2  O   UNL     1      32.402 -13.609 -23.346  0.00  0.00    -0.246 OA
ATOM      3  N   UNL     1      33.657 -15.179 -22.174  0.00  0.00    -0.266 N 
ATOM      4  N   UNL     1      33.588 -15.197 -24.594  0.00  0.00    -0.246 N 
ATOM      5  N   UNL     1      35.695 -17.856 -23.149  0.00  0.00    -0.300 N 
ATOM      6  N   UNL     1      35.064 -16.954 -21.211  0.00  0.00    -0.292 N 
ATOM      7  C   UNL     1      34.874 -16.811 -23.463  0.00  0.00    +0.134 A 
ATOM      8  C   UNL     1      34.503 -16.276 -22.260  0.00  0.00    +0.133 A 
ATOM      9  C   UNL     1      34.449 -16.318 -24.733  0.00  0.00    +0.280 A 
ATOM     10  C   UNL     1      33.159 -14.587 -23.361  0.00  0.00    +0.335 A 
ATOM     11  C   UNL     1      35.778 -17.902 -21.782  0.00  0.00    +0.205 C 
ATOM     12  C   UNL     1      33.291 -14.645 -20.868  0.00  0.00    +0.136 C 
ATOM     13  C   UNL     1      33.086 -14.601 -25.828  0.00  0.00    +0.138 C 
ATOM     14  H   UNL     1      36.141 -18.462 -23.784  0.00  0.00    +0.150 HD
ATOM     15  H   UNL     1      34.959 -16.774 -20.249  0.00  0.00    +0.151 HD
ENDROOT
BRANCH  11  16
ATOM     16  N   UNL     1      36.542 -18.866 -21.220  0.00  0.00    -0.291 NA
ATOM     17  H   UNL     1      37.523 -18.783 -21.229  0.00  0.00    +0.122 HD
ATOM     18  H   UNL     1      36.117 -19.650 -20.802  0.00  0.00    +0.122 HD
ENDBRANCH  11  16
TORSDOF 1
ENDMDL
MODEL 3
REMARK VINA RESULT:      -7.3     10.644     13.063
REMARK  Name = 95034
REMARK  1 active torsions:
REMARK  status: ('A' for Active; 'I' for Inactive)
REMARK    1  A    between atoms: N_7  and  C_12
REMARK                            x       y       z     vdW  Elec       q    Type
REMARK                         _______ _______ _______ _____ _____    ______ ____
ROOT
ATOM      1  O   UNL     1      35.068 -19.364 -24.015  0.00  0.00    -0.265 OA
ATOM      2  O   UNL     1      35.230 -16.634 -20.199  0.00  0.00    -0.246 OA
ATOM      3  N   UNL     1      34.494 -15.692 -22.195  0.00  0.00    -0.266 N 
ATOM      4  N   UNL     1      35.159 -18.018 -22.087  0.00  0.00    -0.246 N 
ATOM      5  N   UNL     1      34.064 -16.941 -25.439  0.00  0.00    -0.300 N 
ATOM      6  N   UNL     1      33.764 -14.975 -24.433  0.00  0.00    -0.292 N 
ATOM      7  C   UNL     1      34.425 -17.120 -24.135  0.00  0.00    +0.134 A 
ATOM      8  C   UNL     1      34.231 -15.903 -23.542  0.00  0.00    +0.133 A 
ATOM      9  C   UNL     1      34.905 -18.282 -23.460  0.00  0.00    +0.280 A 
ATOM     10  C   UNL     1      34.977 -16.762 -21.403  0.00  0.00    +0.335 A 
ATOM     11  C   UNL     1      33.674 -15.634 -25.570  0.00  0.00    +0.205 C 
ATOM     12  C   UNL     1      34.272 -14.376 -21.609  0.00  0.00    +0.136 C 
ATOM     13  C   UNL     1      35.655 -19.133 -21.287  0.00  0.00    +0.138 C 
ATOM     14  H   UNL     1      34.081 -17.621 -26.150  0.00  0.00    +0.150 HD
ATOM     15  H   UNL     1      33.544 -14.030 -24.264  0.00  0.00    +0.151 HD
ENDROOT
BRANCH  11  16
ATOM     16  N   UNL     1      33.266 -15.207 -26.786  0.00  0.00    -0.291 NA
ATOM     17  H   UNL     1      33.913 -15.138 -27.526  0.00  0.00    +0.122 HD
ATOM     18  H   UNL     1      32.323 -14.965 -26.932  0.00  0.00    +0.122 HD
ENDBRANCH  11  16
TORSDOF 1
ENDMDL
MODEL 4
REMARK VINA RESULT:      -7.3      9.946     12.179
REMARK  Name = 95034
REMARK  1 active torsions:
REMARK  status: ('A' for Active; 'I' for Inactive)
REMARK    1  A    between atoms: N_7  and  C_12
REMARK                            x       y       z     vdW  Elec       q    Type
REMARK                         _______ _______ _______ _____ _____    ______ ____
ROOT
ATOM      1  O   UNL     1      34.659 -14.707 -20.724  0.00  0.00    -0.265 OA
ATOM      2  O   UNL     1      33.716 -15.401 -25.270  0.00  0.00    -0.246 OA
ATOM      3  N   UNL     1      34.498 -17.202 -24.022  0.00  0.00    -0.266 N 
ATOM      4  N   UNL     1      34.179 -15.027 -23.005  0.00  0.00    -0.246 N 
ATOM      5  N   UNL     1      35.431 -17.589 -20.668  0.00  0.00    -0.300 N 
ATOM      6  N   UNL     1      35.334 -18.910 -22.460  0.00  0.00    -0.292 N 
ATOM      7  C   UNL     1      34.974 -16.811 -21.692  0.00  0.00    +0.134 A 
ATOM      8  C   UNL     1      34.923 -17.643 -22.776  0.00  0.00    +0.133 A 
ATOM      9  C   UNL     1      34.606 -15.432 -21.712  0.00  0.00    +0.280 A 
ATOM     10  C   UNL     1      34.102 -15.851 -24.185  0.00  0.00    +0.335 A 
ATOM     11  C   UNL     1      35.634 -18.844 -21.180  0.00  0.00    +0.205 C 
ATOM     12  C   UNL     1      34.461 -18.128 -25.147  0.00  0.00    +0.136 C 
ATOM     13  C   UNL     1      33.774 -13.633 -23.153  0.00  0.00    +0.138 C 
ATOM     14  H   UNL     1      35.587 -17.303 -19.739  0.00  0.00    +0.150 HD
ATOM     15  H   UNL     1      35.392 -19.693 -23.054  0.00  0.00    +0.151 HD
ENDROOT
BRANCH  11  16
ATOM     16  N   UNL     1      36.094 -19.807 -20.348  0.00  0.00    -0.291 NA
ATOM     17  H   UNL     1      35.839 -19.798 -19.398  0.00  0.00    +0.122 HD
ATOM     18  H   UNL     1      36.683 -20.516 -20.695  0.00  0.00    +0.122 HD
ENDBRANCH  11  16
TORSDOF 1
ENDMDL
MODEL 5
REMARK VINA RESULT:      -7.3     12.002     14.216
REMARK  Name = 95034
REMARK  1 active torsions:
REMARK  status: ('A' for Active; 'I' for Inactive)
REMARK    1  A    between atoms: N_7  and  C_12
REMARK                            x       y       z     vdW  Elec       q    Type
REMARK                         _______ _______ _______ _____ _____    ______ ____
ROOT
ATOM      1  O   UNL     1      34.622 -16.750 -21.131  0.00  0.00    -0.265 OA
ATOM      2  O   UNL     1      34.818 -17.142 -25.806  0.00  0.00    -0.246 OA
ATOM      3  N   UNL     1      33.620 -15.364 -24.900  0.00  0.00    -0.266 N 
ATOM      4  N   UNL     1      34.736 -16.970 -23.471  0.00  0.00    -0.246 N 
ATOM      5  N   UNL     1      32.957 -14.322 -21.622  0.00  0.00    -0.300 N 
ATOM      6  N   UNL     1      32.433 -13.597 -23.664  0.00  0.00    -0.292 N 
ATOM      7  C   UNL     1      33.538 -15.194 -22.498  0.00  0.00    +0.134 A 
ATOM      8  C   UNL     1      33.203 -14.727 -23.739  0.00  0.00    +0.133 A 
ATOM      9  C   UNL     1      34.333 -16.354 -22.256  0.00  0.00    +0.280 A 
ATOM     10  C   UNL     1      34.418 -16.532 -24.807  0.00  0.00    +0.335 A 
ATOM     11  C   UNL     1      32.303 -13.379 -22.372  0.00  0.00    +0.205 C 
ATOM     12  C   UNL     1      33.237 -14.828 -26.200  0.00  0.00    +0.136 C 
ATOM     13  C   UNL     1      35.558 -18.170 -23.355  0.00  0.00    +0.138 C 
ATOM     14  H   UNL     1      33.000 -14.363 -20.639  0.00  0.00    +0.150 HD
ATOM     15  H   UNL     1      32.063 -13.068 -24.407  0.00  0.00    +0.151 HD
ENDROOT
BRANCH  11  16
ATOM     16  N   UNL     1      31.641 -12.394 -21.724  0.00  0.00    -0.291 NA
ATOM     17  H   UNL     1      31.876 -12.173 -20.794  0.00  0.00    +0.122 HD
ATOM     18  H   UNL     1      30.924 -11.899 -22.183  0.00  0.00    +0.122 HD
ENDBRANCH  11  16
TORSDOF 1
ENDMDL
MODEL 6
REMARK VINA RESULT:      -7.2      1.795      4.171
REMARK  Name = 95034
REMARK  1 active torsions:
REMARK  status: ('A' for Active; 'I' for Inactive)
REMARK    1  A    between atoms: N_7  and  C_12
REMARK                            x       y       z     vdW  Elec       q    Type
REMARK                         _______ _______ _______ _____ _____    ______ ____
ROOT
ATOM      1  O   UNL     1      36.949 -26.205 -12.062  0.00  0.00    -0.265 OA
ATOM      2  O   UNL     1      39.076 -23.834 -15.512  0.00  0.00    -0.246 OA
ATOM      3  N   UNL     1      36.825 -23.403 -15.106  0.00  0.00    -0.266 N 
ATOM      4  N   UNL     1      38.039 -25.030 -13.785  0.00  0.00    -0.246 N 
ATOM      5  N   UNL     1      34.503 -24.665 -12.806  0.00  0.00    -0.300 N 
ATOM      6  N   UNL     1      34.465 -23.161 -14.451  0.00  0.00    -0.292 N 
ATOM      7  C   UNL     1      35.764 -24.639 -13.329  0.00  0.00    +0.134 A 
ATOM      8  C   UNL     1      35.713 -23.710 -14.333  0.00  0.00    +0.133 A 
ATOM      9  C   UNL     1      36.930 -25.379 -12.969  0.00  0.00    +0.280 A 
ATOM     10  C   UNL     1      38.053 -24.065 -14.855  0.00  0.00    +0.335 A 
ATOM     11  C   UNL     1      33.758 -23.759 -13.515  0.00  0.00    +0.205 C 
ATOM     12  C   UNL     1      36.721 -22.406 -16.164  0.00  0.00    +0.136 C 
ATOM     13  C   UNL     1      39.295 -25.721 -13.512  0.00  0.00    +0.138 C 
ATOM     14  H   UNL     1      34.189 -25.228 -12.062  0.00  0.00    +0.150 HD
ATOM     15  H   UNL     1      34.164 -22.474 -15.089  0.00  0.00    +0.151 HD
ENDROOT
BRANCH  11  16
ATOM     16  N   UNL     1      32.457 -23.601 -13.181  0.00  0.00    -0.291 NA
ATOM     17  H   UNL     1      32.188 -23.607 -12.234  0.00  0.00    +0.122 HD
ATOM     18  H   UNL     1      31.780 -23.479 -13.885  0.00  0.00    +0.122 HD
ENDBRANCH  11  16
TORSDOF 1
ENDMDL
MODEL 7
REMARK VINA RESULT:      -7.1     10.511     12.956
REMARK  Name = 95034
REMARK  1 active torsions:
REMARK  status: ('A' for Active; 'I' for Inactive)
REMARK    1  A    between atoms: N_7  and  C_12
REMARK                            x       y       z     vdW  Elec       q    Type
REMARK                         _______ _______ _______ _____ _____    ______ ____
ROOT
ATOM      1  O   UNL     1      35.116 -16.311 -20.122  0.00  0.00    -0.265 OA
ATOM      2  O   UNL     1      34.960 -19.472 -23.590  0.00  0.00    -0.246 OA
ATOM      3  N   UNL     1      34.505 -17.249 -24.106  0.00  0.00    -0.266 N 
ATOM      4  N   UNL     1      35.044 -17.916 -21.841  0.00  0.00    -0.246 N 
ATOM      5  N   UNL     1      34.394 -14.305 -22.211  0.00  0.00    -0.300 N 
ATOM      6  N   UNL     1      34.071 -14.839 -24.351  0.00  0.00    -0.292 N 
ATOM      7  C   UNL     1      34.592 -15.653 -22.303  0.00  0.00    +0.134 A 
ATOM      8  C   UNL     1      34.389 -15.953 -23.622  0.00  0.00    +0.133 A 
ATOM      9  C   UNL     1      34.937 -16.607 -21.299  0.00  0.00    +0.280 A 
ATOM     10  C   UNL     1      34.843 -18.299 -23.216  0.00  0.00    +0.335 A 
ATOM     11  C   UNL     1      34.082 -13.861 -23.469  0.00  0.00    +0.205 C 
ATOM     12  C   UNL     1      34.279 -17.519 -25.521  0.00  0.00    +0.136 C 
ATOM     13  C   UNL     1      35.395 -18.983 -20.910  0.00  0.00    +0.138 C 
ATOM     14  H   UNL     1      34.462 -13.757 -21.396  0.00  0.00    +0.150 HD
ATOM     15  H   UNL     1      33.879 -14.782 -25.315  0.00  0.00    +0.151 HD
ENDROOT
BRANCH  11  16
ATOM     16  N   UNL     1      33.838 -12.542 -23.639  0.00  0.00    -0.291 NA
ATOM     17  H   UNL     1      33.740 -11.955 -22.855  0.00  0.00    +0.122 HD
ATOM     18  H   UNL     1      33.758 -12.169 -24.547  0.00  0.00    +0.122 HD
ENDBRANCH  11  16
TORSDOF 1
ENDMDL
MODEL 8
REMARK VINA RESULT:      -7.0      2.330      4.728
REMARK  Name = 95034
REMARK  1 active torsions:
REMARK  status: ('A' for Active; 'I' for Inactive)
REMARK    1  A    between atoms: N_7  and  C_12
REMARK                            x       y       z     vdW  Elec       q    Type
REMARK                         _______ _______ _______ _____ _____    ______ ____
ROOT
ATOM      1  O   UNL     1      36.317 -26.538 -15.727  0.00  0.00    -0.265 OA
ATOM      2  O   UNL     1      39.236 -24.289 -12.817  0.00  0.00    -0.246 OA
ATOM      3  N   UNL     1      36.960 -23.831 -12.663  0.00  0.00    -0.266 N 
ATOM      4  N   UNL     1      37.802 -25.425 -14.280  0.00  0.00    -0.246 N 
ATOM      5  N   UNL     1      34.141 -25.003 -14.381  0.00  0.00    -0.300 N 
ATOM      6  N   UNL     1      34.516 -23.550 -12.731  0.00  0.00    -0.292 N 
ATOM      7  C   UNL     1      35.490 -25.001 -14.172  0.00  0.00    +0.134 A 
ATOM      8  C   UNL     1      35.693 -24.105 -13.158  0.00  0.00    +0.133 A 
ATOM      9  C   UNL     1      36.527 -25.738 -14.821  0.00  0.00    +0.280 A 
ATOM     10  C   UNL     1      38.084 -24.494 -13.216  0.00  0.00    +0.335 A 
ATOM     11  C   UNL     1      33.598 -24.113 -13.490  0.00  0.00    +0.205 C 
ATOM     12  C   UNL     1      37.125 -22.868 -11.581  0.00  0.00    +0.136 C 
ATOM     13  C   UNL     1      38.947 -26.118 -14.862  0.00  0.00    +0.138 C 
ATOM     14  H   UNL     1      33.651 -25.539 -15.044  0.00  0.00    +0.150 HD
ATOM     15  H   UNL     1      34.385 -22.883 -12.019  0.00  0.00    +0.151 HD
ENDROOT
BRANCH  11  16
ATOM     16  N   UNL     1      32.258 -23.935 -13.501  0.00  0.00    -0.291 NA
ATOM     17  H   UNL     1      31.864 -23.200 -14.023  0.00  0.00    +0.122 HD
ATOM     18  H   UNL     1      31.677 -24.542 -12.986  0.00  0.00    +0.122 HD
ENDBRANCH  11  16
TORSDOF 1
ENDMDL
MODEL 9
REMARK VINA RESULT:      -6.8     11.601     13.868
REMARK  Name = 95034
REMARK  1 active torsions:
REMARK  status: ('A' for Active; 'I' for Inactive)
REMARK    1  A    between atoms: N_7  and  C_12
REMARK                            x       y       z     vdW  Elec       q    Type
REMARK                         _______ _______ _______ _____ _____    ______ ____
ROOT
ATOM      1  O   UNL     1      34.359 -17.002 -25.873  0.00  0.00    -0.265 OA
ATOM      2  O   UNL     1      35.069 -18.265 -21.406  0.00  0.00    -0.246 OA
ATOM      3  N   UNL     1      34.561 -16.038 -21.853  0.00  0.00    -0.266 N 
ATOM      4  N   UNL     1      34.719 -17.662 -23.643  0.00  0.00    -0.246 N 
ATOM      5  N   UNL     1      33.898 -14.257 -24.795  0.00  0.00    -0.300 N 
ATOM      6  N   UNL     1      34.013 -13.766 -22.624  0.00  0.00    -0.292 N 
ATOM      7  C   UNL     1      34.205 -15.424 -24.155  0.00  0.00    +0.134 A 
ATOM      8  C   UNL     1      34.268 -15.096 -22.829  0.00  0.00    +0.133 A 
ATOM      9  C   UNL     1      34.424 -16.734 -24.677  0.00  0.00    +0.280 A 
ATOM     10  C   UNL     1      34.802 -17.382 -22.231  0.00  0.00    +0.335 A 
ATOM     11  C   UNL     1      33.793 -13.288 -23.831  0.00  0.00    +0.205 C 
ATOM     12  C   UNL     1      34.617 -15.640 -20.452  0.00  0.00    +0.136 C 
ATOM     13  C   UNL     1      34.963 -19.041 -24.051  0.00  0.00    +0.138 C 
ATOM     14  H   UNL     1      33.776 -14.135 -25.764  0.00  0.00    +0.150 HD
ATOM     15  H   UNL     1      33.996 -13.279 -21.769  0.00  0.00    +0.151 HD
ENDROOT
BRANCH  11  16
ATOM     16  N   UNL     1      33.493 -12.029 -24.221  0.00  0.00    -0.291 NA
ATOM     17  H   UNL     1      34.205 -11.432 -24.546  0.00  0.00    +0.122 HD
ATOM     18  H   UNL     1      32.562 -11.710 -24.180  0.00  0.00    +0.122 HD
ENDBRANCH  11  16
TORSDOF 1
ENDMDL
