MODEL 1
REMARK VINA RESULT:     -10.1      0.000      0.000
REMARK  Name = 5288792
REMARK  6 active torsions:
REMARK  status: ('A' for Active; 'I' for Inactive)
REMARK    1  A    between atoms: C_3  and  N_25
REMARK    2  A    between atoms: C_10  and  C_14
REMARK    3  A    between atoms: N_13  and  C_17
REMARK    4  A    between atoms: C_16  and  N_20
REMARK    5  A    between atoms: N_25  and  C_26
REMARK    6  A    between atoms: N_25  and  C_28
REMARK                            x       y       z     vdW  Elec       q    Type
REMARK                         _______ _______ _______ _____ _____    ______ ____
ROOT
ATOM      1  O   UNL     1      36.352 -21.215 -18.885  0.00  0.00    -0.421 OA
ATOM      2  O   UNL     1      36.954 -22.501 -17.096  0.00  0.00    -0.244 OA
ATOM      3  C   UNL     1      34.751 -19.378 -21.635  0.00  0.00    +0.051 C 
ATOM      4  C   UNL     1      34.025 -21.145 -19.585  0.00  0.00    +0.035 C 
ATOM      5  C   UNL     1      35.724 -19.863 -20.764  0.00  0.00    +0.052 C 
ATOM      6  C   UNL     1      35.346 -20.742 -19.750  0.00  0.00    +0.150 C 
ATOM      7  C   UNL     1      33.420 -19.772 -21.485  0.00  0.00    +0.015 C 
ATOM      8  C   UNL     1      33.056 -20.655 -20.463  0.00  0.00    +0.004 C 
ATOM      9  C   UNL     1      33.699 -22.064 -18.506  0.00  0.00    +0.014 C 
ATOM     10  C   UNL     1      34.659 -22.511 -17.688  0.00  0.00    +0.130 C 
ATOM     11  C   UNL     1      36.072 -22.095 -17.844  0.00  0.00    +0.350 C 
ENDROOT
BRANCH  10  14
ATOM     12  O   UNL     1      33.664 -24.489 -16.905  0.00  0.00    -0.270 OA
ATOM     13  N   UNL     1      34.545 -22.975 -15.359  0.00  0.00    -0.278 N 
ATOM     14  C   UNL     1      34.232 -23.434 -16.629  0.00  0.00    +0.256 C 
ATOM     15  H   UNL     1      35.004 -22.107 -15.280  0.00  0.00    +0.155 HD
BRANCH  13  17
ATOM     16  C   UNL     1      35.128 -24.468 -13.616  0.00  0.00    +0.091 C 
ATOM     17  C   UNL     1      34.253 -23.655 -14.214  0.00  0.00    +0.081 C 
BRANCH  16  20
ATOM     18  O   UNL     1      37.522 -22.969 -12.973  0.00  0.00    -0.269 OA
ATOM     19  O   UNL     1      35.937 -26.511 -15.503  0.00  0.00    -0.269 OA
ATOM     20  N   UNL     1      36.381 -24.681 -14.102  0.00  0.00    -0.199 N 
ATOM     21  C   UNL     1      38.685 -24.477 -14.443  0.00  0.00    +0.063 C 
ATOM     22  C   UNL     1      38.150 -25.581 -15.338  0.00  0.00    +0.063 C 
ATOM     23  C   UNL     1      37.480 -23.923 -13.739  0.00  0.00    +0.259 C 
ATOM     24  C   UNL     1      36.687 -25.678 -15.010  0.00  0.00    +0.259 C 
ENDBRANCH  16  20
ENDBRANCH  13  17
ENDBRANCH  10  14
BRANCH   3  25
ATOM     25  N   UNL     1      35.110 -18.488 -22.669  0.00  0.00    -0.307 N 
BRANCH  25  26
ATOM     26  C   UNL     1      34.967 -18.880 -24.057  0.00  0.00    +0.091 C 
ATOM     27  C   UNL     1      34.637 -17.670 -24.910  0.00  0.00    +0.023 C 
ENDBRANCH  25  26
BRANCH  25  28
ATOM     28  C   UNL     1      35.638 -17.175 -22.356  0.00  0.00    +0.091 C 
ATOM     29  C   UNL     1      34.716 -16.457 -21.390  0.00  0.00    +0.023 C 
ENDBRANCH  25  28
ENDBRANCH   3  25
TORSDOF 6
ENDMDL
MODEL 2
REMARK VINA RESULT:     -10.1      0.053      1.872
REMARK  Name = 5288792
REMARK  6 active torsions:
REMARK  status: ('A' for Active; 'I' for Inactive)
REMARK    1  A    between atoms: C_3  and  N_25
REMARK    2  A    between atoms: C_10  and  C_14
REMARK    3  A    between atoms: N_13  and  C_17
REMARK    4  A    between atoms: C_16  and  N_20
REMARK    5  A    between atoms: N_25  and  C_26
REMARK    6  A    between atoms: N_25  and  C_28
REMARK                            x       y       z     vdW  Elec       q    Type
REMARK                         _______ _______ _______ _____ _____    ______ ____
ROOT
ATOM      1  O   UNL     1      36.335 -21.181 -18.904  0.00  0.00    -0.421 OA
ATOM      2  O   UNL     1      36.932 -22.474 -17.118  0.00  0.00    -0.244 OA
ATOM      3  C   UNL     1      34.742 -19.337 -21.654  0.00  0.00    +0.051 C 
ATOM      4  C   UNL     1      34.012 -21.119 -19.618  0.00  0.00    +0.035 C 
ATOM      5  C   UNL     1      35.711 -19.822 -20.780  0.00  0.00    +0.052 C 
ATOM      6  C   UNL     1      35.331 -20.708 -19.773  0.00  0.00    +0.150 C 
ATOM      7  C   UNL     1      33.411 -19.739 -21.514  0.00  0.00    +0.015 C 
ATOM      8  C   UNL     1      33.045 -20.629 -20.500  0.00  0.00    +0.004 C 
ATOM      9  C   UNL     1      33.684 -22.046 -18.546  0.00  0.00    +0.014 C 
ATOM     10  C   UNL     1      34.641 -22.492 -17.724  0.00  0.00    +0.130 C 
ATOM     11  C   UNL     1      36.052 -22.068 -17.870  0.00  0.00    +0.350 C 
ENDROOT
BRANCH  10  14
ATOM     12  O   UNL     1      33.649 -24.478 -16.959  0.00  0.00    -0.270 OA
ATOM     13  N   UNL     1      34.517 -22.970 -15.399  0.00  0.00    -0.278 N 
ATOM     14  C   UNL     1      34.212 -23.423 -16.673  0.00  0.00    +0.256 C 
ATOM     15  H   UNL     1      34.972 -22.101 -15.313  0.00  0.00    +0.155 HD
BRANCH  13  17
ATOM     16  C   UNL     1      35.099 -24.466 -13.657  0.00  0.00    +0.091 C 
ATOM     17  C   UNL     1      34.222 -23.659 -14.259  0.00  0.00    +0.081 C 
BRANCH  16  20
ATOM     18  O   UNL     1      35.946 -26.503 -15.534  0.00  0.00    -0.269 OA
ATOM     19  O   UNL     1      37.471 -22.940 -12.998  0.00  0.00    -0.269 OA
ATOM     20  N   UNL     1      36.358 -24.665 -14.134  0.00  0.00    -0.199 N 
ATOM     21  C   UNL     1      38.145 -25.544 -15.360  0.00  0.00    +0.063 C 
ATOM     22  C   UNL     1      38.661 -24.433 -14.463  0.00  0.00    +0.063 C 
ATOM     23  C   UNL     1      36.682 -25.660 -15.039  0.00  0.00    +0.259 C 
ATOM     24  C   UNL     1      37.445 -23.894 -13.764  0.00  0.00    +0.259 C 
ENDBRANCH  16  20
ENDBRANCH  13  17
ENDBRANCH  10  14
BRANCH   3  25
ATOM     25  N   UNL     1      35.102 -18.440 -22.680  0.00  0.00    -0.307 N 
BRANCH  25  26
ATOM     26  C   UNL     1      35.606 -17.119 -22.357  0.00  0.00    +0.091 C 
ATOM     27  C   UNL     1      34.639 -16.402 -21.435  0.00  0.00    +0.023 C 
ENDBRANCH  25  26
BRANCH  25  28
ATOM     28  C   UNL     1      34.959 -18.820 -24.072  0.00  0.00    +0.091 C 
ATOM     29  C   UNL     1      34.600 -17.609 -24.910  0.00  0.00    +0.023 C 
ENDBRANCH  25  28
ENDBRANCH   3  25
TORSDOF 6
ENDMDL
MODEL 3
REMARK VINA RESULT:     -10.1      2.568      4.361
REMARK  Name = 5288792
REMARK  6 active torsions:
REMARK  status: ('A' for Active; 'I' for Inactive)
REMARK    1  A    between atoms: C_3  and  N_25
REMARK    2  A    between atoms: C_10  and  C_14
REMARK    3  A    between atoms: N_13  and  C_17
REMARK    4  A    between atoms: C_16  and  N_20
REMARK    5  A    between atoms: N_25  and  C_26
REMARK    6  A    between atoms: N_25  and  C_28
REMARK                            x       y       z     vdW  Elec       q    Type
REMARK                         _______ _______ _______ _____ _____    ______ ____
ROOT
ATOM      1  O   UNL     1      33.056 -21.511 -19.321  0.00  0.00    -0.421 OA
ATOM      2  O   UNL     1      32.050 -22.861 -17.777  0.00  0.00    -0.244 OA
ATOM      3  C   UNL     1      35.252 -19.502 -21.473  0.00  0.00    +0.051 C 
ATOM      4  C   UNL     1      35.464 -21.186 -19.245  0.00  0.00    +0.035 C 
ATOM      5  C   UNL     1      34.108 -20.092 -20.943  0.00  0.00    +0.052 C 
ATOM      6  C   UNL     1      34.231 -20.928 -19.834  0.00  0.00    +0.150 C 
ATOM      7  C   UNL     1      36.500 -19.749 -20.894  0.00  0.00    +0.015 C 
ATOM      8  C   UNL     1      36.606 -20.589 -19.782  0.00  0.00    +0.004 C 
ATOM      9  C   UNL     1      35.521 -22.068 -18.089  0.00  0.00    +0.014 C 
ATOM     10  C   UNL     1      34.401 -22.619 -17.605  0.00  0.00    +0.130 C 
ATOM     11  C   UNL     1      33.078 -22.358 -18.217  0.00  0.00    +0.350 C 
ENDROOT
BRANCH  10  14
ATOM     12  O   UNL     1      35.628 -24.063 -16.219  0.00  0.00    -0.270 OA
ATOM     13  N   UNL     1      33.410 -23.578 -15.669  0.00  0.00    -0.278 N 
ATOM     14  C   UNL     1      34.560 -23.495 -16.438  0.00  0.00    +0.256 C 
ATOM     15  H   UNL     1      32.620 -23.068 -15.961  0.00  0.00    +0.155 HD
BRANCH  13  17
ATOM     16  C   UNL     1      32.137 -24.624 -13.968  0.00  0.00    +0.091 C 
ATOM     17  C   UNL     1      33.310 -24.327 -14.534  0.00  0.00    +0.081 C 
BRANCH  16  20
ATOM     18  O   UNL     1      30.023 -26.282 -15.050  0.00  0.00    -0.269 OA
ATOM     19  O   UNL     1      31.214 -21.888 -14.197  0.00  0.00    -0.269 OA
ATOM     20  N   UNL     1      30.949 -24.202 -14.480  0.00  0.00    -0.199 N 
ATOM     21  C   UNL     1      28.804 -24.240 -15.410  0.00  0.00    +0.063 C 
ATOM     22  C   UNL     1      29.230 -22.796 -15.210  0.00  0.00    +0.063 C 
ATOM     23  C   UNL     1      29.982 -25.061 -14.972  0.00  0.00    +0.259 C 
ATOM     24  C   UNL     1      30.582 -22.871 -14.561  0.00  0.00    +0.259 C 
ENDBRANCH  16  20
ENDBRANCH  13  17
ENDBRANCH  10  14
BRANCH   3  25
ATOM     25  N   UNL     1      35.154 -18.653 -22.595  0.00  0.00    -0.307 N 
BRANCH  25  26
ATOM     26  C   UNL     1      34.714 -19.175 -23.874  0.00  0.00    +0.091 C 
ATOM     27  C   UNL     1      34.581 -18.048 -24.881  0.00  0.00    +0.023 C 
ENDBRANCH  25  26
BRANCH  25  28
ATOM     28  C   UNL     1      35.504 -17.250 -22.488  0.00  0.00    +0.091 C 
ATOM     29  C   UNL     1      34.705 -16.597 -21.377  0.00  0.00    +0.023 C 
ENDBRANCH  25  28
ENDBRANCH   3  25
TORSDOF 6
ENDMDL
MODEL 4
REMARK VINA RESULT:      -9.8      1.278      1.945
REMARK  Name = 5288792
REMARK  6 active torsions:
REMARK  status: ('A' for Active; 'I' for Inactive)
REMARK    1  A    between atoms: C_3  and  N_25
REMARK    2  A    between atoms: C_10  and  C_14
REMARK    3  A    between atoms: N_13  and  C_17
REMARK    4  A    between atoms: C_16  and  N_20
REMARK    5  A    between atoms: N_25  and  C_26
REMARK    6  A    between atoms: N_25  and  C_28
REMARK                            x       y       z     vdW  Elec       q    Type
REMARK                         _______ _______ _______ _____ _____    ______ ____
ROOT
ATOM      1  O   UNL     1      36.887 -21.780 -17.808  0.00  0.00    -0.421 OA
ATOM      2  O   UNL     1      37.753 -22.901 -16.015  0.00  0.00    -0.244 OA
ATOM      3  C   UNL     1      34.907 -20.282 -20.515  0.00  0.00    +0.051 C 
ATOM      4  C   UNL     1      34.534 -22.036 -18.362  0.00  0.00    +0.035 C 
ATOM      5  C   UNL     1      35.983 -20.602 -19.691  0.00  0.00    +0.052 C 
ATOM      6  C   UNL     1      35.780 -21.477 -18.624  0.00  0.00    +0.150 C 
ATOM      7  C   UNL     1      33.648 -20.835 -20.268  0.00  0.00    +0.015 C 
ATOM      8  C   UNL     1      33.461 -21.711 -19.194  0.00  0.00    +0.004 C 
ATOM      9  C   UNL     1      34.392 -22.941 -17.232  0.00  0.00    +0.014 C 
ATOM     10  C   UNL     1      35.448 -23.227 -16.460  0.00  0.00    +0.130 C 
ATOM     11  C   UNL     1      36.784 -22.643 -16.720  0.00  0.00    +0.350 C 
ENDROOT
BRANCH  10  14
ATOM     12  O   UNL     1      34.763 -25.279 -15.547  0.00  0.00    -0.270 OA
ATOM     13  N   UNL     1      35.530 -23.599 -14.114  0.00  0.00    -0.278 N 
ATOM     14  C   UNL     1      35.206 -24.149 -15.344  0.00  0.00    +0.256 C 
ATOM     15  H   UNL     1      35.876 -22.678 -14.095  0.00  0.00    +0.155 HD
BRANCH  13  17
ATOM     16  C   UNL     1      36.350 -25.050 -12.431  0.00  0.00    +0.091 C 
ATOM     17  C   UNL     1      35.394 -24.261 -12.929  0.00  0.00    +0.081 C 
BRANCH  16  20
ATOM     18  O   UNL     1      38.782 -23.507 -12.122  0.00  0.00    -0.269 OA
ATOM     19  O   UNL     1      36.947 -27.118 -14.369  0.00  0.00    -0.269 OA
ATOM     20  N   UNL     1      37.535 -25.256 -13.068  0.00  0.00    -0.199 N 
ATOM     21  C   UNL     1      39.775 -25.028 -13.700  0.00  0.00    +0.063 C 
ATOM     22  C   UNL     1      39.149 -26.156 -14.500  0.00  0.00    +0.063 C 
ATOM     23  C   UNL     1      38.659 -24.477 -12.859  0.00  0.00    +0.259 C 
ATOM     24  C   UNL     1      37.740 -26.266 -13.990  0.00  0.00    +0.259 C 
ENDBRANCH  16  20
ENDBRANCH  13  17
ENDBRANCH  10  14
BRANCH   3  25
ATOM     25  N   UNL     1      35.087 -19.400 -21.601  0.00  0.00    -0.307 N 
BRANCH  25  26
ATOM     26  C   UNL     1      35.921 -18.222 -21.458  0.00  0.00    +0.091 C 
ATOM     27  C   UNL     1      35.094 -17.055 -20.954  0.00  0.00    +0.023 C 
ENDBRANCH  25  26
BRANCH  25  28
ATOM     28  C   UNL     1      34.429 -19.651 -22.868  0.00  0.00    +0.091 C 
ATOM     29  C   UNL     1      35.167 -18.944 -23.988  0.00  0.00    +0.023 C 
ENDBRANCH  25  28
ENDBRANCH   3  25
TORSDOF 6
ENDMDL
MODEL 5
REMARK VINA RESULT:      -9.8      6.749     12.072
REMARK  Name = 5288792
REMARK  6 active torsions:
REMARK  status: ('A' for Active; 'I' for Inactive)
REMARK    1  A    between atoms: C_3  and  N_25
REMARK    2  A    between atoms: C_10  and  C_14
REMARK    3  A    between atoms: N_13  and  C_17
REMARK    4  A    between atoms: C_16  and  N_20
REMARK    5  A    between atoms: N_25  and  C_26
REMARK    6  A    between atoms: N_25  and  C_28
REMARK                            x       y       z     vdW  Elec       q    Type
REMARK                         _______ _______ _______ _____ _____    ______ ____
ROOT
ATOM      1  O   UNL     1      33.940 -15.611 -24.724  0.00  0.00    -0.421 OA
ATOM      2  O   UNL     1      33.419 -14.100 -26.356  0.00  0.00    -0.244 OA
ATOM      3  C   UNL     1      34.797 -17.493 -21.688  0.00  0.00    +0.051 C 
ATOM      4  C   UNL     1      34.314 -14.840 -22.449  0.00  0.00    +0.035 C 
ATOM      5  C   UNL     1      34.488 -17.200 -23.014  0.00  0.00    +0.052 C 
ATOM      6  C   UNL     1      34.250 -15.875 -23.376  0.00  0.00    +0.150 C 
ATOM      7  C   UNL     1      34.865 -16.466 -20.743  0.00  0.00    +0.015 C 
ATOM      8  C   UNL     1      34.625 -15.142 -21.121  0.00  0.00    +0.004 C 
ATOM      9  C   UNL     1      34.055 -13.479 -22.894  0.00  0.00    +0.014 C 
ATOM     10  C   UNL     1      33.761 -13.234 -24.177  0.00  0.00    +0.130 C 
ATOM     11  C   UNL     1      33.688 -14.320 -25.181  0.00  0.00    +0.350 C 
ENDROOT
BRANCH  10  14
ATOM     12  O   UNL     1      33.768 -11.412 -25.658  0.00  0.00    -0.270 OA
ATOM     13  N   UNL     1      32.989 -11.098 -23.478  0.00  0.00    -0.278 N 
ATOM     14  C   UNL     1      33.515 -11.830 -24.530  0.00  0.00    +0.256 C 
ATOM     15  H   UNL     1      32.836 -11.560 -22.622  0.00  0.00    +0.155 HD
BRANCH  13  17
ATOM     16  C   UNL     1      32.136  -9.096 -22.542  0.00  0.00    +0.091 C 
ATOM     17  C   UNL     1      32.675  -9.773 -23.560  0.00  0.00    +0.081 C 
BRANCH  16  20
ATOM     18  O   UNL     1      32.957  -8.160 -19.927  0.00  0.00    -0.269 OA
ATOM     19  O   UNL     1      30.606 -11.514 -22.090  0.00  0.00    -0.269 OA
ATOM     20  N   UNL     1      31.858  -9.675 -21.343  0.00  0.00    -0.199 N 
ATOM     21  C   UNL     1      31.753 -10.042 -19.035  0.00  0.00    +0.063 C 
ATOM     22  C   UNL     1      31.058 -11.187 -19.749  0.00  0.00    +0.063 C 
ATOM     23  C   UNL     1      32.282  -9.160 -20.130  0.00  0.00    +0.259 C 
ATOM     24  C   UNL     1      31.123 -10.839 -21.209  0.00  0.00    +0.259 C 
ENDBRANCH  16  20
ENDBRANCH  13  17
ENDBRANCH  10  14
BRANCH   3  25
ATOM     25  N   UNL     1      35.040 -18.826 -21.297  0.00  0.00    -0.307 N 
BRANCH  25  26
ATOM     26  C   UNL     1      36.314 -19.198 -20.712  0.00  0.00    +0.091 C 
ATOM     27  C   UNL     1      36.243 -20.610 -20.164  0.00  0.00    +0.023 C 
ENDBRANCH  25  26
BRANCH  25  28
ATOM     28  C   UNL     1      34.026 -19.844 -21.489  0.00  0.00    +0.091 C 
ATOM     29  C   UNL     1      32.827 -19.559 -20.606  0.00  0.00    +0.023 C 
ENDBRANCH  25  28
ENDBRANCH   3  25
TORSDOF 6
ENDMDL
MODEL 6
REMARK VINA RESULT:      -9.8      6.734     12.153
REMARK  Name = 5288792
REMARK  6 active torsions:
REMARK  status: ('A' for Active; 'I' for Inactive)
REMARK    1  A    between atoms: C_3  and  N_25
REMARK    2  A    between atoms: C_10  and  C_14
REMARK    3  A    between atoms: N_13  and  C_17
REMARK    4  A    between atoms: C_16  and  N_20
REMARK    5  A    between atoms: N_25  and  C_26
REMARK    6  A    between atoms: N_25  and  C_28
REMARK                            x       y       z     vdW  Elec       q    Type
REMARK                         _______ _______ _______ _____ _____    ______ ____
ROOT
ATOM      1  O   UNL     1      33.880 -15.639 -24.683  0.00  0.00    -0.421 OA
ATOM      2  O   UNL     1      33.348 -14.134 -26.317  0.00  0.00    -0.244 OA
ATOM      3  C   UNL     1      34.770 -17.509 -21.649  0.00  0.00    +0.051 C 
ATOM      4  C   UNL     1      34.312 -14.855 -22.423  0.00  0.00    +0.035 C 
ATOM      5  C   UNL     1      34.438 -17.223 -22.971  0.00  0.00    +0.052 C 
ATOM      6  C   UNL     1      34.214 -15.897 -23.339  0.00  0.00    +0.150 C 
ATOM      7  C   UNL     1      34.874 -16.476 -20.714  0.00  0.00    +0.015 C 
ATOM      8  C   UNL     1      34.646 -15.151 -21.100  0.00  0.00    +0.004 C 
ATOM      9  C   UNL     1      34.066 -13.495 -22.875  0.00  0.00    +0.014 C 
ATOM     10  C   UNL     1      33.749 -13.256 -24.153  0.00  0.00    +0.130 C 
ATOM     11  C   UNL     1      33.638 -14.349 -25.146  0.00  0.00    +0.350 C 
ENDROOT
BRANCH  10  14
ATOM     12  O   UNL     1      33.793 -11.436 -25.637  0.00  0.00    -0.270 OA
ATOM     13  N   UNL     1      32.976 -11.114 -23.472  0.00  0.00    -0.278 N 
ATOM     14  C   UNL     1      33.517 -11.851 -24.513  0.00  0.00    +0.256 C 
ATOM     15  H   UNL     1      32.804 -11.573 -22.619  0.00  0.00    +0.155 HD
BRANCH  13  17
ATOM     16  C   UNL     1      32.134  -9.101 -22.550  0.00  0.00    +0.091 C 
ATOM     17  C   UNL     1      32.670  -9.787 -23.562  0.00  0.00    +0.081 C 
BRANCH  16  20
ATOM     18  O   UNL     1      30.577 -11.500 -22.087  0.00  0.00    -0.269 OA
ATOM     19  O   UNL     1      32.961  -8.161 -19.938  0.00  0.00    -0.269 OA
ATOM     20  N   UNL     1      31.849  -9.672 -21.348  0.00  0.00    -0.199 N 
ATOM     21  C   UNL     1      31.036 -11.172 -19.749  0.00  0.00    +0.063 C 
ATOM     22  C   UNL     1      31.742 -10.031 -19.040  0.00  0.00    +0.063 C 
ATOM     23  C   UNL     1      31.102 -10.828 -21.209  0.00  0.00    +0.259 C 
ATOM     24  C   UNL     1      32.277  -9.156 -20.138  0.00  0.00    +0.259 C 
ENDBRANCH  16  20
ENDBRANCH  13  17
ENDBRANCH  10  14
BRANCH   3  25
ATOM     25  N   UNL     1      35.001 -18.843 -21.252  0.00  0.00    -0.307 N 
BRANCH  25  26
ATOM     26  C   UNL     1      36.263 -19.219 -20.645  0.00  0.00    +0.091 C 
ATOM     27  C   UNL     1      36.222 -20.673 -20.216  0.00  0.00    +0.023 C 
ENDBRANCH  25  26
BRANCH  25  28
ATOM     28  C   UNL     1      33.986 -19.856 -21.458  0.00  0.00    +0.091 C 
ATOM     29  C   UNL     1      32.808 -19.611 -20.535  0.00  0.00    +0.023 C 
ENDBRANCH  25  28
ENDBRANCH   3  25
TORSDOF 6
ENDMDL
MODEL 7
REMARK VINA RESULT:      -9.2      2.373      4.179
REMARK  Name = 5288792
REMARK  6 active torsions:
REMARK  status: ('A' for Active; 'I' for Inactive)
REMARK    1  A    between atoms: C_3  and  N_25
REMARK    2  A    between atoms: C_10  and  C_14
REMARK    3  A    between atoms: N_13  and  C_17
REMARK    4  A    between atoms: C_16  and  N_20
REMARK    5  A    between atoms: N_25  and  C_26
REMARK    6  A    between atoms: N_25  and  C_28
REMARK                            x       y       z     vdW  Elec       q    Type
REMARK                         _______ _______ _______ _____ _____    ______ ____
ROOT
ATOM      1  O   UNL     1      36.487 -21.515 -18.264  0.00  0.00    -0.421 OA
ATOM      2  O   UNL     1      37.402 -22.692 -16.533  0.00  0.00    -0.244 OA
ATOM      3  C   UNL     1      34.434 -19.943 -20.873  0.00  0.00    +0.051 C 
ATOM      4  C   UNL     1      34.128 -21.786 -18.785  0.00  0.00    +0.035 C 
ATOM      5  C   UNL     1      35.530 -20.278 -20.082  0.00  0.00    +0.052 C 
ATOM      6  C   UNL     1      35.360 -21.197 -19.047  0.00  0.00    +0.150 C 
ATOM      7  C   UNL     1      33.188 -20.525 -20.625  0.00  0.00    +0.015 C 
ATOM      8  C   UNL     1      33.034 -21.445 -19.584  0.00  0.00    +0.004 C 
ATOM      9  C   UNL     1      34.020 -22.737 -17.689  0.00  0.00    +0.014 C 
ATOM     10  C   UNL     1      35.095 -23.036 -16.949  0.00  0.00    +0.130 C 
ATOM     11  C   UNL     1      36.416 -22.421 -17.209  0.00  0.00    +0.350 C 
ENDROOT
BRANCH  10  14
ATOM     12  O   UNL     1      35.674 -24.935 -15.694  0.00  0.00    -0.270 OA
ATOM     13  N   UNL     1      33.754 -23.735 -15.115  0.00  0.00    -0.278 N 
ATOM     14  C   UNL     1      34.887 -24.005 -15.866  0.00  0.00    +0.256 C 
ATOM     15  H   UNL     1      33.209 -22.954 -15.362  0.00  0.00    +0.155 HD
BRANCH  13  17
ATOM     16  C   UNL     1      32.063 -24.716 -13.777  0.00  0.00    +0.091 C 
ATOM     17  C   UNL     1      33.351 -24.491 -14.054  0.00  0.00    +0.081 C 
BRANCH  16  20
ATOM     18  O   UNL     1      30.056 -26.215 -15.231  0.00  0.00    -0.269 OA
ATOM     19  O   UNL     1      31.487 -21.919 -14.257  0.00  0.00    -0.269 OA
ATOM     20  N   UNL     1      31.052 -24.208 -14.533  0.00  0.00    -0.199 N 
ATOM     21  C   UNL     1      29.147 -24.085 -15.884  0.00  0.00    +0.063 C 
ATOM     22  C   UNL     1      29.667 -22.681 -15.636  0.00  0.00    +0.063 C 
ATOM     23  C   UNL     1      30.124 -24.993 -15.193  0.00  0.00    +0.259 C 
ATOM     24  C   UNL     1      30.846 -22.853 -14.720  0.00  0.00    +0.259 C 
ENDBRANCH  16  20
ENDBRANCH  13  17
ENDBRANCH  10  14
BRANCH   3  25
ATOM     25  N   UNL     1      34.581 -19.016 -21.926  0.00  0.00    -0.307 N 
BRANCH  25  26
ATOM     26  C   UNL     1      34.001 -17.691 -21.823  0.00  0.00    +0.091 C 
ATOM     27  C   UNL     1      34.979 -16.744 -21.153  0.00  0.00    +0.023 C 
ENDBRANCH  25  26
BRANCH  25  28
ATOM     28  C   UNL     1      35.300 -19.380 -23.130  0.00  0.00    +0.091 C 
ATOM     29  C   UNL     1      34.553 -18.887 -24.354  0.00  0.00    +0.023 C 
ENDBRANCH  25  28
ENDBRANCH   3  25
TORSDOF 6
ENDMDL
MODEL 8
REMARK VINA RESULT:      -9.1      6.230     11.815
REMARK  Name = 5288792
REMARK  6 active torsions:
REMARK  status: ('A' for Active; 'I' for Inactive)
REMARK    1  A    between atoms: C_3  and  N_25
REMARK    2  A    between atoms: C_10  and  C_14
REMARK    3  A    between atoms: N_13  and  C_17
REMARK    4  A    between atoms: C_16  and  N_20
REMARK    5  A    between atoms: N_25  and  C_26
REMARK    6  A    between atoms: N_25  and  C_28
REMARK                            x       y       z     vdW  Elec       q    Type
REMARK                         _______ _______ _______ _____ _____    ______ ____
ROOT
ATOM      1  O   UNL     1      33.709 -15.337 -21.062  0.00  0.00    -0.421 OA
ATOM      2  O   UNL     1      32.946 -13.185 -21.137  0.00  0.00    -0.244 OA
ATOM      3  C   UNL     1      35.050 -18.713 -21.613  0.00  0.00    +0.051 C 
ATOM      4  C   UNL     1      34.529 -16.392 -23.094  0.00  0.00    +0.035 C 
ATOM      5  C   UNL     1      34.509 -17.597 -20.980  0.00  0.00    +0.052 C 
ATOM      6  C   UNL     1      34.256 -16.450 -21.731  0.00  0.00    +0.150 C 
ATOM      7  C   UNL     1      35.330 -18.673 -22.981  0.00  0.00    +0.015 C 
ATOM      8  C   UNL     1      35.070 -17.516 -23.721  0.00  0.00    +0.004 C 
ATOM      9  C   UNL     1      34.239 -15.164 -23.818  0.00  0.00    +0.014 C 
ATOM     10  C   UNL     1      33.720 -14.110 -23.177  0.00  0.00    +0.130 C 
ATOM     11  C   UNL     1      33.421 -14.149 -21.727  0.00  0.00    +0.350 C 
ENDROOT
BRANCH  10  14
ATOM     12  O   UNL     1      33.412 -12.991 -25.219  0.00  0.00    -0.270 OA
ATOM     13  N   UNL     1      33.297 -11.771 -23.230  0.00  0.00    -0.278 N 
ATOM     14  C   UNL     1      33.464 -12.916 -23.992  0.00  0.00    +0.256 C 
ATOM     15  H   UNL     1      33.364 -11.853 -22.251  0.00  0.00    +0.155 HD
BRANCH  13  17
ATOM     16  C   UNL     1      32.434  -9.571 -23.070  0.00  0.00    +0.091 C 
ATOM     17  C   UNL     1      33.047 -10.539 -23.757  0.00  0.00    +0.081 C 
BRANCH  16  20
ATOM     18  O   UNL     1      30.547 -11.546 -22.107  0.00  0.00    -0.269 OA
ATOM     19  O   UNL     1      33.237  -8.026 -20.756  0.00  0.00    -0.269 OA
ATOM     20  N   UNL     1      32.011  -9.740 -21.788  0.00  0.00    -0.199 N 
ATOM     21  C   UNL     1      30.916 -10.619 -19.918  0.00  0.00    +0.063 C 
ATOM     22  C   UNL     1      31.730  -9.411 -19.490  0.00  0.00    +0.063 C 
ATOM     23  C   UNL     1      31.108 -10.716 -21.404  0.00  0.00    +0.259 C 
ATOM     24  C   UNL     1      32.437  -8.953 -20.734  0.00  0.00    +0.259 C 
ENDBRANCH  16  20
ENDBRANCH  13  17
ENDBRANCH  10  14
BRANCH   3  25
ATOM     25  N   UNL     1      35.315 -19.885 -20.874  0.00  0.00    -0.307 N 
BRANCH  25  26
ATOM     26  C   UNL     1      34.294 -20.903 -20.722  0.00  0.00    +0.091 C 
ATOM     27  C   UNL     1      33.004 -20.279 -20.226  0.00  0.00    +0.023 C 
ENDBRANCH  25  26
BRANCH  25  28
ATOM     28  C   UNL     1      36.607 -20.079 -20.246  0.00  0.00    +0.091 C 
ATOM     29  C   UNL     1      36.549 -21.252 -19.286  0.00  0.00    +0.023 C 
ENDBRANCH  25  28
ENDBRANCH   3  25
TORSDOF 6
ENDMDL
MODEL 9
REMARK VINA RESULT:      -9.1      8.467     13.728
REMARK  Name = 5288792
REMARK  6 active torsions:
REMARK  status: ('A' for Active; 'I' for Inactive)
REMARK    1  A    between atoms: C_3  and  N_25
REMARK    2  A    between atoms: C_10  and  C_14
REMARK    3  A    between atoms: N_13  and  C_17
REMARK    4  A    between atoms: C_16  and  N_20
REMARK    5  A    between atoms: N_25  and  C_26
REMARK    6  A    between atoms: N_25  and  C_28
REMARK                            x       y       z     vdW  Elec       q    Type
REMARK                         _______ _______ _______ _____ _____    ______ ____
ROOT
ATOM      1  O   UNL     1      32.909 -12.489 -23.187  0.00  0.00    -0.421 OA
ATOM      2  O   UNL     1      32.222 -10.311 -23.229  0.00  0.00    -0.244 OA
ATOM      3  C   UNL     1      33.842 -15.967 -22.456  0.00  0.00    +0.051 C 
ATOM      4  C   UNL     1      32.799 -13.743 -21.107  0.00  0.00    +0.035 C 
ATOM      5  C   UNL     1      33.631 -14.776 -23.147  0.00  0.00    +0.052 C 
ATOM      6  C   UNL     1      33.111 -13.679 -22.461  0.00  0.00    +0.150 C 
ATOM      7  C   UNL     1      33.534 -16.050 -21.096  0.00  0.00    +0.015 C 
ATOM      8  C   UNL     1      33.014 -14.941 -20.422  0.00  0.00    +0.004 C 
ATOM      9  C   UNL     1      32.260 -12.561 -20.452  0.00  0.00    +0.014 C 
ATOM     10  C   UNL     1      32.070 -11.433 -21.147  0.00  0.00    +0.130 C 
ATOM     11  C   UNL     1      32.395 -11.342 -22.589  0.00  0.00    +0.350 C 
ENDROOT
BRANCH  10  14
ATOM     12  O   UNL     1      30.523 -10.429 -19.694  0.00  0.00    -0.270 OA
ATOM     13  N   UNL     1      32.246  -9.130 -20.590  0.00  0.00    -0.278 N 
ATOM     14  C   UNL     1      31.521 -10.295 -20.400  0.00  0.00    +0.256 C 
ATOM     15  H   UNL     1      33.029  -9.162 -21.185  0.00  0.00    +0.155 HD
BRANCH  13  17
ATOM     16  C   UNL     1      31.892  -6.789 -20.678  0.00  0.00    +0.091 C 
ATOM     17  C   UNL     1      31.934  -7.939 -20.000  0.00  0.00    +0.081 C 
BRANCH  16  20
ATOM     18  O   UNL     1      30.162  -5.710 -22.736  0.00  0.00    -0.269 OA
ATOM     19  O   UNL     1      34.295  -7.678 -22.028  0.00  0.00    -0.269 OA
ATOM     20  N   UNL     1      32.156  -6.714 -22.011  0.00  0.00    -0.199 N 
ATOM     21  C   UNL     1      31.926  -6.229 -24.287  0.00  0.00    +0.063 C 
ATOM     22  C   UNL     1      33.243  -6.952 -24.067  0.00  0.00    +0.063 C 
ATOM     23  C   UNL     1      31.277  -6.175 -22.934  0.00  0.00    +0.259 C 
ATOM     24  C   UNL     1      33.330  -7.169 -22.583  0.00  0.00    +0.259 C 
ENDBRANCH  16  20
ENDBRANCH  13  17
ENDBRANCH  10  14
BRANCH   3  25
ATOM     25  N   UNL     1      34.366 -17.090 -23.129  0.00  0.00    -0.307 N 
BRANCH  25  26
ATOM     26  C   UNL     1      34.645 -18.315 -22.406  0.00  0.00    +0.091 C 
ATOM     27  C   UNL     1      36.115 -18.382 -22.040  0.00  0.00    +0.023 C 
ENDBRANCH  25  26
BRANCH  25  28
ATOM     28  C   UNL     1      34.647 -17.029 -24.550  0.00  0.00    +0.091 C 
ATOM     29  C   UNL     1      34.280 -18.344 -25.211  0.00  0.00    +0.023 C 
ENDBRANCH  25  28
ENDBRANCH   3  25
TORSDOF 6
ENDMDL
