MODEL 1
REMARK VINA RESULT:      -4.4      0.000      0.000
REMARK  Name = 3406
REMARK  0 active torsions:
REMARK  status: ('A' for Active; 'I' for Inactive)
REMARK                            x       y       z     vdW  Elec       q    Type
REMARK                         _______ _______ _______ _____ _____    ______ ____
ROOT
ATOM      1  N   UNL     1      32.878 -21.913 -19.256  0.00  0.00    -0.235 N 
ATOM      2  N   UNL     1      32.709 -20.807 -19.999  0.00  0.00    -0.180 NA
ATOM      3  C   UNL     1      34.923 -21.286 -19.700  0.00  0.00    +0.015 C 
ATOM      4  C   UNL     1      34.185 -22.244 -19.047  0.00  0.00    +0.077 C 
ATOM      5  C   UNL     1      36.388 -21.182 -19.785  0.00  0.00    +0.034 C 
ATOM      6  C   UNL     1      33.962 -20.428 -20.268  0.00  0.00    +0.115 C 
ATOM      7  H   UNL     1      32.127 -22.439 -18.895  0.00  0.00    +0.174 HD
ENDROOT
TORSDOF 0
ENDMDL
MODEL 2
REMARK VINA RESULT:      -4.4      0.164      1.496
REMARK  Name = 3406
REMARK  0 active torsions:
REMARK  status: ('A' for Active; 'I' for Inactive)
REMARK                            x       y       z     vdW  Elec       q    Type
REMARK                         _______ _______ _______ _____ _____    ______ ____
ROOT
ATOM      1  N   UNL     1      32.686 -20.935 -19.822  0.00  0.00    -0.235 N 
ATOM      2  N   UNL     1      32.808 -22.011 -19.027  0.00  0.00    -0.180 NA
ATOM      3  C   UNL     1      34.845 -21.252 -19.727  0.00  0.00    +0.015 C 
ATOM      4  C   UNL     1      33.877 -20.442 -20.268  0.00  0.00    +0.077 C 
ATOM      5  C   UNL     1      36.304 -21.150 -19.899  0.00  0.00    +0.034 C 
ATOM      6  C   UNL     1      34.129 -22.200 -18.972  0.00  0.00    +0.115 C 
ATOM      7  H   UNL     1      31.817 -20.537 -20.060  0.00  0.00    +0.174 HD
ENDROOT
TORSDOF 0
ENDMDL
MODEL 3
REMARK VINA RESULT:      -4.3      2.654      3.570
REMARK  Name = 3406
REMARK  0 active torsions:
REMARK  status: ('A' for Active; 'I' for Inactive)
REMARK                            x       y       z     vdW  Elec       q    Type
REMARK                         _______ _______ _______ _____ _____    ______ ____
ROOT
ATOM      1  N   UNL     1      36.121 -18.698 -20.821  0.00  0.00    -0.235 N 
ATOM      2  N   UNL     1      36.482 -19.870 -20.276  0.00  0.00    -0.180 NA
ATOM      3  C   UNL     1      34.237 -19.795 -20.690  0.00  0.00    +0.015 C 
ATOM      4  C   UNL     1      34.787 -18.601 -21.089  0.00  0.00    +0.077 C 
ATOM      5  C   UNL     1      32.825 -20.204 -20.763  0.00  0.00    +0.034 C 
ATOM      6  C   UNL     1      35.327 -20.538 -20.198  0.00  0.00    +0.115 C 
ATOM      7  H   UNL     1      36.761 -17.973 -21.012  0.00  0.00    +0.174 HD
ENDROOT
TORSDOF 0
ENDMDL
MODEL 4
REMARK VINA RESULT:      -4.2      1.671      2.663
REMARK  Name = 3406
REMARK  0 active torsions:
REMARK  status: ('A' for Active; 'I' for Inactive)
REMARK                            x       y       z     vdW  Elec       q    Type
REMARK                         _______ _______ _______ _____ _____    ______ ____
ROOT
ATOM      1  N   UNL     1      35.806 -21.696 -19.506  0.00  0.00    -0.235 N 
ATOM      2  N   UNL     1      34.930 -22.508 -18.893  0.00  0.00    -0.180 NA
ATOM      3  C   UNL     1      33.869 -20.827 -20.020  0.00  0.00    +0.015 C 
ATOM      4  C   UNL     1      35.222 -20.673 -20.195  0.00  0.00    +0.077 C 
ATOM      5  C   UNL     1      32.789 -19.984 -20.559  0.00  0.00    +0.034 C 
ATOM      6  C   UNL     1      33.747 -21.973 -19.210  0.00  0.00    +0.115 C 
ATOM      7  H   UNL     1      36.782 -21.826 -19.464  0.00  0.00    +0.174 HD
ENDROOT
TORSDOF 0
ENDMDL
MODEL 5
REMARK VINA RESULT:      -4.1      5.123      5.952
REMARK  Name = 3406
REMARK  0 active torsions:
REMARK  status: ('A' for Active; 'I' for Inactive)
REMARK                            x       y       z     vdW  Elec       q    Type
REMARK                         _______ _______ _______ _____ _____    ______ ____
ROOT
ATOM      1  N   UNL     1      35.100 -16.631 -24.663  0.00  0.00    -0.235 N 
ATOM      2  N   UNL     1      34.615 -17.517 -25.548  0.00  0.00    -0.180 NA
ATOM      3  C   UNL     1      34.790 -18.429 -23.461  0.00  0.00    +0.015 C 
ATOM      4  C   UNL     1      35.224 -17.127 -23.398  0.00  0.00    +0.077 C 
ATOM      5  C   UNL     1      34.721 -19.408 -22.365  0.00  0.00    +0.034 C 
ATOM      6  C   UNL     1      34.427 -18.614 -24.809  0.00  0.00    +0.115 C 
ATOM      7  H   UNL     1      35.343 -15.707 -24.904  0.00  0.00    +0.174 HD
ENDROOT
TORSDOF 0
ENDMDL
MODEL 6
REMARK VINA RESULT:      -4.0      3.358      4.076
REMARK  Name = 3406
REMARK  0 active torsions:
REMARK  status: ('A' for Active; 'I' for Inactive)
REMARK                            x       y       z     vdW  Elec       q    Type
REMARK                         _______ _______ _______ _____ _____    ______ ____
ROOT
ATOM      1  N   UNL     1      34.853 -19.237 -20.640  0.00  0.00    -0.235 N 
ATOM      2  N   UNL     1      35.975 -18.516 -20.797  0.00  0.00    -0.180 NA
ATOM      3  C   UNL     1      34.960 -18.933 -22.800  0.00  0.00    +0.015 C 
ATOM      4  C   UNL     1      34.207 -19.514 -21.809  0.00  0.00    +0.077 C 
ATOM      5  C   UNL     1      34.699 -18.939 -24.249  0.00  0.00    +0.034 C 
ATOM      6  C   UNL     1      36.036 -18.333 -22.119  0.00  0.00    +0.115 C 
ATOM      7  H   UNL     1      34.525 -19.537 -19.761  0.00  0.00    +0.174 HD
ENDROOT
TORSDOF 0
ENDMDL
MODEL 7
REMARK VINA RESULT:      -4.0      3.748      4.313
REMARK  Name = 3406
REMARK  0 active torsions:
REMARK  status: ('A' for Active; 'I' for Inactive)
REMARK                            x       y       z     vdW  Elec       q    Type
REMARK                         _______ _______ _______ _____ _____    ______ ____
ROOT
ATOM      1  N   UNL     1      36.414 -18.163 -22.589  0.00  0.00    -0.235 N 
ATOM      2  N   UNL     1      35.596 -18.476 -23.608  0.00  0.00    -0.180 NA
ATOM      3  C   UNL     1      34.813 -19.291 -21.623  0.00  0.00    +0.015 C 
ATOM      4  C   UNL     1      35.991 -18.629 -21.379  0.00  0.00    +0.077 C 
ATOM      5  C   UNL     1      33.948 -19.979 -20.650  0.00  0.00    +0.034 C 
ATOM      6  C   UNL     1      34.619 -19.165 -23.012  0.00  0.00    +0.115 C 
ATOM      7  H   UNL     1      37.244 -17.645 -22.705  0.00  0.00    +0.174 HD
ENDROOT
TORSDOF 0
ENDMDL
MODEL 8
REMARK VINA RESULT:      -4.0      6.890      7.710
REMARK  Name = 3406
REMARK  0 active torsions:
REMARK  status: ('A' for Active; 'I' for Inactive)
REMARK                            x       y       z     vdW  Elec       q    Type
REMARK                         _______ _______ _______ _____ _____    ______ ____
ROOT
ATOM      1  N   UNL     1      35.319 -16.824 -24.497  0.00  0.00    -0.235 N 
ATOM      2  N   UNL     1      34.672 -16.784 -25.673  0.00  0.00    -0.180 NA
ATOM      3  C   UNL     1      33.875 -15.208 -24.223  0.00  0.00    +0.015 C 
ATOM      4  C   UNL     1      34.880 -15.901 -23.593  0.00  0.00    +0.077 C 
ATOM      5  C   UNL     1      33.069 -14.102 -23.683  0.00  0.00    +0.034 C 
ATOM      6  C   UNL     1      33.790 -15.795 -25.501  0.00  0.00    +0.115 C 
ATOM      7  H   UNL     1      36.045 -17.461 -24.303  0.00  0.00    +0.174 HD
ENDROOT
TORSDOF 0
ENDMDL
MODEL 9
REMARK VINA RESULT:      -4.0      9.949     10.626
REMARK  Name = 3406
REMARK  0 active torsions:
REMARK  status: ('A' for Active; 'I' for Inactive)
REMARK                            x       y       z     vdW  Elec       q    Type
REMARK                         _______ _______ _______ _____ _____    ______ ____
ROOT
ATOM      1  N   UNL     1      40.675 -15.314 -15.067  0.00  0.00    -0.235 N 
ATOM      2  N   UNL     1      40.977 -16.074 -16.133  0.00  0.00    -0.180 NA
ATOM      3  C   UNL     1      41.656 -13.913 -16.425  0.00  0.00    +0.015 C 
ATOM      4  C   UNL     1      41.060 -14.011 -15.192  0.00  0.00    +0.077 C 
ATOM      5  C   UNL     1      42.244 -12.716 -17.048  0.00  0.00    +0.034 C 
ATOM      6  C   UNL     1      41.576 -15.213 -16.960  0.00  0.00    +0.115 C 
ATOM      7  H   UNL     1      40.218 -15.665 -14.268  0.00  0.00    +0.174 HD
ENDROOT
TORSDOF 0
ENDMDL
