MODEL 1
REMARK VINA RESULT:      -7.5      0.000      0.000
REMARK  Name = 100016
REMARK  5 active torsions:
REMARK  status: ('A' for Active; 'I' for Inactive)
REMARK    1  A    between atoms: C2*_2  and  O2*_13
REMARK    2  A    between atoms: C3*_3  and  O3*_15
REMARK    3  A    between atoms: C1*_4  and  N_7
REMARK    4  A    between atoms: C4*_5  and  C5*_17
REMARK    5  A    between atoms: C5*_17  and  O5*_18
REMARK                            x       y       z     vdW  Elec       q    Type
REMARK                         _______ _______ _______ _____ _____    ______ ____
ROOT
ATOM      1  O4* UNL     1      35.138 -17.055 -20.755  0.00  0.00    -0.332 OA
ATOM      2  C2* UNL     1      34.488 -17.980 -22.837  0.00  0.00    +0.187 C 
ATOM      3  C3* UNL     1      34.545 -16.472 -22.973  0.00  0.00    +0.171 C 
ATOM      4  C1* UNL     1      35.313 -18.215 -21.584  0.00  0.00    +0.232 C 
ATOM      5  C4* UNL     1      34.485 -16.019 -21.521  0.00  0.00    +0.175 C 
ENDROOT
BRANCH   4   7
ATOM      6  O   UNL     1      37.019 -19.959 -20.170  0.00  0.00    -0.206 OA
ATOM      7  N   UNL     1      34.889 -19.376 -20.857  0.00  0.00    -0.206 N 
ATOM      8  N   UNL     1      35.330 -21.317 -19.485  0.00  0.00    -0.162 NA
ATOM      9  C   UNL     1      33.533 -19.688 -20.833  0.00  0.00    +0.133 C 
ATOM     10  C   UNL     1      35.812 -20.211 -20.167  0.00  0.00    +0.218 C 
ATOM     11  C   UNL     1      33.047 -20.746 -20.186  0.00  0.00    +0.018 C 
ATOM     12  C   UNL     1      34.060 -21.556 -19.500  0.00  0.00    +0.109 C 
ENDBRANCH   4   7
BRANCH   2  13
ATOM     13  O2* UNL     1      35.017 -18.641 -23.968  0.00  0.00    -0.378 OA
ATOM     14  H2* UNL     1      35.129 -18.004 -24.692  0.00  0.00    +0.211 HD
ENDBRANCH   2  13
BRANCH   3  15
ATOM     15  O3* UNL     1      35.807 -16.072 -23.508  0.00  0.00    -0.379 OA
ATOM     16  H3* UNL     1      36.149 -16.770 -24.087  0.00  0.00    +0.211 HD
ENDBRANCH   3  15
BRANCH   5  17
ATOM     17  C5* UNL     1      33.063 -15.866 -20.997  0.00  0.00    +0.169 C 
BRANCH  17  18
ATOM     18  O5* UNL     1      32.349 -15.008 -21.870  0.00  0.00    -0.379 OA
ATOM     19  H5* UNL     1      32.150 -15.480 -22.694  0.00  0.00    +0.211 HD
ENDBRANCH  17  18
ENDBRANCH   5  17
TORSDOF 5
ENDMDL
MODEL 2
REMARK VINA RESULT:      -7.4      7.016     10.340
REMARK  Name = 100016
REMARK  5 active torsions:
REMARK  status: ('A' for Active; 'I' for Inactive)
REMARK    1  A    between atoms: C2*_2  and  O2*_13
REMARK    2  A    between atoms: C3*_3  and  O3*_15
REMARK    3  A    between atoms: C1*_4  and  N_7
REMARK    4  A    between atoms: C4*_5  and  C5*_17
REMARK    5  A    between atoms: C5*_17  and  O5*_18
REMARK                            x       y       z     vdW  Elec       q    Type
REMARK                         _______ _______ _______ _____ _____    ______ ____
ROOT
ATOM      1  O4* UNL     1      37.896 -24.100 -13.729  0.00  0.00    -0.332 OA
ATOM      2  C2* UNL     1      36.858 -25.884 -14.893  0.00  0.00    +0.187 C 
ATOM      3  C3* UNL     1      37.712 -26.461 -13.784  0.00  0.00    +0.171 C 
ATOM      4  C1* UNL     1      36.702 -24.439 -14.452  0.00  0.00    +0.232 C 
ATOM      5  C4* UNL     1      38.650 -25.304 -13.469  0.00  0.00    +0.175 C 
ENDROOT
BRANCH   4   7
ATOM      6  O   UNL     1      34.385 -24.178 -16.036  0.00  0.00    -0.206 OA
ATOM      7  N   UNL     1      36.556 -23.539 -15.559  0.00  0.00    -0.206 N 
ATOM      8  N   UNL     1      35.281 -22.572 -17.372  0.00  0.00    -0.162 NA
ATOM      9  C   UNL     1      37.628 -22.720 -15.898  0.00  0.00    +0.133 C 
ATOM     10  C   UNL     1      35.351 -23.465 -16.314  0.00  0.00    +0.218 C 
ATOM     11  C   UNL     1      37.585 -21.855 -16.910  0.00  0.00    +0.018 C 
ATOM     12  C   UNL     1      36.311 -21.838 -17.639  0.00  0.00    +0.109 C 
ENDBRANCH   4   7
BRANCH   2  13
ATOM     13  O2* UNL     1      35.619 -26.551 -15.020  0.00  0.00    -0.378 OA
ATOM     14  H2* UNL     1      35.742 -27.364 -15.535  0.00  0.00    +0.211 HD
ENDBRANCH   2  13
BRANCH   3  15
ATOM     15  O3* UNL     1      36.915 -26.710 -12.625  0.00  0.00    -0.379 OA
ATOM     16  H3* UNL     1      36.797 -27.666 -12.513  0.00  0.00    +0.211 HD
ENDBRANCH   3  15
BRANCH   5  17
ATOM     17  C5* UNL     1      39.895 -25.284 -14.345  0.00  0.00    +0.169 C 
BRANCH  17  18
ATOM     18  O5* UNL     1      40.275 -26.620 -14.623  0.00  0.00    -0.379 OA
ATOM     19  H5* UNL     1      40.851 -26.946 -13.914  0.00  0.00    +0.211 HD
ENDBRANCH  17  18
ENDBRANCH   5  17
TORSDOF 5
ENDMDL
MODEL 3
REMARK VINA RESULT:      -7.0      6.698      8.912
REMARK  Name = 100016
REMARK  5 active torsions:
REMARK  status: ('A' for Active; 'I' for Inactive)
REMARK    1  A    between atoms: C2*_2  and  O2*_13
REMARK    2  A    between atoms: C3*_3  and  O3*_15
REMARK    3  A    between atoms: C1*_4  and  N_7
REMARK    4  A    between atoms: C4*_5  and  C5*_17
REMARK    5  A    between atoms: C5*_17  and  O5*_18
REMARK                            x       y       z     vdW  Elec       q    Type
REMARK                         _______ _______ _______ _____ _____    ______ ____
ROOT
ATOM      1  O4* UNL     1      35.011 -24.912 -14.715  0.00  0.00    -0.332 OA
ATOM      2  C2* UNL     1      35.922 -22.859 -15.468  0.00  0.00    +0.187 C 
ATOM      3  C3* UNL     1      36.929 -23.531 -14.558  0.00  0.00    +0.171 C 
ATOM      4  C1* UNL     1      35.009 -24.015 -15.837  0.00  0.00    +0.232 C 
ATOM      5  C4* UNL     1      36.060 -24.525 -13.801  0.00  0.00    +0.175 C 
ENDROOT
BRANCH   4   7
ATOM      6  O   UNL     1      34.012 -23.203 -18.346  0.00  0.00    -0.206 OA
ATOM      7  N   UNL     1      33.663 -23.591 -16.093  0.00  0.00    -0.206 N 
ATOM      8  N   UNL     1      31.917 -22.796 -17.564  0.00  0.00    -0.162 NA
ATOM      9  C   UNL     1      32.759 -23.570 -15.037  0.00  0.00    +0.133 C 
ATOM     10  C   UNL     1      33.233 -23.194 -17.391  0.00  0.00    +0.218 C 
ATOM     11  C   UNL     1      31.489 -23.191 -15.178  0.00  0.00    +0.018 C 
ATOM     12  C   UNL     1      31.124 -22.797 -16.544  0.00  0.00    +0.109 C 
ENDBRANCH   4   7
BRANCH   2  13
ATOM     13  O2* UNL     1      36.531 -22.265 -16.597  0.00  0.00    -0.378 OA
ATOM     14  H2* UNL     1      35.964 -21.553 -16.932  0.00  0.00    +0.211 HD
ENDBRANCH   2  13
BRANCH   3  15
ATOM     15  O3* UNL     1      37.875 -24.272 -15.330  0.00  0.00    -0.379 OA
ATOM     16  H3* UNL     1      37.457 -25.079 -15.666  0.00  0.00    +0.211 HD
ENDBRANCH   3  15
BRANCH   5  17
ATOM     17  C5* UNL     1      35.411 -23.931 -12.558  0.00  0.00    +0.169 C 
BRANCH  17  18
ATOM     18  O5* UNL     1      34.870 -24.986 -11.782  0.00  0.00    -0.379 OA
ATOM     19  H5* UNL     1      35.593 -25.518 -11.411  0.00  0.00    +0.211 HD
ENDBRANCH  17  18
ENDBRANCH   5  17
TORSDOF 5
ENDMDL
MODEL 4
REMARK VINA RESULT:      -7.0      7.552     10.325
REMARK  Name = 100016
REMARK  5 active torsions:
REMARK  status: ('A' for Active; 'I' for Inactive)
REMARK    1  A    between atoms: C2*_2  and  O2*_13
REMARK    2  A    between atoms: C3*_3  and  O3*_15
REMARK    3  A    between atoms: C1*_4  and  N_7
REMARK    4  A    between atoms: C4*_5  and  C5*_17
REMARK    5  A    between atoms: C5*_17  and  O5*_18
REMARK                            x       y       z     vdW  Elec       q    Type
REMARK                         _______ _______ _______ _____ _____    ______ ____
ROOT
ATOM      1  O4* UNL     1      35.303 -25.031 -15.511  0.00  0.00    -0.332 OA
ATOM      2  C2* UNL     1      35.001 -24.362 -13.258  0.00  0.00    +0.187 C 
ATOM      3  C3* UNL     1      33.762 -23.987 -14.045  0.00  0.00    +0.171 C 
ATOM      4  C1* UNL     1      35.651 -25.392 -14.165  0.00  0.00    +0.232 C 
ATOM      5  C4* UNL     1      34.275 -24.018 -15.478  0.00  0.00    +0.175 C 
ENDROOT
BRANCH   4   7
ATOM      6  O   UNL     1      37.084 -26.576 -12.044  0.00  0.00    -0.206 OA
ATOM      7  N   UNL     1      37.080 -25.408 -14.041  0.00  0.00    -0.206 N 
ATOM      8  N   UNL     1      39.118 -26.003 -12.883  0.00  0.00    -0.162 NA
ATOM      9  C   UNL     1      37.842 -24.798 -15.032  0.00  0.00    +0.133 C 
ATOM     10  C   UNL     1      37.733 -26.027 -12.937  0.00  0.00    +0.218 C 
ATOM     11  C   UNL     1      39.173 -24.762 -15.002  0.00  0.00    +0.018 C 
ATOM     12  C   UNL     1      39.770 -25.421 -13.834  0.00  0.00    +0.109 C 
ENDBRANCH   4   7
BRANCH   2  13
ATOM     13  O2* UNL     1      34.689 -24.880 -11.981  0.00  0.00    -0.378 OA
ATOM     14  H2* UNL     1      33.772 -25.194 -11.976  0.00  0.00    +0.211 HD
ENDBRANCH   2  13
BRANCH   3  15
ATOM     15  O3* UNL     1      32.767 -25.002 -13.911  0.00  0.00    -0.379 OA
ATOM     16  H3* UNL     1      32.199 -24.800 -13.152  0.00  0.00    +0.211 HD
ENDBRANCH   3  15
BRANCH   5  17
ATOM     17  C5* UNL     1      34.893 -22.700 -15.925  0.00  0.00    +0.169 C 
BRANCH  17  18
ATOM     18  O5* UNL     1      35.414 -22.864 -17.232  0.00  0.00    -0.379 OA
ATOM     19  H5* UNL     1      34.896 -22.331 -17.856  0.00  0.00    +0.211 HD
ENDBRANCH  17  18
ENDBRANCH   5  17
TORSDOF 5
ENDMDL
MODEL 5
REMARK VINA RESULT:      -7.0      7.111     10.254
REMARK  Name = 100016
REMARK  5 active torsions:
REMARK  status: ('A' for Active; 'I' for Inactive)
REMARK    1  A    between atoms: C2*_2  and  O2*_13
REMARK    2  A    between atoms: C3*_3  and  O3*_15
REMARK    3  A    between atoms: C1*_4  and  N_7
REMARK    4  A    between atoms: C4*_5  and  C5*_17
REMARK    5  A    between atoms: C5*_17  and  O5*_18
REMARK                            x       y       z     vdW  Elec       q    Type
REMARK                         _______ _______ _______ _____ _____    ______ ____
ROOT
ATOM      1  O4* UNL     1      35.772 -23.763 -13.057  0.00  0.00    -0.332 OA
ATOM      2  C2* UNL     1      37.564 -25.067 -13.895  0.00  0.00    +0.187 C 
ATOM      3  C3* UNL     1      37.495 -25.246 -12.392  0.00  0.00    +0.171 C 
ATOM      4  C1* UNL     1      36.185 -24.514 -14.210  0.00  0.00    +0.232 C 
ATOM      5  C4* UNL     1      36.677 -24.035 -11.965  0.00  0.00    +0.175 C 
ENDROOT
BRANCH   4   7
ATOM      6  O   UNL     1      33.982 -24.059 -15.910  0.00  0.00    -0.206 OA
ATOM      7  N   UNL     1      36.189 -23.648 -15.354  0.00  0.00    -0.206 N 
ATOM      8  N   UNL     1      35.112 -22.618 -17.257  0.00  0.00    -0.162 NA
ATOM      9  C   UNL     1      37.361 -22.969 -15.671  0.00  0.00    +0.133 C 
ATOM     10  C   UNL     1      35.035 -23.470 -16.167  0.00  0.00    +0.218 C 
ATOM     11  C   UNL     1      37.460 -22.146 -16.714  0.00  0.00    +0.018 C 
ATOM     12  C   UNL     1      36.229 -22.015 -17.501  0.00  0.00    +0.109 C 
ENDBRANCH   4   7
BRANCH   2  13
ATOM     13  O2* UNL     1      37.830 -26.281 -14.568  0.00  0.00    -0.378 OA
ATOM     14  H2* UNL     1      37.228 -26.369 -15.324  0.00  0.00    +0.211 HD
ENDBRANCH   2  13
BRANCH   3  15
ATOM     15  O3* UNL     1      36.749 -26.419 -12.068  0.00  0.00    -0.379 OA
ATOM     16  H3* UNL     1      35.898 -26.164 -11.681  0.00  0.00    +0.211 HD
ENDBRANCH   3  15
BRANCH   5  17
ATOM     17  C5* UNL     1      37.522 -22.791 -11.726  0.00  0.00    +0.169 C 
BRANCH  17  18
ATOM     18  O5* UNL     1      38.875 -23.185 -11.582  0.00  0.00    -0.379 OA
ATOM     19  H5* UNL     1      39.226 -23.455 -12.445  0.00  0.00    +0.211 HD
ENDBRANCH  17  18
ENDBRANCH   5  17
TORSDOF 5
ENDMDL
MODEL 6
REMARK VINA RESULT:      -7.0      6.766      9.981
REMARK  Name = 100016
REMARK  5 active torsions:
REMARK  status: ('A' for Active; 'I' for Inactive)
REMARK    1  A    between atoms: C2*_2  and  O2*_13
REMARK    2  A    between atoms: C3*_3  and  O3*_15
REMARK    3  A    between atoms: C1*_4  and  N_7
REMARK    4  A    between atoms: C4*_5  and  C5*_17
REMARK    5  A    between atoms: C5*_17  and  O5*_18
REMARK                            x       y       z     vdW  Elec       q    Type
REMARK                         _______ _______ _______ _____ _____    ______ ____
ROOT
ATOM      1  O4* UNL     1      38.281 -24.008 -14.637  0.00  0.00    -0.332 OA
ATOM      2  C2* UNL     1      36.699 -23.784 -12.888  0.00  0.00    +0.187 C 
ATOM      3  C3* UNL     1      37.959 -24.407 -12.325  0.00  0.00    +0.171 C 
ATOM      4  C1* UNL     1      37.201 -23.176 -14.186  0.00  0.00    +0.232 C 
ATOM      5  C4* UNL     1      38.649 -24.921 -13.581  0.00  0.00    +0.175 C 
ENDROOT
BRANCH   4   7
ATOM      6  O   UNL     1      37.453 -21.890 -16.682  0.00  0.00    -0.206 OA
ATOM      7  N   UNL     1      36.187 -23.135 -15.201  0.00  0.00    -0.206 N 
ATOM      8  N   UNL     1      35.365 -22.465 -17.373  0.00  0.00    -0.162 NA
ATOM      9  C   UNL     1      34.975 -23.773 -14.958  0.00  0.00    +0.133 C 
ATOM     10  C   UNL     1      36.389 -22.463 -16.439  0.00  0.00    +0.218 C 
ATOM     11  C   UNL     1      33.977 -23.788 -15.839  0.00  0.00    +0.018 C 
ATOM     12  C   UNL     1      34.262 -23.075 -17.089  0.00  0.00    +0.109 C 
ENDBRANCH   4   7
BRANCH   2  13
ATOM     13  O2* UNL     1      36.140 -22.822 -12.017  0.00  0.00    -0.378 OA
ATOM     14  H2* UNL     1      36.852 -22.306 -11.606  0.00  0.00    +0.211 HD
ENDBRANCH   2  13
BRANCH   3  15
ATOM     15  O3* UNL     1      38.791 -23.402 -11.746  0.00  0.00    -0.379 OA
ATOM     16  H3* UNL     1      39.504 -23.823 -11.240  0.00  0.00    +0.211 HD
ENDBRANCH   3  15
BRANCH   5  17
ATOM     17  C5* UNL     1      38.200 -26.320 -13.984  0.00  0.00    +0.169 C 
BRANCH  17  18
ATOM     18  O5* UNL     1      38.056 -26.360 -15.393  0.00  0.00    -0.379 OA
ATOM     19  H5* UNL     1      37.245 -25.891 -15.648  0.00  0.00    +0.211 HD
ENDBRANCH  17  18
ENDBRANCH   5  17
TORSDOF 5
ENDMDL
MODEL 7
REMARK VINA RESULT:      -6.9      7.799      9.626
REMARK  Name = 100016
REMARK  5 active torsions:
REMARK  status: ('A' for Active; 'I' for Inactive)
REMARK    1  A    between atoms: C2*_2  and  O2*_13
REMARK    2  A    between atoms: C3*_3  and  O3*_15
REMARK    3  A    between atoms: C1*_4  and  N_7
REMARK    4  A    between atoms: C4*_5  and  C5*_17
REMARK    5  A    between atoms: C5*_17  and  O5*_18
REMARK                            x       y       z     vdW  Elec       q    Type
REMARK                         _______ _______ _______ _____ _____    ______ ____
ROOT
ATOM      1  O4* UNL     1      35.797 -23.367 -13.843  0.00  0.00    -0.332 OA
ATOM      2  C2* UNL     1      35.984 -25.376 -15.086  0.00  0.00    +0.187 C 
ATOM      3  C3* UNL     1      37.352 -25.011 -14.545  0.00  0.00    +0.171 C 
ATOM      4  C1* UNL     1      35.066 -24.550 -14.202  0.00  0.00    +0.232 C 
ATOM      5  C4* UNL     1      37.181 -23.534 -14.220  0.00  0.00    +0.175 C 
ENDROOT
BRANCH   4   7
ATOM      6  O   UNL     1      32.465 -24.812 -13.145  0.00  0.00    -0.206 OA
ATOM      7  N   UNL     1      33.858 -24.165 -14.874  0.00  0.00    -0.206 N 
ATOM      8  N   UNL     1      31.453 -23.936 -14.983  0.00  0.00    -0.162 NA
ATOM      9  C   UNL     1      33.951 -23.618 -16.150  0.00  0.00    +0.133 C 
ATOM     10  C   UNL     1      32.578 -24.330 -14.274  0.00  0.00    +0.218 C 
ATOM     11  C   UNL     1      32.885 -23.233 -16.850  0.00  0.00    +0.018 C 
ATOM     12  C   UNL     1      31.604 -23.435 -16.164  0.00  0.00    +0.109 C 
ENDBRANCH   4   7
BRANCH   2  13
ATOM     13  O2* UNL     1      35.724 -26.762 -14.996  0.00  0.00    -0.378 OA
ATOM     14  H2* UNL     1      36.535 -27.226 -14.734  0.00  0.00    +0.211 HD
ENDBRANCH   2  13
BRANCH   3  15
ATOM     15  O3* UNL     1      37.601 -25.705 -13.323  0.00  0.00    -0.379 OA
ATOM     16  H3* UNL     1      37.510 -25.092 -12.578  0.00  0.00    +0.211 HD
ENDBRANCH   3  15
BRANCH   5  17
ATOM     17  C5* UNL     1      37.464 -22.620 -15.405  0.00  0.00    +0.169 C 
BRANCH  17  18
ATOM     18  O5* UNL     1      38.541 -23.163 -16.149  0.00  0.00    -0.379 OA
ATOM     19  H5* UNL     1      38.394 -24.113 -16.282  0.00  0.00    +0.211 HD
ENDBRANCH  17  18
ENDBRANCH   5  17
TORSDOF 5
ENDMDL
MODEL 8
REMARK VINA RESULT:      -6.9      3.087      4.025
REMARK  Name = 100016
REMARK  5 active torsions:
REMARK  status: ('A' for Active; 'I' for Inactive)
REMARK    1  A    between atoms: C2*_2  and  O2*_13
REMARK    2  A    between atoms: C3*_3  and  O3*_15
REMARK    3  A    between atoms: C1*_4  and  N_7
REMARK    4  A    between atoms: C4*_5  and  C5*_17
REMARK    5  A    between atoms: C5*_17  and  O5*_18
REMARK                            x       y       z     vdW  Elec       q    Type
REMARK                         _______ _______ _______ _____ _____    ______ ____
ROOT
ATOM      1  O4* UNL     1      34.649 -14.719 -22.332  0.00  0.00    -0.332 OA
ATOM      2  C2* UNL     1      33.342 -14.760 -24.307  0.00  0.00    +0.187 C 
ATOM      3  C3* UNL     1      33.163 -13.414 -23.635  0.00  0.00    +0.171 C 
ATOM      4  C1* UNL     1      34.617 -15.269 -23.658  0.00  0.00    +0.232 C 
ATOM      5  C4* UNL     1      33.630 -13.702 -22.215  0.00  0.00    +0.175 C 
ENDROOT
BRANCH   4   7
ATOM      6  O   UNL     1      34.843 -17.026 -25.852  0.00  0.00    -0.206 OA
ATOM      7  N   UNL     1      34.654 -16.701 -23.570  0.00  0.00    -0.206 N 
ATOM      8  N   UNL     1      34.798 -18.899 -24.566  0.00  0.00    -0.162 NA
ATOM      9  C   UNL     1      34.573 -17.293 -22.314  0.00  0.00    +0.133 C 
ATOM     10  C   UNL     1      34.768 -17.523 -24.726  0.00  0.00    +0.218 C 
ATOM     11  C   UNL     1      34.598 -18.613 -22.135  0.00  0.00    +0.018 C 
ATOM     12  C   UNL     1      34.718 -19.391 -23.373  0.00  0.00    +0.109 C 
ENDBRANCH   4   7
BRANCH   2  13
ATOM     13  O2* UNL     1      33.453 -14.648 -25.711  0.00  0.00    -0.378 OA
ATOM     14  H2* UNL     1      34.365 -14.414 -25.945  0.00  0.00    +0.211 HD
ENDBRANCH   2  13
BRANCH   3  15
ATOM     15  O3* UNL     1      34.054 -12.455 -24.206  0.00  0.00    -0.379 OA
ATOM     16  H3* UNL     1      34.731 -12.912 -24.727  0.00  0.00    +0.211 HD
ENDBRANCH   3  15
BRANCH   5  17
ATOM     17  C5* UNL     1      32.524 -14.239 -21.316  0.00  0.00    +0.169 C 
BRANCH  17  18
ATOM     18  O5* UNL     1      33.119 -14.944 -20.240  0.00  0.00    -0.379 OA
ATOM     19  H5* UNL     1      33.251 -14.340 -19.492  0.00  0.00    +0.211 HD
ENDBRANCH  17  18
ENDBRANCH   5  17
TORSDOF 5
ENDMDL
MODEL 9
REMARK VINA RESULT:      -6.9      6.794      8.823
REMARK  Name = 100016
REMARK  5 active torsions:
REMARK  status: ('A' for Active; 'I' for Inactive)
REMARK    1  A    between atoms: C2*_2  and  O2*_13
REMARK    2  A    between atoms: C3*_3  and  O3*_15
REMARK    3  A    between atoms: C1*_4  and  N_7
REMARK    4  A    between atoms: C4*_5  and  C5*_17
REMARK    5  A    between atoms: C5*_17  and  O5*_18
REMARK                            x       y       z     vdW  Elec       q    Type
REMARK                         _______ _______ _______ _____ _____    ______ ____
ROOT
ATOM      1  O4* UNL     1      30.929 -24.208 -15.913  0.00  0.00    -0.332 OA
ATOM      2  C2* UNL     1      32.004 -23.101 -14.115  0.00  0.00    +0.187 C 
ATOM      3  C3* UNL     1      30.595 -23.460 -13.691  0.00  0.00    +0.171 C 
ATOM      4  C1* UNL     1      32.217 -24.018 -15.308  0.00  0.00    +0.232 C 
ATOM      5  C4* UNL     1      29.909 -23.694 -15.029  0.00  0.00    +0.175 C 
ENDROOT
BRANCH   4   7
ATOM      6  O   UNL     1      35.022 -23.892 -15.051  0.00  0.00    -0.206 OA
ATOM      7  N   UNL     1      33.111 -23.457 -16.279  0.00  0.00    -0.206 N 
ATOM      8  N   UNL     1      35.323 -22.870 -17.059  0.00  0.00    -0.162 NA
ATOM      9  C   UNL     1      32.577 -22.926 -17.448  0.00  0.00    +0.133 C 
ATOM     10  C   UNL     1      34.520 -23.429 -16.077  0.00  0.00    +0.218 C 
ATOM     11  C   UNL     1      33.328 -22.383 -18.405  0.00  0.00    +0.018 C 
ATOM     12  C   UNL     1      34.768 -22.392 -18.123  0.00  0.00    +0.109 C 
ENDBRANCH   4   7
BRANCH   2  13
ATOM     13  O2* UNL     1      32.947 -23.319 -13.086  0.00  0.00    -0.378 OA
ATOM     14  H2* UNL     1      33.056 -22.505 -12.571  0.00  0.00    +0.211 HD
ENDBRANCH   2  13
BRANCH   3  15
ATOM     15  O3* UNL     1      30.595 -24.695 -12.974  0.00  0.00    -0.379 OA
ATOM     16  H3* UNL     1      29.698 -24.887 -12.660  0.00  0.00    +0.211 HD
ENDBRANCH   3  15
BRANCH   5  17
ATOM     17  C5* UNL     1      29.343 -22.422 -15.646  0.00  0.00    +0.169 C 
BRANCH  17  18
ATOM     18  O5* UNL     1      29.168 -22.632 -17.036  0.00  0.00    -0.379 OA
ATOM     19  H5* UNL     1      29.028 -23.577 -17.205  0.00  0.00    +0.211 HD
ENDBRANCH  17  18
ENDBRANCH   5  17
TORSDOF 5
ENDMDL
