MODEL 1
REMARK VINA RESULT:      -5.3      0.000      0.000
REMARK  Name = 15227560
REMARK  6 active torsions:
REMARK  status: ('A' for Active; 'I' for Inactive)
REMARK    1  A    between atoms: C_1  and  N_2
REMARK    2  A    between atoms: C_1  and  C_7
REMARK    3  A    between atoms: C_1  and  C_10
REMARK    4  A    between atoms: C_7  and  O_8
REMARK    5  A    between atoms: C_10  and  C_11
REMARK    6  A    between atoms: C_11  and  C_14
REMARK                            x       y       z     vdW  Elec       q    Type
REMARK                         _______ _______ _______ _____ _____    ______ ____
ROOT
ATOM      1  C   UNK     1      39.212 -25.091 -14.242  0.00  0.00    +0.036 C 
ENDROOT
BRANCH   1   2
ATOM      2  N   UNK     1      38.552 -24.521 -15.419  0.00  0.00    +0.389 N 
ATOM      3  H   UNK     1      38.879 -23.566 -15.564  0.00  0.00    -0.088 HD
ATOM      4  H   UNK     1      37.542 -24.515 -15.273  0.00  0.00    -0.088 HD
ATOM      5  H   UNK     1      38.774 -25.085 -16.239  0.00  0.00    -0.088 HD
ENDBRANCH   1   2
BRANCH   1   7
ATOM      6  O   UNK     1      41.150 -26.563 -14.062  0.00  0.00    -0.253 OA
ATOM      7  C   UNK     1      40.361 -25.933 -14.753  0.00  0.00    +0.293 C 
BRANCH   7   8
ATOM      8  O   UNK     1      40.393 -25.928 -16.110  0.00  0.00    -0.482 OA
ATOM      9  H   UNK     1      39.735 -25.465 -16.591  0.00  0.00    +0.295 HD
ENDBRANCH   7   8
ENDBRANCH   1   7
BRANCH   1  10
ATOM     10  C   UNK     1      38.206 -25.941 -13.453  0.00  0.00    -0.008 C 
BRANCH  10  11
ATOM     11  C   UNK     1      37.499 -25.212 -12.293  0.00  0.00    +0.034 C 
ATOM     12  C   UNK     1      36.049 -24.853 -12.628  0.00  0.00    +0.003 C 
BRANCH  11  14
ATOM     13  F   UNK     1      37.415 -23.027 -11.411  0.00  0.00    -0.234 F 
ATOM     14  C   UNK     1      38.275 -23.943 -11.932  0.00  0.00    +0.193 C 
ENDBRANCH  11  14
ENDBRANCH  10  11
ENDBRANCH   1  10
TORSDOF 6
ENDMDL
MODEL 2
REMARK VINA RESULT:      -5.3     11.279     11.915
REMARK  Name = 15227560
REMARK  6 active torsions:
REMARK  status: ('A' for Active; 'I' for Inactive)
REMARK    1  A    between atoms: C_1  and  N_2
REMARK    2  A    between atoms: C_1  and  C_7
REMARK    3  A    between atoms: C_1  and  C_10
REMARK    4  A    between atoms: C_7  and  O_8
REMARK    5  A    between atoms: C_10  and  C_11
REMARK    6  A    between atoms: C_11  and  C_14
REMARK                            x       y       z     vdW  Elec       q    Type
REMARK                         _______ _______ _______ _____ _____    ______ ____
ROOT
ATOM      1  C   UNK     1      40.974 -14.383 -15.561  0.00  0.00    +0.036 C 
ENDROOT
BRANCH   1   2
ATOM      2  N   UNK     1      40.598 -13.868 -14.242  0.00  0.00    +0.389 N 
ATOM      3  H   UNK     1      39.771 -14.362 -13.906  0.00  0.00    -0.088 HD
ATOM      4  H   UNK     1      40.392 -12.870 -14.312  0.00  0.00    -0.088 HD
ATOM      5  H   UNK     1      41.369 -14.011 -13.590  0.00  0.00    -0.088 HD
ENDBRANCH   1   2
BRANCH   1   7
ATOM      6  O   UNK     1      42.119 -16.536 -15.488  0.00  0.00    -0.253 OA
ATOM      7  C   UNK     1      41.085 -15.886 -15.425  0.00  0.00    +0.293 C 
BRANCH   7   8
ATOM      8  O   UNK     1      39.866 -16.438 -15.192  0.00  0.00    -0.482 OA
ATOM      9  H   UNK     1      39.275 -16.028 -14.590  0.00  0.00    +0.295 HD
ENDBRANCH   7   8
ENDBRANCH   1   7
BRANCH   1  10
ATOM     10  C   UNK     1      42.311 -13.763 -15.991  0.00  0.00    -0.008 C 
BRANCH  10  11
ATOM     11  C   UNK     1      42.385 -13.321 -17.466  0.00  0.00    +0.034 C 
ATOM     12  C   UNK     1      42.483 -11.801 -17.615  0.00  0.00    +0.003 C 
BRANCH  11  14
ATOM     13  F   UNK     1      41.449 -15.042 -18.778  0.00  0.00    -0.234 F 
ATOM     14  C   UNK     1      41.156 -13.836 -18.220  0.00  0.00    +0.193 C 
ENDBRANCH  11  14
ENDBRANCH  10  11
ENDBRANCH   1  10
TORSDOF 6
ENDMDL
MODEL 3
REMARK VINA RESULT:      -5.3     10.986     11.576
REMARK  Name = 15227560
REMARK  6 active torsions:
REMARK  status: ('A' for Active; 'I' for Inactive)
REMARK    1  A    between atoms: C_1  and  N_2
REMARK    2  A    between atoms: C_1  and  C_7
REMARK    3  A    between atoms: C_1  and  C_10
REMARK    4  A    between atoms: C_7  and  O_8
REMARK    5  A    between atoms: C_10  and  C_11
REMARK    6  A    between atoms: C_11  and  C_14
REMARK                            x       y       z     vdW  Elec       q    Type
REMARK                         _______ _______ _______ _____ _____    ______ ____
ROOT
ATOM      1  C   UNK     1      35.571 -18.050 -22.308  0.00  0.00    +0.036 C 
ENDROOT
BRANCH   1   2
ATOM      2  N   UNK     1      35.182 -17.157 -21.213  0.00  0.00    +0.389 N 
ATOM      3  H   UNK     1      35.276 -16.187 -21.515  0.00  0.00    -0.088 HD
ATOM      4  H   UNK     1      35.789 -17.321 -20.408  0.00  0.00    -0.088 HD
ATOM      5  H   UNK     1      34.214 -17.340 -20.952  0.00  0.00    -0.088 HD
ENDBRANCH   1   2
BRANCH   1   7
ATOM      6  O   UNK     1      34.474 -17.859 -24.479  0.00  0.00    -0.253 OA
ATOM      7  C   UNK     1      35.158 -17.366 -23.593  0.00  0.00    +0.293 C 
BRANCH   7   8
ATOM      8  O   UNK     1      35.630 -16.093 -23.632  0.00  0.00    -0.482 OA
ATOM      9  H   UNK     1      36.549 -15.933 -23.544  0.00  0.00    +0.295 HD
ENDBRANCH   7   8
ENDBRANCH   1   7
BRANCH   1  10
ATOM     10  C   UNK     1      34.859 -19.400 -22.143  0.00  0.00    -0.008 C 
BRANCH  10  11
ATOM     11  C   UNK     1      34.386 -19.722 -20.711  0.00  0.00    +0.034 C 
ATOM     12  C   UNK     1      35.185 -20.864 -20.077  0.00  0.00    +0.003 C 
BRANCH  11  14
ATOM     13  F   UNK     1      32.503 -20.404 -19.467  0.00  0.00    -0.234 F 
ATOM     14  C   UNK     1      32.898 -20.080 -20.729  0.00  0.00    +0.193 C 
ENDBRANCH  11  14
ENDBRANCH  10  11
ENDBRANCH   1  10
TORSDOF 6
ENDMDL
MODEL 4
REMARK VINA RESULT:      -5.2      8.901     10.043
REMARK  Name = 15227560
REMARK  6 active torsions:
REMARK  status: ('A' for Active; 'I' for Inactive)
REMARK    1  A    between atoms: C_1  and  N_2
REMARK    2  A    between atoms: C_1  and  C_7
REMARK    3  A    between atoms: C_1  and  C_10
REMARK    4  A    between atoms: C_7  and  O_8
REMARK    5  A    between atoms: C_10  and  C_11
REMARK    6  A    between atoms: C_11  and  C_14
REMARK                            x       y       z     vdW  Elec       q    Type
REMARK                         _______ _______ _______ _____ _____    ______ ____
ROOT
ATOM      1  C   UNK     1      28.659 -23.540 -15.418  0.00  0.00    +0.036 C 
ENDROOT
BRANCH   1   2
ATOM      2  N   UNK     1      28.919 -24.978 -15.320  0.00  0.00    +0.389 N 
ATOM      3  H   UNK     1      29.916 -25.135 -15.171  0.00  0.00    -0.088 HD
ATOM      4  H   UNK     1      28.630 -25.436 -16.186  0.00  0.00    -0.088 HD
ATOM      5  H   UNK     1      28.393 -25.366 -14.538  0.00  0.00    -0.088 HD
ENDBRANCH   1   2
BRANCH   1   7
ATOM      6  O   UNK     1      27.716 -24.120 -17.593  0.00  0.00    -0.253 OA
ATOM      7  C   UNK     1      28.171 -23.281 -16.827  0.00  0.00    +0.293 C 
BRANCH   7   8
ATOM      8  O   UNK     1      28.276 -21.964 -17.136  0.00  0.00    -0.482 OA
ATOM      9  H   UNK     1      28.955 -21.445 -16.749  0.00  0.00    +0.295 HD
ENDBRANCH   7   8
ENDBRANCH   1   7
BRANCH   1  10
ATOM     10  C   UNK     1      29.952 -22.765 -15.126  0.00  0.00    -0.008 C 
BRANCH  10  11
ATOM     11  C   UNK     1      31.238 -23.617 -15.115  0.00  0.00    +0.034 C 
ATOM     12  C   UNK     1      32.100 -23.354 -13.878  0.00  0.00    +0.003 C 
BRANCH  11  14
ATOM     13  F   UNK     1      31.412 -22.391 -17.122  0.00  0.00    -0.234 F 
ATOM     14  C   UNK     1      32.052 -23.336 -16.381  0.00  0.00    +0.193 C 
ENDBRANCH  11  14
ENDBRANCH  10  11
ENDBRANCH   1  10
TORSDOF 6
ENDMDL
MODEL 5
REMARK VINA RESULT:      -5.2      3.691      4.545
REMARK  Name = 15227560
REMARK  6 active torsions:
REMARK  status: ('A' for Active; 'I' for Inactive)
REMARK    1  A    between atoms: C_1  and  N_2
REMARK    2  A    between atoms: C_1  and  C_7
REMARK    3  A    between atoms: C_1  and  C_10
REMARK    4  A    between atoms: C_7  and  O_8
REMARK    5  A    between atoms: C_10  and  C_11
REMARK    6  A    between atoms: C_11  and  C_14
REMARK                            x       y       z     vdW  Elec       q    Type
REMARK                         _______ _______ _______ _____ _____    ______ ____
ROOT
ATOM      1  C   UNK     1      37.112 -24.351 -12.163  0.00  0.00    +0.036 C 
ENDROOT
BRANCH   1   2
ATOM      2  N   UNK     1      38.084 -23.422 -11.579  0.00  0.00    +0.389 N 
ATOM      3  H   UNK     1      38.563 -23.876 -10.801  0.00  0.00    -0.088 HD
ATOM      4  H   UNK     1      37.599 -22.591 -11.240  0.00  0.00    -0.088 HD
ATOM      5  H   UNK     1      38.765 -23.154 -12.289  0.00  0.00    -0.088 HD
ENDBRANCH   1   2
BRANCH   1   7
ATOM      6  O   UNK     1      36.062 -24.220  -9.964  0.00  0.00    -0.253 OA
ATOM      7  C   UNK     1      35.996 -24.502 -11.152  0.00  0.00    +0.293 C 
BRANCH   7   8
ATOM      8  O   UNK     1      34.872 -24.977 -11.747  0.00  0.00    -0.482 OA
ATOM      9  H   UNK     1      34.704 -25.900 -11.760  0.00  0.00    +0.295 HD
ENDBRANCH   7   8
ENDBRANCH   1   7
BRANCH   1  10
ATOM     10  C   UNK     1      37.795 -25.697 -12.442  0.00  0.00    -0.008 C 
BRANCH  10  11
ATOM     11  C   UNK     1      38.334 -25.874 -13.876  0.00  0.00    +0.034 C 
ATOM     12  C   UNK     1      39.835 -25.589 -13.974  0.00  0.00    +0.003 C 
BRANCH  11  14
ATOM     13  F   UNK     1      38.414 -23.986 -15.287  0.00  0.00    -0.234 F 
ATOM     14  C   UNK     1      37.571 -24.951 -14.830  0.00  0.00    +0.193 C 
ENDBRANCH  11  14
ENDBRANCH  10  11
ENDBRANCH   1  10
TORSDOF 6
ENDMDL
MODEL 6
REMARK VINA RESULT:      -5.2      2.429      2.549
REMARK  Name = 15227560
REMARK  6 active torsions:
REMARK  status: ('A' for Active; 'I' for Inactive)
REMARK    1  A    between atoms: C_1  and  N_2
REMARK    2  A    between atoms: C_1  and  C_7
REMARK    3  A    between atoms: C_1  and  C_10
REMARK    4  A    between atoms: C_7  and  O_8
REMARK    5  A    between atoms: C_10  and  C_11
REMARK    6  A    between atoms: C_11  and  C_14
REMARK                            x       y       z     vdW  Elec       q    Type
REMARK                         _______ _______ _______ _____ _____    ______ ____
ROOT
ATOM      1  C   UNK     1      38.707 -26.023 -14.395  0.00  0.00    +0.036 C 
ENDROOT
BRANCH   1   2
ATOM      2  N   UNK     1      38.708 -25.932 -12.933  0.00  0.00    +0.389 N 
ATOM      3  H   UNK     1      39.277 -26.685 -12.545  0.00  0.00    -0.088 HD
ATOM      4  H   UNK     1      37.752 -26.017 -12.586  0.00  0.00    -0.088 HD
ATOM      5  H   UNK     1      39.096 -25.033 -12.649  0.00  0.00    -0.088 HD
ENDBRANCH   1   2
BRANCH   1   7
ATOM      6  O   UNK     1      40.761 -24.716 -14.221  0.00  0.00    -0.253 OA
ATOM      7  C   UNK     1      40.027 -25.452 -14.867  0.00  0.00    +0.293 C 
BRANCH   7   8
ATOM      8  O   UNK     1      40.319 -25.888 -16.118  0.00  0.00    -0.482 OA
ATOM      9  H   UNK     1      39.934 -25.467 -16.862  0.00  0.00    +0.295 HD
ENDBRANCH   7   8
ENDBRANCH   1   7
BRANCH   1  10
ATOM     10  C   UNK     1      37.523 -25.223 -14.956  0.00  0.00    -0.008 C 
BRANCH  10  11
ATOM     11  C   UNK     1      37.364 -23.799 -14.385  0.00  0.00    +0.034 C 
ATOM     12  C   UNK     1      36.100 -23.649 -13.536  0.00  0.00    +0.003 C 
BRANCH  11  14
ATOM     13  F   UNK     1      38.488 -22.899 -16.253  0.00  0.00    -0.234 F 
ATOM     14  C   UNK     1      37.339 -22.785 -15.532  0.00  0.00    +0.193 C 
ENDBRANCH  11  14
ENDBRANCH  10  11
ENDBRANCH   1  10
TORSDOF 6
ENDMDL
MODEL 7
REMARK VINA RESULT:      -5.2     11.019     11.555
REMARK  Name = 15227560
REMARK  6 active torsions:
REMARK  status: ('A' for Active; 'I' for Inactive)
REMARK    1  A    between atoms: C_1  and  N_2
REMARK    2  A    between atoms: C_1  and  C_7
REMARK    3  A    between atoms: C_1  and  C_10
REMARK    4  A    between atoms: C_7  and  O_8
REMARK    5  A    between atoms: C_10  and  C_11
REMARK    6  A    between atoms: C_11  and  C_14
REMARK                            x       y       z     vdW  Elec       q    Type
REMARK                         _______ _______ _______ _____ _____    ______ ____
ROOT
ATOM      1  C   UNK     1      35.028 -18.007 -22.557  0.00  0.00    +0.036 C 
ENDROOT
BRANCH   1   2
ATOM      2  N   UNK     1      36.452 -18.202 -22.843  0.00  0.00    +0.389 N 
ATOM      3  H   UNK     1      36.937 -17.307 -22.779  0.00  0.00    -0.088 HD
ATOM      4  H   UNK     1      36.560 -18.581 -23.785  0.00  0.00    -0.088 HD
ATOM      5  H   UNK     1      36.848 -18.853 -22.166  0.00  0.00    -0.088 HD
ENDBRANCH   1   2
BRANCH   1   7
ATOM      6  O   UNK     1      33.911 -15.887 -22.095  0.00  0.00    -0.253 OA
ATOM      7  C   UNK     1      34.752 -16.527 -22.712  0.00  0.00    +0.293 C 
BRANCH   7   8
ATOM      8  O   UNK     1      35.593 -15.976 -23.623  0.00  0.00    -0.482 OA
ATOM      9  H   UNK     1      35.829 -15.071 -23.554  0.00  0.00    +0.295 HD
ENDBRANCH   7   8
ENDBRANCH   1   7
BRANCH   1  10
ATOM     10  C   UNK     1      34.724 -18.483 -21.129  0.00  0.00    -0.008 C 
BRANCH  10  11
ATOM     11  C   UNK     1      34.304 -19.962 -21.005  0.00  0.00    +0.034 C 
ATOM     12  C   UNK     1      32.906 -20.123 -20.404  0.00  0.00    +0.003 C 
BRANCH  11  14
ATOM     13  F   UNK     1      36.508 -20.044 -20.170  0.00  0.00    -0.234 F 
ATOM     14  C   UNK     1      35.325 -20.716 -20.149  0.00  0.00    +0.193 C 
ENDBRANCH  11  14
ENDBRANCH  10  11
ENDBRANCH   1  10
TORSDOF 6
ENDMDL
MODEL 8
REMARK VINA RESULT:      -5.1     12.157     12.700
REMARK  Name = 15227560
REMARK  6 active torsions:
REMARK  status: ('A' for Active; 'I' for Inactive)
REMARK    1  A    between atoms: C_1  and  N_2
REMARK    2  A    between atoms: C_1  and  C_7
REMARK    3  A    between atoms: C_1  and  C_10
REMARK    4  A    between atoms: C_7  and  O_8
REMARK    5  A    between atoms: C_10  and  C_11
REMARK    6  A    between atoms: C_11  and  C_14
REMARK                            x       y       z     vdW  Elec       q    Type
REMARK                         _______ _______ _______ _____ _____    ______ ____
ROOT
ATOM      1  C   UNK     1      34.637 -18.180 -23.836  0.00  0.00    +0.036 C 
ENDROOT
BRANCH   1   2
ATOM      2  N   UNK     1      34.632 -19.325 -24.751  0.00  0.00    +0.389 N 
ATOM      3  H   UNK     1      35.325 -19.177 -25.484  0.00  0.00    -0.088 HD
ATOM      4  H   UNK     1      33.707 -19.418 -25.172  0.00  0.00    -0.088 HD
ATOM      5  H   UNK     1      34.858 -20.174 -24.234  0.00  0.00    -0.088 HD
ENDBRANCH   1   2
BRANCH   1   7
ATOM      6  O   UNK     1      34.704 -16.799 -25.847  0.00  0.00    -0.253 OA
ATOM      7  C   UNK     1      34.981 -16.962 -24.666  0.00  0.00    +0.293 C 
BRANCH   7   8
ATOM      8  O   UNK     1      35.627 -16.035 -23.913  0.00  0.00    -0.482 OA
ATOM      9  H   UNK     1      36.433 -16.257 -23.489  0.00  0.00    +0.295 HD
ENDBRANCH   7   8
ENDBRANCH   1   7
BRANCH   1  10
ATOM     10  C   UNK     1      35.679 -18.413 -22.732  0.00  0.00    -0.008 C 
BRANCH  10  11
ATOM     11  C   UNK     1      35.115 -18.462 -21.298  0.00  0.00    +0.034 C 
ATOM     12  C   UNK     1      34.278 -19.719 -21.043  0.00  0.00    +0.003 C 
BRANCH  11  14
ATOM     13  F   UNK     1      35.025 -16.288 -20.390  0.00  0.00    -0.234 F 
ATOM     14  C   UNK     1      34.266 -17.215 -21.035  0.00  0.00    +0.193 C 
ENDBRANCH  11  14
ENDBRANCH  10  11
ENDBRANCH   1  10
TORSDOF 6
ENDMDL
MODEL 9
REMARK VINA RESULT:      -5.1     11.788     12.420
REMARK  Name = 15227560
REMARK  6 active torsions:
REMARK  status: ('A' for Active; 'I' for Inactive)
REMARK    1  A    between atoms: C_1  and  N_2
REMARK    2  A    between atoms: C_1  and  C_7
REMARK    3  A    between atoms: C_1  and  C_10
REMARK    4  A    between atoms: C_7  and  O_8
REMARK    5  A    between atoms: C_10  and  C_11
REMARK    6  A    between atoms: C_11  and  C_14
REMARK                            x       y       z     vdW  Elec       q    Type
REMARK                         _______ _______ _______ _____ _____    ______ ____
ROOT
ATOM      1  C   UNK     1      34.736 -18.183 -23.762  0.00  0.00    +0.036 C 
ENDROOT
BRANCH   1   2
ATOM      2  N   UNK     1      34.646 -19.280 -24.729  0.00  0.00    +0.389 N 
ATOM      3  H   UNK     1      34.861 -20.162 -24.265  0.00  0.00    -0.088 HD
ATOM      4  H   UNK     1      35.314 -19.123 -25.484  0.00  0.00    -0.088 HD
ATOM      5  H   UNK     1      33.702 -19.318 -25.112  0.00  0.00    -0.088 HD
ENDBRANCH   1   2
BRANCH   1   7
ATOM      6  O   UNK     1      34.757 -16.763 -25.746  0.00  0.00    -0.253 OA
ATOM      7  C   UNK     1      34.998 -16.923 -24.557  0.00  0.00    +0.293 C 
BRANCH   7   8
ATOM      8  O   UNK     1      35.522 -15.955 -23.763  0.00  0.00    -0.482 OA
ATOM      9  H   UNK     1      35.236 -15.874 -22.874  0.00  0.00    +0.295 HD
ENDBRANCH   7   8
ENDBRANCH   1   7
BRANCH   1  10
ATOM     10  C   UNK     1      35.878 -18.465 -22.774  0.00  0.00    -0.008 C 
BRANCH  10  11
ATOM     11  C   UNK     1      35.439 -18.702 -21.315  0.00  0.00    +0.034 C 
ATOM     12  C   UNK     1      36.350 -19.692 -20.586  0.00  0.00    +0.003 C 
BRANCH  11  14
ATOM     13  F   UNK     1      33.811 -19.969 -20.173  0.00  0.00    -0.234 F 
ATOM     14  C   UNK     1      33.995 -19.210 -21.288  0.00  0.00    +0.193 C 
ENDBRANCH  11  14
ENDBRANCH  10  11
ENDBRANCH   1  10
TORSDOF 6
ENDMDL
