MODEL 1
REMARK VINA RESULT:     -10.0      0.000      0.000
REMARK  Name = 60198
REMARK  0 active torsions:
REMARK  status: ('A' for Active; 'I' for Inactive)
REMARK                            x       y       z     vdW  Elec       q    Type
REMARK                         _______ _______ _______ _____ _____    ______ ____
ROOT
ATOM      1  O   UNL     1      29.359 -24.466 -15.142  0.00  0.00    -0.296 OA
ATOM      2  O   UNL     1      39.480 -26.489 -14.651  0.00  0.00    -0.287 OA
ATOM      3  C   UNL     1      32.673 -23.659 -15.797  0.00  0.00    +0.007 C 
ATOM      4  C   UNL     1      34.075 -23.350 -15.264  0.00  0.00    +0.005 C 
ATOM      5  C   UNL     1      31.647 -23.798 -14.655  0.00  0.00    +0.052 C 
ATOM      6  C   UNL     1      34.531 -24.546 -14.356  0.00  0.00    +0.008 C 
ATOM      7  C   UNL     1      32.034 -25.020 -13.828  0.00  0.00    +0.007 C 
ATOM      8  C   UNL     1      33.465 -24.882 -13.273  0.00  0.00    +0.001 C 
ATOM      9  C   UNL     1      35.990 -24.329 -13.801  0.00  0.00    +0.037 C 
ATOM     10  C   UNL     1      32.007 -22.708 -16.784  0.00  0.00    +0.008 C 
ATOM     11  C   UNL     1      35.079 -23.117 -16.402  0.00  0.00    +0.026 C 
ATOM     12  C   UNL     1      30.393 -23.919 -15.501  0.00  0.00    +0.150 C 
ATOM     13  C   UNL     1      30.568 -23.241 -16.850  0.00  0.00    +0.064 C 
ATOM     14  C   UNL     1      31.457 -22.556 -13.764  0.00  0.00    +0.007 C 
ATOM     15  C   UNL     1      36.920 -24.028 -14.985  0.00  0.00    -0.020 C 
ATOM     16  C   UNL     1      36.481 -22.958 -15.877  0.00  0.00    -0.026 C 
ATOM     17  C   UNL     1      36.071 -23.155 -12.796  0.00  0.00    +0.009 C 
ATOM     18  C   UNL     1      36.455 -25.563 -13.039  0.00  0.00    -0.019 C 
ATOM     19  C   UNL     1      38.033 -24.729 -15.257  0.00  0.00    +0.038 C 
ATOM     20  C   UNL     1      37.562 -26.263 -13.305  0.00  0.00    +0.038 C 
ATOM     21  C   UNL     1      37.253 -21.906 -16.192  0.00  0.00    -0.005 C 
ATOM     22  C   UNL     1      38.444 -25.874 -14.419  0.00  0.00    +0.195 C 
ENDROOT
TORSDOF 0
ENDMDL
MODEL 2
REMARK VINA RESULT:      -8.6     11.332     13.774
REMARK  Name = 60198
REMARK  0 active torsions:
REMARK  status: ('A' for Active; 'I' for Inactive)
REMARK                            x       y       z     vdW  Elec       q    Type
REMARK                         _______ _______ _______ _____ _____    ______ ____
ROOT
ATOM      1  O   UNL     1      35.840 -18.625 -20.377  0.00  0.00    -0.296 OA
ATOM      2  O   UNL     1      34.819 -10.033 -26.026  0.00  0.00    -0.287 OA
ATOM      3  C   UNL     1      34.718 -16.935 -23.197  0.00  0.00    +0.007 C 
ATOM      4  C   UNL     1      33.852 -15.825 -23.800  0.00  0.00    +0.005 C 
ATOM      5  C   UNL     1      34.490 -17.075 -21.679  0.00  0.00    +0.052 C 
ATOM      6  C   UNL     1      34.258 -14.466 -23.130  0.00  0.00    +0.008 C 
ATOM      7  C   UNL     1      34.976 -15.790 -21.015  0.00  0.00    +0.007 C 
ATOM      8  C   UNL     1      34.233 -14.562 -21.576  0.00  0.00    +0.001 C 
ATOM      9  C   UNL     1      33.443 -13.257 -23.730  0.00  0.00    +0.037 C 
ATOM     10  C   UNL     1      34.604 -18.361 -23.725  0.00  0.00    +0.008 C 
ATOM     11  C   UNL     1      34.006 -15.747 -25.326  0.00  0.00    +0.026 C 
ATOM     12  C   UNL     1      35.327 -18.319 -21.446  0.00  0.00    +0.150 C 
ATOM     13  C   UNL     1      35.423 -19.166 -22.704  0.00  0.00    +0.064 C 
ATOM     14  C   UNL     1      33.055 -17.423 -21.241  0.00  0.00    +0.007 C 
ATOM     15  C   UNL     1      33.582 -13.289 -25.258  0.00  0.00    -0.020 C 
ATOM     16  C   UNL     1      33.267 -14.565 -25.895  0.00  0.00    -0.026 C 
ATOM     17  C   UNL     1      31.940 -13.322 -23.366  0.00  0.00    +0.009 C 
ATOM     18  C   UNL     1      33.953 -11.941 -23.159  0.00  0.00    -0.019 C 
ATOM     19  C   UNL     1      34.031 -12.255 -25.988  0.00  0.00    +0.038 C 
ATOM     20  C   UNL     1      34.400 -10.909 -23.881  0.00  0.00    +0.038 C 
ATOM     21  C   UNL     1      32.379 -14.683 -26.894  0.00  0.00    -0.005 C 
ATOM     22  C   UNL     1      34.442 -10.986 -25.353  0.00  0.00    +0.195 C 
ENDROOT
TORSDOF 0
ENDMDL
MODEL 3
REMARK VINA RESULT:      -8.4      3.491      6.207
REMARK  Name = 60198
REMARK  0 active torsions:
REMARK  status: ('A' for Active; 'I' for Inactive)
REMARK                            x       y       z     vdW  Elec       q    Type
REMARK                         _______ _______ _______ _____ _____    ______ ____
ROOT
ATOM      1  O   UNL     1      34.571 -23.997 -12.499  0.00  0.00    -0.296 OA
ATOM      2  O   UNL     1      33.522 -18.717 -21.319  0.00  0.00    -0.287 OA
ATOM      3  C   UNL     1      35.834 -22.752 -15.486  0.00  0.00    +0.007 C 
ATOM      4  C   UNL     1      35.767 -22.701 -17.015  0.00  0.00    +0.005 C 
ATOM      5  C   UNL     1      34.850 -23.788 -14.907  0.00  0.00    +0.052 C 
ATOM      6  C   UNL     1      34.318 -22.266 -17.431  0.00  0.00    +0.008 C 
ATOM      7  C   UNL     1      33.435 -23.315 -15.226  0.00  0.00    +0.007 C 
ATOM      8  C   UNL     1      33.235 -23.150 -16.744  0.00  0.00    +0.001 C 
ATOM      9  C   UNL     1      34.175 -22.143 -18.995  0.00  0.00    +0.037 C 
ATOM     10  C   UNL     1      37.155 -23.063 -14.792  0.00  0.00    +0.008 C 
ATOM     11  C   UNL     1      36.812 -21.740 -17.600  0.00  0.00    +0.026 C 
ATOM     12  C   UNL     1      35.281 -23.711 -13.454  0.00  0.00    +0.150 C 
ATOM     13  C   UNL     1      36.729 -23.266 -13.330  0.00  0.00    +0.064 C 
ATOM     14  C   UNL     1      35.065 -25.247 -15.352  0.00  0.00    +0.007 C 
ATOM     15  C   UNL     1      35.295 -21.230 -19.515  0.00  0.00    -0.020 C 
ATOM     16  C   UNL     1      36.647 -21.584 -19.088  0.00  0.00    -0.026 C 
ATOM     17  C   UNL     1      34.281 -23.513 -19.707  0.00  0.00    +0.009 C 
ATOM     18  C   UNL     1      32.804 -21.589 -19.359  0.00  0.00    -0.019 C 
ATOM     19  C   UNL     1      35.080 -20.129 -20.252  0.00  0.00    +0.038 C 
ATOM     20  C   UNL     1      32.583 -20.494 -20.093  0.00  0.00    +0.038 C 
ATOM     21  C   UNL     1      37.658 -21.774 -19.949  0.00  0.00    -0.005 C 
ATOM     22  C   UNL     1      33.712 -19.703 -20.616  0.00  0.00    +0.195 C 
ENDROOT
TORSDOF 0
ENDMDL
MODEL 4
REMARK VINA RESULT:      -7.0     15.250     17.806
REMARK  Name = 60198
REMARK  0 active torsions:
REMARK  status: ('A' for Active; 'I' for Inactive)
REMARK                            x       y       z     vdW  Elec       q    Type
REMARK                         _______ _______ _______ _____ _____    ______ ____
ROOT
ATOM      1  O   UNL     1      32.854 -14.447 -24.538  0.00  0.00    -0.296 OA
ATOM      2  O   UNL     1      30.616  -4.390 -23.751  0.00  0.00    -0.287 OA
ATOM      3  C   UNL     1      32.310 -11.573 -22.664  0.00  0.00    +0.007 C 
ATOM      4  C   UNL     1      32.714 -10.136 -22.327  0.00  0.00    +0.005 C 
ATOM      5  C   UNL     1      33.298 -12.226 -23.652  0.00  0.00    +0.052 C 
ATOM      6  C   UNL     1      32.690  -9.293 -23.650  0.00  0.00    +0.008 C 
ATOM      7  C   UNL     1      33.204 -11.468 -24.973  0.00  0.00    +0.007 C 
ATOM      8  C   UNL     1      33.522  -9.973 -24.777  0.00  0.00    +0.001 C 
ATOM      9  C   UNL     1      33.049  -7.782 -23.383  0.00  0.00    +0.037 C 
ATOM     10  C   UNL     1      32.161 -12.604 -21.551  0.00  0.00    +0.008 C 
ATOM     11  C   UNL     1      31.787  -9.516 -21.271  0.00  0.00    +0.026 C 
ATOM     12  C   UNL     1      32.729 -13.633 -23.634  0.00  0.00    +0.150 C 
ATOM     13  C   UNL     1      32.010 -13.921 -22.327  0.00  0.00    +0.064 C 
ATOM     14  C   UNL     1      34.758 -12.336 -23.174  0.00  0.00    +0.007 C 
ATOM     15  C   UNL     1      32.135  -7.255 -22.268  0.00  0.00    -0.020 C 
ATOM     16  C   UNL     1      32.098  -8.059 -21.049  0.00  0.00    -0.026 C 
ATOM     17  C   UNL     1      34.523  -7.595 -22.948  0.00  0.00    +0.009 C 
ATOM     18  C   UNL     1      32.884  -6.966 -24.658  0.00  0.00    -0.019 C 
ATOM     19  C   UNL     1      31.352  -6.173 -22.394  0.00  0.00    +0.038 C 
ATOM     20  C   UNL     1      32.107  -5.888 -24.790  0.00  0.00    +0.038 C 
ATOM     21  C   UNL     1      32.339  -7.551 -19.831  0.00  0.00    -0.005 C 
ATOM     22  C   UNL     1      31.306  -5.399 -23.652  0.00  0.00    +0.195 C 
ENDROOT
TORSDOF 0
ENDMDL
