MODEL 1
REMARK VINA RESULT:      -7.7      0.000      0.000
REMARK  Name = 4870
REMARK  6 active torsions:
REMARK  status: ('A' for Active; 'I' for Inactive)
REMARK    1  A    between atoms: C_7  and  C_22
REMARK    2  A    between atoms: C_13  and  S_16
REMARK    3  A    between atoms: S_16  and  N_19
REMARK    4  A    between atoms: C_22  and  S_23
REMARK    5  A    between atoms: S_23  and  C_24
REMARK    6  A    between atoms: C_24  and  C_28
REMARK                            x       y       z     vdW  Elec       q    Type
REMARK                         _______ _______ _______ _____ _____    ______ ____
ROOT
ATOM      1 CL   UNL     1      30.015 -23.961 -12.774  0.00  0.00    -0.081 Cl
ATOM      2  S   UNL     1      33.844 -23.262 -17.683  0.00  0.00    +0.066 S 
ATOM      3  O   UNL     1      33.491 -22.022 -18.345  0.00  0.00    -0.153 OA
ATOM      4  O   UNL     1      33.817 -24.526 -18.393  0.00  0.00    -0.153 OA
ATOM      5  N   UNL     1      35.374 -23.077 -16.879  0.00  0.00    -0.137 NA
ATOM      6  N   UNL     1      34.626 -24.319 -14.885  0.00  0.00    -0.319 N 
ATOM      7  C   UNL     1      35.630 -24.222 -15.933  0.00  0.00    +0.162 C 
ATOM      8  C   UNL     1      32.779 -23.469 -16.286  0.00  0.00    +0.137 C 
ATOM      9  C   UNL     1      33.293 -23.990 -15.087  0.00  0.00    +0.065 C 
ATOM     10  C   UNL     1      35.649 -21.730 -16.296  0.00  0.00    +0.117 C 
ATOM     11  C   UNL     1      31.439 -23.100 -16.429  0.00  0.00    +0.042 C 
ATOM     12  C   UNL     1      32.393 -24.121 -14.017  0.00  0.00    +0.028 C 
ATOM     13  C   UNL     1      30.573 -23.250 -15.351  0.00  0.00    +0.134 C 
ATOM     14  C   UNL     1      31.048 -23.760 -14.146  0.00  0.00    +0.078 C 
ATOM     15  H   UNL     1      34.904 -24.631 -13.993  0.00  0.00    +0.148 HD
ENDROOT
BRANCH  13  16
ATOM     16  S   UNL     1      28.898 -22.781 -15.568  0.00  0.00    +0.058 S 
ATOM     17  O   UNL     1      28.072 -23.968 -15.421  0.00  0.00    -0.153 OA
ATOM     18  O   UNL     1      28.643 -21.609 -14.746  0.00  0.00    -0.153 OA
BRANCH  16  19
ATOM     19  N   UNL     1      28.909 -22.312 -17.210  0.00  0.00    -0.203 NA
ATOM     20  H   UNL     1      29.606 -22.861 -17.716  0.00  0.00    +0.144 HD
ATOM     21  H   UNL     1      29.143 -21.321 -17.279  0.00  0.00    +0.144 HD
ENDBRANCH  16  19
ENDBRANCH  13  16
BRANCH   7  22
ATOM     22  C   UNL     1      37.024 -24.152 -15.317  0.00  0.00    +0.096 C 
BRANCH  22  23
ATOM     23  S   UNL     1      37.154 -25.303 -13.925  0.00  0.00    -0.128 S 
BRANCH  23  24
ATOM     24  C   UNL     1      38.568 -26.268 -14.509  0.00  0.00    +0.161 C 
BRANCH  24  28
ATOM     25  F   UNL     1      40.879 -26.421 -14.005  0.00  0.00    -0.169 F 
ATOM     26  F   UNL     1      40.229 -24.753 -15.261  0.00  0.00    -0.169 F 
ATOM     27  F   UNL     1      39.750 -24.773 -13.136  0.00  0.00    -0.169 F 
ATOM     28  C   UNL     1      39.871 -25.554 -14.234  0.00  0.00    +0.408 C 
ENDBRANCH  24  28
ENDBRANCH  23  24
ENDBRANCH  22  23
ENDBRANCH   7  22
TORSDOF 6
ENDMDL
MODEL 2
REMARK VINA RESULT:      -7.5      1.987      2.205
REMARK  Name = 4870
REMARK  6 active torsions:
REMARK  status: ('A' for Active; 'I' for Inactive)
REMARK    1  A    between atoms: C_7  and  C_22
REMARK    2  A    between atoms: C_13  and  S_16
REMARK    3  A    between atoms: S_16  and  N_19
REMARK    4  A    between atoms: C_22  and  S_23
REMARK    5  A    between atoms: S_23  and  C_24
REMARK    6  A    between atoms: C_24  and  C_28
REMARK                            x       y       z     vdW  Elec       q    Type
REMARK                         _______ _______ _______ _____ _____    ______ ____
ROOT
ATOM      1 CL   UNL     1      29.956 -24.108 -12.801  0.00  0.00    -0.081 Cl
ATOM      2  S   UNL     1      33.873 -23.309 -17.624  0.00  0.00    +0.066 S 
ATOM      3  O   UNL     1      33.556 -22.039 -18.246  0.00  0.00    -0.153 OA
ATOM      4  O   UNL     1      33.833 -24.546 -18.380  0.00  0.00    -0.153 OA
ATOM      5  N   UNL     1      35.395 -23.184 -16.791  0.00  0.00    -0.137 NA
ATOM      6  N   UNL     1      34.591 -24.482 -14.855  0.00  0.00    -0.319 N 
ATOM      7  C   UNL     1      35.613 -24.367 -15.884  0.00  0.00    +0.162 C 
ATOM      8  C   UNL     1      32.784 -23.545 -16.252  0.00  0.00    +0.137 C 
ATOM      9  C   UNL     1      33.268 -24.120 -15.065  0.00  0.00    +0.065 C 
ATOM     10  C   UNL     1      35.687 -21.865 -16.155  0.00  0.00    +0.117 C 
ATOM     11  C   UNL     1      31.453 -23.144 -16.401  0.00  0.00    +0.042 C 
ATOM     12  C   UNL     1      32.349 -24.271 -14.013  0.00  0.00    +0.028 C 
ATOM     13  C   UNL     1      30.568 -23.316 -15.341  0.00  0.00    +0.134 C 
ATOM     14  C   UNL     1      31.014 -23.879 -14.149  0.00  0.00    +0.078 C 
ATOM     15  H   UNL     1      34.849 -24.832 -13.971  0.00  0.00    +0.148 HD
ENDROOT
BRANCH  13  16
ATOM     16  S   UNL     1      28.906 -22.806 -15.566  0.00  0.00    +0.058 S 
ATOM     17  O   UNL     1      28.051 -23.973 -15.430  0.00  0.00    -0.153 OA
ATOM     18  O   UNL     1      28.674 -21.632 -14.740  0.00  0.00    -0.153 OA
BRANCH  16  19
ATOM     19  N   UNL     1      28.938 -22.330 -17.206  0.00  0.00    -0.203 NA
ATOM     20  H   UNL     1      28.641 -21.356 -17.284  0.00  0.00    +0.144 HD
ATOM     21  H   UNL     1      28.305 -22.922 -17.744  0.00  0.00    +0.144 HD
ENDBRANCH  16  19
ENDBRANCH  13  16
BRANCH   7  22
ATOM     22  C   UNL     1      36.998 -24.348 -15.245  0.00  0.00    +0.096 C 
BRANCH  22  23
ATOM     23  S   UNL     1      37.008 -25.347 -13.735  0.00  0.00    -0.128 S 
BRANCH  23  24
ATOM     24  C   UNL     1      37.779 -24.146 -12.625  0.00  0.00    +0.161 C 
BRANCH  24  28
ATOM     25  F   UNL     1      35.653 -23.105 -12.496  0.00  0.00    -0.169 F 
ATOM     26  F   UNL     1      36.349 -24.199 -10.735  0.00  0.00    -0.169 F 
ATOM     27  F   UNL     1      37.263 -22.297 -11.271  0.00  0.00    -0.169 F 
ATOM     28  C   UNL     1      36.746 -23.440 -11.778  0.00  0.00    +0.408 C 
ENDBRANCH  24  28
ENDBRANCH  23  24
ENDBRANCH  22  23
ENDBRANCH   7  22
TORSDOF 6
ENDMDL
MODEL 3
REMARK VINA RESULT:      -6.8      5.549      7.495
REMARK  Name = 4870
REMARK  6 active torsions:
REMARK  status: ('A' for Active; 'I' for Inactive)
REMARK    1  A    between atoms: C_7  and  C_22
REMARK    2  A    between atoms: C_13  and  S_16
REMARK    3  A    between atoms: S_16  and  N_19
REMARK    4  A    between atoms: C_22  and  S_23
REMARK    5  A    between atoms: S_23  and  C_24
REMARK    6  A    between atoms: C_24  and  C_28
REMARK                            x       y       z     vdW  Elec       q    Type
REMARK                         _______ _______ _______ _____ _____    ______ ____
ROOT
ATOM      1 CL   UNL     1      33.114 -21.134 -20.193  0.00  0.00    -0.081 Cl
ATOM      2  S   UNL     1      35.120 -24.138 -15.075  0.00  0.00    +0.066 S 
ATOM      3  O   UNL     1      36.098 -23.291 -14.420  0.00  0.00    -0.153 OA
ATOM      4  O   UNL     1      35.458 -25.480 -15.508  0.00  0.00    -0.153 OA
ATOM      5  N   UNL     1      33.662 -24.180 -14.129  0.00  0.00    -0.137 NA
ATOM      6  N   UNL     1      32.211 -24.035 -16.119  0.00  0.00    -0.319 N 
ATOM      7  C   UNL     1      32.527 -24.787 -14.913  0.00  0.00    +0.162 C 
ATOM      8  C   UNL     1      34.534 -23.299 -16.517  0.00  0.00    +0.137 C 
ATOM      9  C   UNL     1      33.176 -23.375 -16.867  0.00  0.00    +0.065 C 
ATOM     10  C   UNL     1      33.305 -22.917 -13.418  0.00  0.00    +0.117 C 
ATOM     11  C   UNL     1      35.462 -22.576 -17.272  0.00  0.00    +0.042 C 
ATOM     12  C   UNL     1      32.778 -22.679 -18.020  0.00  0.00    +0.028 C 
ATOM     13  C   UNL     1      35.035 -21.905 -18.413  0.00  0.00    +0.134 C 
ATOM     14  C   UNL     1      33.696 -21.955 -18.788  0.00  0.00    +0.078 C 
ATOM     15  H   UNL     1      31.273 -23.993 -16.416  0.00  0.00    +0.148 HD
ENDROOT
BRANCH  13  16
ATOM     16  S   UNL     1      36.228 -21.012 -19.337  0.00  0.00    +0.058 S 
ATOM     17  O   UNL     1      36.973 -21.959 -20.151  0.00  0.00    -0.153 OA
ATOM     18  O   UNL     1      35.567 -19.878 -19.961  0.00  0.00    -0.153 OA
BRANCH  16  19
ATOM     19  N   UNL     1      37.239 -20.441 -18.085  0.00  0.00    -0.203 NA
ATOM     20  H   UNL     1      37.919 -21.162 -17.841  0.00  0.00    +0.144 HD
ATOM     21  H   UNL     1      36.673 -20.218 -17.266  0.00  0.00    +0.144 HD
ENDBRANCH  16  19
ENDBRANCH  13  16
BRANCH   7  22
ATOM     22  C   UNL     1      31.273 -24.958 -14.061  0.00  0.00    +0.096 C 
BRANCH  22  23
ATOM     23  S   UNL     1      29.869 -25.441 -15.098  0.00  0.00    -0.128 S 
BRANCH  23  24
ATOM     24  C   UNL     1      28.914 -23.909 -14.984  0.00  0.00    +0.161 C 
BRANCH  24  28
ATOM     25  F   UNL     1      29.244 -22.690 -16.990  0.00  0.00    -0.169 F 
ATOM     26  F   UNL     1      28.118 -24.560 -17.120  0.00  0.00    -0.169 F 
ATOM     27  F   UNL     1      27.223 -22.808 -16.187  0.00  0.00    -0.169 F 
ATOM     28  C   UNL     1      28.380 -23.493 -16.335  0.00  0.00    +0.408 C 
ENDBRANCH  24  28
ENDBRANCH  23  24
ENDBRANCH  22  23
ENDBRANCH   7  22
TORSDOF 6
ENDMDL
MODEL 4
REMARK VINA RESULT:      -6.7      3.342      4.673
REMARK  Name = 4870
REMARK  6 active torsions:
REMARK  status: ('A' for Active; 'I' for Inactive)
REMARK    1  A    between atoms: C_7  and  C_22
REMARK    2  A    between atoms: C_13  and  S_16
REMARK    3  A    between atoms: S_16  and  N_19
REMARK    4  A    between atoms: C_22  and  S_23
REMARK    5  A    between atoms: S_23  and  C_24
REMARK    6  A    between atoms: C_24  and  C_28
REMARK                            x       y       z     vdW  Elec       q    Type
REMARK                         _______ _______ _______ _____ _____    ______ ____
ROOT
ATOM      1 CL   UNL     1      36.890 -21.289 -18.590  0.00  0.00    -0.081 Cl
ATOM      2  S   UNL     1      33.928 -24.125 -13.855  0.00  0.00    +0.066 S 
ATOM      3  O   UNL     1      33.193 -25.249 -14.403  0.00  0.00    -0.153 OA
ATOM      4  O   UNL     1      33.252 -23.073 -13.120  0.00  0.00    -0.153 OA
ATOM      5  N   UNL     1      35.278 -24.710 -12.929  0.00  0.00    -0.137 NA
ATOM      6  N   UNL     1      36.794 -22.967 -13.793  0.00  0.00    -0.319 N 
ATOM      7  C   UNL     1      36.235 -23.592 -12.603  0.00  0.00    +0.162 C 
ATOM      8  C   UNL     1      34.780 -23.320 -15.178  0.00  0.00    +0.137 C 
ATOM      9  C   UNL     1      36.079 -22.824 -14.974  0.00  0.00    +0.065 C 
ATOM     10  C   UNL     1      35.937 -25.948 -13.441  0.00  0.00    +0.117 C 
ATOM     11  C   UNL     1      34.118 -23.202 -16.403  0.00  0.00    +0.042 C 
ATOM     12  C   UNL     1      36.699 -22.203 -16.070  0.00  0.00    +0.028 C 
ATOM     13  C   UNL     1      34.759 -22.572 -17.465  0.00  0.00    +0.134 C 
ATOM     14  C   UNL     1      36.047 -22.073 -17.300  0.00  0.00    +0.078 C 
ATOM     15  H   UNL     1      37.718 -22.631 -13.758  0.00  0.00    +0.148 HD
ENDROOT
BRANCH  13  16
ATOM     16  S   UNL     1      33.896 -22.439 -18.985  0.00  0.00    +0.058 S 
ATOM     17  O   UNL     1      34.314 -21.209 -19.637  0.00  0.00    -0.153 OA
ATOM     18  O   UNL     1      34.006 -23.708 -19.685  0.00  0.00    -0.153 OA
BRANCH  16  19
ATOM     19  N   UNL     1      32.293 -22.254 -18.425  0.00  0.00    -0.203 NA
ATOM     20  H   UNL     1      31.935 -23.158 -18.113  0.00  0.00    +0.144 HD
ATOM     21  H   UNL     1      31.707 -21.902 -19.183  0.00  0.00    +0.144 HD
ENDBRANCH  16  19
ENDBRANCH  13  16
BRANCH   7  22
ATOM     22  C   UNL     1      37.357 -24.053 -11.679  0.00  0.00    +0.096 C 
BRANCH  22  23
ATOM     23  S   UNL     1      38.961 -23.871 -12.499  0.00  0.00    -0.128 S 
BRANCH  23  24
ATOM     24  C   UNL     1      39.131 -25.558 -13.130  0.00  0.00    +0.161 C 
BRANCH  24  28
ATOM     25  F   UNL     1      39.336 -24.331 -15.148  0.00  0.00    -0.169 F 
ATOM     26  F   UNL     1      40.699 -26.014 -14.848  0.00  0.00    -0.169 F 
ATOM     27  F   UNL     1      38.592 -26.375 -15.265  0.00  0.00    -0.169 F 
ATOM     28  C   UNL     1      39.450 -25.562 -14.607  0.00  0.00    +0.408 C 
ENDBRANCH  24  28
ENDBRANCH  23  24
ENDBRANCH  22  23
ENDBRANCH   7  22
TORSDOF 6
ENDMDL
MODEL 5
REMARK VINA RESULT:      -6.6      5.046      7.233
REMARK  Name = 4870
REMARK  6 active torsions:
REMARK  status: ('A' for Active; 'I' for Inactive)
REMARK    1  A    between atoms: C_7  and  C_22
REMARK    2  A    between atoms: C_13  and  S_16
REMARK    3  A    between atoms: S_16  and  N_19
REMARK    4  A    between atoms: C_22  and  S_23
REMARK    5  A    between atoms: S_23  and  C_24
REMARK    6  A    between atoms: C_24  and  C_28
REMARK                            x       y       z     vdW  Elec       q    Type
REMARK                         _______ _______ _______ _____ _____    ______ ____
ROOT
ATOM      1 CL   UNL     1      38.317 -24.032 -14.059  0.00  0.00    -0.081 Cl
ATOM      2  S   UNL     1      32.065 -24.391 -14.202  0.00  0.00    +0.066 S 
ATOM      3  O   UNL     1      31.569 -23.984 -12.902  0.00  0.00    -0.153 OA
ATOM      4  O   UNL     1      31.753 -25.698 -14.748  0.00  0.00    -0.153 OA
ATOM      5  N   UNL     1      31.695 -23.164 -15.377  0.00  0.00    -0.137 NA
ATOM      6  N   UNL     1      33.894 -23.365 -16.473  0.00  0.00    -0.319 N 
ATOM      7  C   UNL     1      32.451 -23.398 -16.659  0.00  0.00    +0.162 C 
ATOM      8  C   UNL     1      33.830 -24.284 -14.183  0.00  0.00    +0.137 C 
ATOM      9  C   UNL     1      34.514 -23.816 -15.316  0.00  0.00    +0.065 C 
ATOM     10  C   UNL     1      31.741 -21.754 -14.888  0.00  0.00    +0.117 C 
ATOM     11  C   UNL     1      34.493 -24.678 -13.017  0.00  0.00    +0.042 C 
ATOM     12  C   UNL     1      35.914 -23.750 -15.229  0.00  0.00    +0.028 C 
ATOM     13  C   UNL     1      35.882 -24.607 -12.968  0.00  0.00    +0.134 C 
ATOM     14  C   UNL     1      36.592 -24.145 -14.071  0.00  0.00    +0.078 C 
ATOM     15  H   UNL     1      34.455 -23.007 -17.199  0.00  0.00    +0.148 HD
ENDROOT
BRANCH  13  16
ATOM     16  S   UNL     1      36.679 -25.114 -11.491  0.00  0.00    +0.058 S 
ATOM     17  O   UNL     1      37.174 -26.467 -11.685  0.00  0.00    -0.153 OA
ATOM     18  O   UNL     1      37.589 -24.057 -11.079  0.00  0.00    -0.153 OA
BRANCH  16  19
ATOM     19  N   UNL     1      35.356 -25.155 -10.412  0.00  0.00    -0.203 NA
ATOM     20  H   UNL     1      34.629 -25.764 -10.789  0.00  0.00    +0.144 HD
ATOM     21  H   UNL     1      34.983 -24.213 -10.296  0.00  0.00    +0.144 HD
ENDBRANCH  16  19
ENDBRANCH  13  16
BRANCH   7  22
ATOM     22  C   UNL     1      32.042 -22.413 -17.749  0.00  0.00    +0.096 C 
BRANCH  22  23
ATOM     23  S   UNL     1      33.407 -22.161 -18.913  0.00  0.00    -0.128 S 
BRANCH  23  24
ATOM     24  C   UNL     1      32.765 -20.700 -19.765  0.00  0.00    +0.161 C 
BRANCH  24  28
ATOM     25  F   UNL     1      33.964 -20.418 -21.790  0.00  0.00    -0.169 F 
ATOM     26  F   UNL     1      33.651 -18.646 -20.548  0.00  0.00    -0.169 F 
ATOM     27  F   UNL     1      35.052 -20.189 -19.917  0.00  0.00    -0.169 F 
ATOM     28  C   UNL     1      33.858 -19.979 -20.518  0.00  0.00    +0.408 C 
ENDBRANCH  24  28
ENDBRANCH  23  24
ENDBRANCH  22  23
ENDBRANCH   7  22
TORSDOF 6
ENDMDL
MODEL 6
REMARK VINA RESULT:      -6.5     14.418     16.445
REMARK  Name = 4870
REMARK  6 active torsions:
REMARK  status: ('A' for Active; 'I' for Inactive)
REMARK    1  A    between atoms: C_7  and  C_22
REMARK    2  A    between atoms: C_13  and  S_16
REMARK    3  A    between atoms: S_16  and  N_19
REMARK    4  A    between atoms: C_22  and  S_23
REMARK    5  A    between atoms: S_23  and  C_24
REMARK    6  A    between atoms: C_24  and  C_28
REMARK                            x       y       z     vdW  Elec       q    Type
REMARK                         _______ _______ _______ _____ _____    ______ ____
ROOT
ATOM      1 CL   UNL     1      34.916 -15.061 -23.922  0.00  0.00    -0.081 Cl
ATOM      2  S   UNL     1      31.084 -11.095 -20.952  0.00  0.00    +0.066 S 
ATOM      3  O   UNL     1      31.324 -11.230 -19.529  0.00  0.00    -0.153 OA
ATOM      4  O   UNL     1      29.766 -11.316 -21.516  0.00  0.00    -0.153 OA
ATOM      5  N   UNL     1      31.705  -9.567 -21.503  0.00  0.00    -0.137 NA
ATOM      6  N   UNL     1      32.622 -10.539 -23.576  0.00  0.00    -0.319 N 
ATOM      7  C   UNL     1      31.756  -9.516 -23.008  0.00  0.00    +0.162 C 
ATOM      8  C   UNL     1      32.167 -12.200 -21.807  0.00  0.00    +0.137 C 
ATOM      9  C   UNL     1      32.770 -11.797 -23.010  0.00  0.00    +0.065 C 
ATOM     10  C   UNL     1      32.950  -9.085 -20.833  0.00  0.00    +0.117 C 
ATOM     11  C   UNL     1      32.388 -13.460 -21.244  0.00  0.00    +0.042 C 
ATOM     12  C   UNL     1      33.624 -12.722 -23.632  0.00  0.00    +0.028 C 
ATOM     13  C   UNL     1      33.234 -14.355 -21.891  0.00  0.00    +0.134 C 
ATOM     14  C   UNL     1      33.851 -13.989 -23.083  0.00  0.00    +0.078 C 
ATOM     15  H   UNL     1      33.124 -10.329 -24.397  0.00  0.00    +0.148 HD
ENDROOT
BRANCH  13  16
ATOM     16  S   UNL     1      33.484 -15.928 -21.158  0.00  0.00    +0.058 S 
ATOM     17  O   UNL     1      32.303 -16.256 -20.376  0.00  0.00    -0.153 OA
ATOM     18  O   UNL     1      33.953 -16.842 -22.187  0.00  0.00    -0.153 OA
BRANCH  16  19
ATOM     19  N   UNL     1      34.776 -15.582 -20.095  0.00  0.00    -0.203 NA
ATOM     20  H   UNL     1      35.468 -16.330 -20.148  0.00  0.00    +0.144 HD
ATOM     21  H   UNL     1      34.421 -15.515 -19.141  0.00  0.00    +0.144 HD
ENDBRANCH  16  19
ENDBRANCH  13  16
BRANCH   7  22
ATOM     22  C   UNL     1      32.171  -8.139 -23.518  0.00  0.00    +0.096 C 
BRANCH  22  23
ATOM     23  S   UNL     1      30.727  -7.236 -24.133  0.00  0.00    -0.128 S 
BRANCH  23  24
ATOM     24  C   UNL     1      31.364  -5.554 -23.945  0.00  0.00    +0.161 C 
BRANCH  24  28
ATOM     25  F   UNL     1      29.992  -5.528 -22.012  0.00  0.00    -0.169 F 
ATOM     26  F   UNL     1      32.150  -5.326 -21.721  0.00  0.00    -0.169 F 
ATOM     27  F   UNL     1      31.004  -3.682 -22.572  0.00  0.00    -0.169 F 
ATOM     28  C   UNL     1      31.126  -5.029 -22.549  0.00  0.00    +0.408 C 
ENDBRANCH  24  28
ENDBRANCH  23  24
ENDBRANCH  22  23
ENDBRANCH   7  22
TORSDOF 6
ENDMDL
MODEL 7
REMARK VINA RESULT:      -6.4     13.889     15.943
REMARK  Name = 4870
REMARK  6 active torsions:
REMARK  status: ('A' for Active; 'I' for Inactive)
REMARK    1  A    between atoms: C_7  and  C_22
REMARK    2  A    between atoms: C_13  and  S_16
REMARK    3  A    between atoms: S_16  and  N_19
REMARK    4  A    between atoms: C_22  and  S_23
REMARK    5  A    between atoms: S_23  and  C_24
REMARK    6  A    between atoms: C_24  and  C_28
REMARK                            x       y       z     vdW  Elec       q    Type
REMARK                         _______ _______ _______ _____ _____    ______ ____
ROOT
ATOM      1 CL   UNL     1      34.334 -14.350 -24.291  0.00  0.00    -0.081 Cl
ATOM      2  S   UNL     1      31.058 -10.978 -20.152  0.00  0.00    +0.066 S 
ATOM      3  O   UNL     1      31.592 -11.256 -18.833  0.00  0.00    -0.153 OA
ATOM      4  O   UNL     1      29.661 -11.214 -20.462  0.00  0.00    -0.153 OA
ATOM      5  N   UNL     1      31.495  -9.363 -20.627  0.00  0.00    -0.137 NA
ATOM      6  N   UNL     1      31.998 -10.041 -22.944  0.00  0.00    -0.319 N 
ATOM      7  C   UNL     1      31.232  -9.142 -22.094  0.00  0.00    +0.162 C 
ATOM      8  C   UNL     1      31.980 -11.913 -21.335  0.00  0.00    +0.137 C 
ATOM      9  C   UNL     1      32.306 -11.343 -22.577  0.00  0.00    +0.065 C 
ATOM     10  C   UNL     1      32.833  -8.885 -20.168  0.00  0.00    +0.117 C 
ATOM     11  C   UNL     1      32.358 -13.212 -20.985  0.00  0.00    +0.042 C 
ATOM     12  C   UNL     1      33.046 -12.140 -23.465  0.00  0.00    +0.028 C 
ATOM     13  C   UNL     1      33.084 -13.978 -21.893  0.00  0.00    +0.134 C 
ATOM     14  C   UNL     1      33.428 -13.444 -23.131  0.00  0.00    +0.078 C 
ATOM     15  H   UNL     1      32.312  -9.711 -23.817  0.00  0.00    +0.148 HD
ENDROOT
BRANCH  13  16
ATOM     16  S   UNL     1      33.537 -15.604 -21.421  0.00  0.00    +0.058 S 
ATOM     17  O   UNL     1      32.424 -16.191 -20.692  0.00  0.00    -0.153 OA
ATOM     18  O   UNL     1      34.082 -16.282 -22.586  0.00  0.00    -0.153 OA
BRANCH  16  19
ATOM     19  N   UNL     1      34.807 -15.276 -20.328  0.00  0.00    -0.203 NA
ATOM     20  H   UNL     1      34.737 -14.311 -20.005  0.00  0.00    +0.144 HD
ATOM     21  H   UNL     1      35.703 -15.413 -20.797  0.00  0.00    +0.144 HD
ENDBRANCH  16  19
ENDBRANCH  13  16
BRANCH   7  22
ATOM     22  C   UNL     1      31.482  -7.694 -22.506  0.00  0.00    +0.096 C 
BRANCH  22  23
ATOM     23  S   UNL     1      31.650  -7.572 -24.305  0.00  0.00    -0.128 S 
BRANCH  23  24
ATOM     24  C   UNL     1      33.019  -6.392 -24.366  0.00  0.00    +0.161 C 
BRANCH  24  28
ATOM     25  F   UNL     1      35.357  -6.403 -24.760  0.00  0.00    -0.169 F 
ATOM     26  F   UNL     1      34.649  -7.244 -22.869  0.00  0.00    -0.169 F 
ATOM     27  F   UNL     1      34.316  -8.316 -24.736  0.00  0.00    -0.169 F 
ATOM     28  C   UNL     1      34.349  -7.084 -24.176  0.00  0.00    +0.408 C 
ENDBRANCH  24  28
ENDBRANCH  23  24
ENDBRANCH  22  23
ENDBRANCH   7  22
TORSDOF 6
ENDMDL
MODEL 8
REMARK VINA RESULT:      -6.4     14.701     16.721
REMARK  Name = 4870
REMARK  6 active torsions:
REMARK  status: ('A' for Active; 'I' for Inactive)
REMARK    1  A    between atoms: C_7  and  C_22
REMARK    2  A    between atoms: C_13  and  S_16
REMARK    3  A    between atoms: S_16  and  N_19
REMARK    4  A    between atoms: C_22  and  S_23
REMARK    5  A    between atoms: S_23  and  C_24
REMARK    6  A    between atoms: C_24  and  C_28
REMARK                            x       y       z     vdW  Elec       q    Type
REMARK                         _______ _______ _______ _____ _____    ______ ____
ROOT
ATOM      1 CL   UNL     1      34.783 -14.911 -24.079  0.00  0.00    -0.081 Cl
ATOM      2  S   UNL     1      31.211 -10.948 -20.797  0.00  0.00    +0.066 S 
ATOM      3  O   UNL     1      31.625 -11.024 -19.410  0.00  0.00    -0.153 OA
ATOM      4  O   UNL     1      29.842 -11.227 -21.188  0.00  0.00    -0.153 OA
ATOM      5  N   UNL     1      31.710  -9.424 -21.470  0.00  0.00    -0.137 NA
ATOM      6  N   UNL     1      32.401 -10.445 -23.606  0.00  0.00    -0.319 N 
ATOM      7  C   UNL     1      31.577  -9.427 -22.971  0.00  0.00    +0.162 C 
ATOM      8  C   UNL     1      32.218 -12.053 -21.741  0.00  0.00    +0.137 C 
ATOM      9  C   UNL     1      32.658 -11.677 -23.021  0.00  0.00    +0.065 C 
ATOM     10  C   UNL     1      33.010  -8.883 -20.973  0.00  0.00    +0.117 C 
ATOM     11  C   UNL     1      32.546 -13.284 -21.168  0.00  0.00    +0.042 C 
ATOM     12  C   UNL     1      33.460 -12.600 -23.711  0.00  0.00    +0.028 C 
ATOM     13  C   UNL     1      33.337 -14.178 -21.883  0.00  0.00    +0.134 C 
ATOM     14  C   UNL     1      33.793 -13.838 -23.152  0.00  0.00    +0.078 C 
ATOM     15  H   UNL     1      32.793 -10.252 -24.488  0.00  0.00    +0.148 HD
ENDROOT
BRANCH  13  16
ATOM     16  S   UNL     1      33.724 -15.715 -21.134  0.00  0.00    +0.058 S 
ATOM     17  O   UNL     1      33.984 -16.681 -22.189  0.00  0.00    -0.153 OA
ATOM     18  O   UNL     1      34.719 -15.481 -20.100  0.00  0.00    -0.153 OA
BRANCH  16  19
ATOM     19  N   UNL     1      32.233 -16.093 -20.391  0.00  0.00    -0.203 NA
ATOM     20  H   UNL     1      31.756 -15.230 -20.128  0.00  0.00    +0.144 HD
ATOM     21  H   UNL     1      32.403 -16.654 -19.556  0.00  0.00    +0.144 HD
ENDBRANCH  16  19
ENDBRANCH  13  16
BRANCH   7  22
ATOM     22  C   UNL     1      31.882  -8.059 -23.573  0.00  0.00    +0.096 C 
BRANCH  22  23
ATOM     23  S   UNL     1      30.734  -6.817 -22.924  0.00  0.00    -0.128 S 
BRANCH  23  24
ATOM     24  C   UNL     1      31.814  -5.371 -23.035  0.00  0.00    +0.161 C 
BRANCH  24  28
ATOM     25  F   UNL     1      31.894  -3.401 -24.350  0.00  0.00    -0.169 F 
ATOM     26  F   UNL     1      32.698  -5.234 -25.231  0.00  0.00    -0.169 F 
ATOM     27  F   UNL     1      30.548  -4.994 -24.978  0.00  0.00    -0.169 F 
ATOM     28  C   UNL     1      31.749  -4.741 -24.407  0.00  0.00    +0.408 C 
ENDBRANCH  24  28
ENDBRANCH  23  24
ENDBRANCH  22  23
ENDBRANCH   7  22
TORSDOF 6
ENDMDL
MODEL 9
REMARK VINA RESULT:      -6.4      8.521     10.087
REMARK  Name = 4870
REMARK  6 active torsions:
REMARK  status: ('A' for Active; 'I' for Inactive)
REMARK    1  A    between atoms: C_7  and  C_22
REMARK    2  A    between atoms: C_13  and  S_16
REMARK    3  A    between atoms: S_16  and  N_19
REMARK    4  A    between atoms: C_22  and  S_23
REMARK    5  A    between atoms: S_23  and  C_24
REMARK    6  A    between atoms: C_24  and  C_28
REMARK                            x       y       z     vdW  Elec       q    Type
REMARK                         _______ _______ _______ _____ _____    ______ ____
ROOT
ATOM      1 CL   UNL     1      32.317 -13.152 -20.571  0.00  0.00    -0.081 Cl
ATOM      2  S   UNL     1      34.681 -17.865 -23.953  0.00  0.00    +0.066 S 
ATOM      3  O   UNL     1      35.740 -17.326 -24.783  0.00  0.00    -0.153 OA
ATOM      4  O   UNL     1      33.542 -18.547 -24.537  0.00  0.00    -0.153 OA
ATOM      5  N   UNL     1      35.372 -18.852 -22.699  0.00  0.00    -0.137 NA
ATOM      6  N   UNL     1      33.822 -17.989 -20.985  0.00  0.00    -0.319 N 
ATOM      7  C   UNL     1      34.348 -19.177 -21.642  0.00  0.00    +0.162 C 
ATOM      8  C   UNL     1      34.010 -16.549 -22.982  0.00  0.00    +0.137 C 
ATOM      9  C   UNL     1      33.645 -16.781 -21.646  0.00  0.00    +0.065 C 
ATOM     10  C   UNL     1      36.687 -18.397 -22.156  0.00  0.00    +0.117 C 
ATOM     11  C   UNL     1      33.864 -15.300 -23.591  0.00  0.00    +0.042 C 
ATOM     12  C   UNL     1      33.125 -15.689 -20.931  0.00  0.00    +0.028 C 
ATOM     13  C   UNL     1      33.338 -14.241 -22.857  0.00  0.00    +0.134 C 
ATOM     14  C   UNL     1      32.969 -14.435 -21.529  0.00  0.00    +0.078 C 
ATOM     15  H   UNL     1      33.582 -18.045 -20.032  0.00  0.00    +0.148 HD
ENDROOT
BRANCH  13  16
ATOM     16  S   UNL     1      33.165 -12.691 -23.655  0.00  0.00    +0.058 S 
ATOM     17  O   UNL     1      31.874 -12.133 -23.288  0.00  0.00    -0.153 OA
ATOM     18  O   UNL     1      34.380 -11.924 -23.432  0.00  0.00    -0.153 OA
BRANCH  16  19
ATOM     19  N   UNL     1      33.113 -13.179 -25.291  0.00  0.00    -0.203 NA
ATOM     20  H   UNL     1      33.393 -14.158 -25.363  0.00  0.00    +0.144 HD
ATOM     21  H   UNL     1      33.753 -12.602 -25.838  0.00  0.00    +0.144 HD
ENDBRANCH  16  19
ENDBRANCH  13  16
BRANCH   7  22
ATOM     22  C   UNL     1      34.893 -20.151 -20.601  0.00  0.00    +0.096 C 
BRANCH  22  23
ATOM     23  S   UNL     1      33.537 -21.078 -19.838  0.00  0.00    -0.128 S 
BRANCH  23  24
ATOM     24  C   UNL     1      34.523 -22.205 -18.823  0.00  0.00    +0.161 C 
BRANCH  24  28
ATOM     25  F   UNL     1      32.445 -22.398 -17.699  0.00  0.00    -0.169 F 
ATOM     26  F   UNL     1      33.461 -24.250 -18.266  0.00  0.00    -0.169 F 
ATOM     27  F   UNL     1      34.242 -23.028 -16.641  0.00  0.00    -0.169 F 
ATOM     28  C   UNL     1      33.654 -22.977 -17.859  0.00  0.00    +0.408 C 
ENDBRANCH  24  28
ENDBRANCH  23  24
ENDBRANCH  22  23
ENDBRANCH   7  22
TORSDOF 6
ENDMDL
