MODEL 1
REMARK VINA RESULT:      -8.9      0.000      0.000
REMARK  Name = 5878
REMARK  1 active torsions:
REMARK  status: ('A' for Active; 'I' for Inactive)
REMARK    1  A    between atoms: C_8  and  O_22
REMARK                            x       y       z     vdW  Elec       q    Type
REMARK                         _______ _______ _______ _____ _____    ______ ____
ROOT
ATOM      1  O   UNL     1      37.907 -25.557 -13.185  0.00  0.00    -0.448 OA
ATOM      2  O   UNL     1      39.995 -25.185 -13.932  0.00  0.00    -0.250 OA
ATOM      3  C   UNL     1      32.475 -23.641 -15.831  0.00  0.00    +0.002 C 
ATOM      4  C   UNL     1      31.509 -23.848 -14.645  0.00  0.00    +0.023 C 
ATOM      5  C   UNL     1      33.915 -23.344 -15.393  0.00  0.00    +0.000 C 
ATOM      6  C   UNL     1      34.433 -24.535 -14.525  0.00  0.00    +0.003 C 
ATOM      7  C   UNL     1      35.921 -24.323 -14.075  0.00  0.00    +0.041 C 
ATOM      8  C   UNL     1      30.153 -24.002 -15.401  0.00  0.00    +0.088 C 
ATOM      9  C   UNL     1      32.003 -25.066 -13.844  0.00  0.00    +0.002 C 
ATOM     10  C   UNL     1      33.458 -24.889 -13.373  0.00  0.00    +0.000 C 
ATOM     11  C   UNL     1      31.754 -22.617 -16.703  0.00  0.00    +0.002 C 
ATOM     12  C   UNL     1      36.784 -24.097 -15.340  0.00  0.00    +0.015 C 
ATOM     13  C   UNL     1      34.831 -23.110 -16.603  0.00  0.00    +0.000 C 
ATOM     14  C   UNL     1      30.260 -22.951 -16.539  0.00  0.00    +0.027 C 
ATOM     15  C   UNL     1      36.291 -22.925 -16.195  0.00  0.00    +0.001 C 
ATOM     16  C   UNL     1      31.430 -22.621 -13.690  0.00  0.00    +0.002 C 
ATOM     17  C   UNL     1      36.482 -25.598 -13.425  0.00  0.00    +0.208 C 
ATOM     18  C   UNL     1      36.048 -23.158 -13.062  0.00  0.00    +0.004 C 
ATOM     19  C   UNL     1      38.259 -23.939 -14.991  0.00  0.00    +0.110 C 
ATOM     20  C   UNL     1      29.871 -25.393 -15.983  0.00  0.00    +0.029 C 
ATOM     21  C   UNL     1      38.789 -24.966 -14.023  0.00  0.00    +0.317 C 
ENDROOT
BRANCH   8  22
ATOM     22  O   UNL     1      29.041 -23.676 -14.570  0.00  0.00    -0.387 OA
ATOM     23  H   UNL     1      29.354 -23.211 -13.779  0.00  0.00    +0.210 HD
ENDBRANCH   8  22
TORSDOF 1
ENDMDL
MODEL 2
REMARK VINA RESULT:      -8.4      2.904      6.280
REMARK  Name = 5878
REMARK  1 active torsions:
REMARK  status: ('A' for Active; 'I' for Inactive)
REMARK    1  A    between atoms: C_8  and  O_22
REMARK                            x       y       z     vdW  Elec       q    Type
REMARK                         _______ _______ _______ _____ _____    ______ ____
ROOT
ATOM      1  O   UNL     1      32.360 -21.497 -19.418  0.00  0.00    -0.448 OA
ATOM      2  O   UNL     1      32.752 -20.153 -21.178  0.00  0.00    -0.250 OA
ATOM      3  C   UNL     1      36.520 -23.399 -15.029  0.00  0.00    +0.002 C 
ATOM      4  C   UNL     1      35.738 -24.578 -14.409  0.00  0.00    +0.023 C 
ATOM      5  C   UNL     1      36.165 -23.147 -16.501  0.00  0.00    +0.000 C 
ATOM      6  C   UNL     1      34.636 -22.845 -16.605  0.00  0.00    +0.003 C 
ATOM      7  C   UNL     1      34.204 -22.531 -18.081  0.00  0.00    +0.041 C 
ATOM      8  C   UNL     1      36.396 -24.648 -12.996  0.00  0.00    +0.088 C 
ATOM      9  C   UNL     1      34.241 -24.229 -14.465  0.00  0.00    +0.002 C 
ATOM     10  C   UNL     1      33.775 -23.926 -15.901  0.00  0.00    +0.000 C 
ATOM     11  C   UNL     1      37.971 -23.708 -14.674  0.00  0.00    +0.002 C 
ATOM     12  C   UNL     1      35.071 -21.360 -18.602  0.00  0.00    +0.015 C 
ATOM     13  C   UNL     1      36.990 -21.991 -17.084  0.00  0.00    +0.000 C 
ATOM     14  C   UNL     1      37.897 -24.380 -13.290  0.00  0.00    +0.027 C 
ATOM     15  C   UNL     1      36.574 -21.648 -18.513  0.00  0.00    +0.001 C 
ATOM     16  C   UNL     1      35.964 -25.928 -15.151  0.00  0.00    +0.002 C 
ATOM     17  C   UNL     1      32.757 -22.016 -18.128  0.00  0.00    +0.208 C 
ATOM     18  C   UNL     1      34.309 -23.786 -18.982  0.00  0.00    +0.004 C 
ATOM     19  C   UNL     1      34.673 -20.954 -20.016  0.00  0.00    +0.110 C 
ATOM     20  C   UNL     1      35.866 -23.644 -11.966  0.00  0.00    +0.029 C 
ATOM     21  C   UNL     1      33.189 -20.804 -20.232  0.00  0.00    +0.317 C 
ENDROOT
BRANCH   8  22
ATOM     22  O   UNL     1      36.261 -25.942 -12.411  0.00  0.00    -0.387 OA
ATOM     23  H   UNL     1      36.995 -26.096 -11.796  0.00  0.00    +0.210 HD
ENDBRANCH   8  22
TORSDOF 1
ENDMDL
MODEL 3
REMARK VINA RESULT:      -7.5     10.418     12.716
REMARK  Name = 5878
REMARK  1 active torsions:
REMARK  status: ('A' for Active; 'I' for Inactive)
REMARK    1  A    between atoms: C_8  and  O_22
REMARK                            x       y       z     vdW  Elec       q    Type
REMARK                         _______ _______ _______ _____ _____    ______ ____
ROOT
ATOM      1  O   UNL     1      33.892 -11.786 -23.587  0.00  0.00    -0.448 OA
ATOM      2  O   UNL     1      33.528 -10.672 -25.506  0.00  0.00    -0.250 OA
ATOM      3  C   UNL     1      34.936 -17.998 -22.881  0.00  0.00    +0.002 C 
ATOM      4  C   UNL     1      34.684 -18.144 -21.365  0.00  0.00    +0.023 C 
ATOM      5  C   UNL     1      34.142 -16.850 -23.518  0.00  0.00    +0.000 C 
ATOM      6  C   UNL     1      34.538 -15.513 -22.813  0.00  0.00    +0.003 C 
ATOM      7  C   UNL     1      33.797 -14.281 -23.442  0.00  0.00    +0.041 C 
ATOM      8  C   UNL     1      35.511 -19.430 -21.058  0.00  0.00    +0.088 C 
ATOM      9  C   UNL     1      35.141 -16.841 -20.686  0.00  0.00    +0.002 C 
ATOM     10  C   UNL     1      34.426 -15.609 -21.269  0.00  0.00    +0.000 C 
ATOM     11  C   UNL     1      34.724 -19.411 -23.415  0.00  0.00    +0.002 C 
ATOM     12  C   UNL     1      34.098 -14.257 -24.960  0.00  0.00    +0.015 C 
ATOM     13  C   UNL     1      34.397 -16.765 -25.030  0.00  0.00    +0.000 C 
ATOM     14  C   UNL     1      35.238 -20.332 -22.292  0.00  0.00    +0.027 C 
ATOM     15  C   UNL     1      33.707 -15.560 -25.665  0.00  0.00    +0.001 C 
ATOM     16  C   UNL     1      33.189 -18.395 -21.008  0.00  0.00    +0.002 C 
ATOM     17  C   UNL     1      34.367 -12.963 -22.895  0.00  0.00    +0.208 C 
ATOM     18  C   UNL     1      32.277 -14.320 -23.146  0.00  0.00    +0.004 C 
ATOM     19  C   UNL     1      33.459 -13.052 -25.639  0.00  0.00    +0.110 C 
ATOM     20  C   UNL     1      37.020 -19.221 -20.873  0.00  0.00    +0.029 C 
ATOM     21  C   UNL     1      33.663 -11.744 -24.919  0.00  0.00    +0.317 C 
ENDROOT
BRANCH   8  22
ATOM     22  O   UNL     1      35.045 -20.094 -19.885  0.00  0.00    -0.387 OA
ATOM     23  H   UNL     1      34.263 -19.635 -19.543  0.00  0.00    +0.210 HD
ENDBRANCH   8  22
TORSDOF 1
ENDMDL
MODEL 4
REMARK VINA RESULT:      -7.4     19.895     22.007
REMARK  Name = 5878
REMARK  1 active torsions:
REMARK  status: ('A' for Active; 'I' for Inactive)
REMARK    1  A    between atoms: C_8  and  O_22
REMARK                            x       y       z     vdW  Elec       q    Type
REMARK                         _______ _______ _______ _____ _____    ______ ____
ROOT
ATOM      1  O   UNL     1      33.357  -8.215 -21.798  0.00  0.00    -0.448 OA
ATOM      2  O   UNL     1      32.272  -8.448 -19.842  0.00  0.00    -0.250 OA
ATOM      3  C   UNL     1      32.794  -3.473 -25.968  0.00  0.00    +0.002 C 
ATOM      4  C   UNL     1      33.451  -4.122 -27.205  0.00  0.00    +0.023 C 
ATOM      5  C   UNL     1      32.146  -4.493 -25.023  0.00  0.00    +0.000 C 
ATOM      6  C   UNL     1      33.240  -5.499 -24.541  0.00  0.00    +0.003 C 
ATOM      7  C   UNL     1      32.659  -6.551 -23.532  0.00  0.00    +0.041 C 
ATOM      8  C   UNL     1      33.893  -2.852 -27.996  0.00  0.00    +0.088 C 
ATOM      9  C   UNL     1      34.567  -5.057 -26.708  0.00  0.00    +0.002 C 
ATOM     10  C   UNL     1      34.033  -6.113 -25.723  0.00  0.00    +0.000 C 
ATOM     11  C   UNL     1      31.918  -2.376 -26.564  0.00  0.00    +0.002 C 
ATOM     12  C   UNL     1      32.004  -5.787 -22.356  0.00  0.00    +0.015 C 
ATOM     13  C   UNL     1      31.476  -3.802 -23.827  0.00  0.00    +0.000 C 
ATOM     14  C   UNL     1      32.705  -1.873 -27.789  0.00  0.00    +0.027 C 
ATOM     15  C   UNL     1      30.923  -4.803 -22.816  0.00  0.00    +0.001 C 
ATOM     16  C   UNL     1      32.456  -4.948 -28.071  0.00  0.00    +0.002 C 
ATOM     17  C   UNL     1      33.788  -7.380 -22.897  0.00  0.00    +0.208 C 
ATOM     18  C   UNL     1      31.670  -7.519 -24.227  0.00  0.00    +0.004 C 
ATOM     19  C   UNL     1      31.464  -6.741 -21.299  0.00  0.00    +0.110 C 
ATOM     20  C   UNL     1      35.204  -2.204 -27.534  0.00  0.00    +0.029 C 
ATOM     21  C   UNL     1      32.414  -7.843 -20.903  0.00  0.00    +0.317 C 
ENDROOT
BRANCH   8  22
ATOM     22  O   UNL     1      34.039  -3.118 -29.389  0.00  0.00    -0.387 OA
ATOM     23  H   UNL     1      34.046  -4.076 -29.537  0.00  0.00    +0.210 HD
ENDBRANCH   8  22
TORSDOF 1
ENDMDL
MODEL 5
REMARK VINA RESULT:      -6.8      1.231      6.752
REMARK  Name = 5878
REMARK  1 active torsions:
REMARK  status: ('A' for Active; 'I' for Inactive)
REMARK    1  A    between atoms: C_8  and  O_22
REMARK                            x       y       z     vdW  Elec       q    Type
REMARK                         _______ _______ _______ _____ _____    ______ ____
ROOT
ATOM      1  O   UNL     1      30.691 -22.630 -17.104  0.00  0.00    -0.448 OA
ATOM      2  O   UNL     1      28.490 -22.989 -16.810  0.00  0.00    -0.250 OA
ATOM      3  C   UNL     1      35.470 -25.007 -13.685  0.00  0.00    +0.002 C 
ATOM      4  C   UNL     1      36.611 -24.067 -14.126  0.00  0.00    +0.023 C 
ATOM      5  C   UNL     1      34.085 -24.349 -13.753  0.00  0.00    +0.000 C 
ATOM      6  C   UNL     1      33.818 -23.890 -15.222  0.00  0.00    +0.003 C 
ATOM      7  C   UNL     1      32.396 -23.245 -15.381  0.00  0.00    +0.041 C 
ATOM      8  C   UNL     1      37.854 -24.964 -13.833  0.00  0.00    +0.088 C 
ATOM      9  C   UNL     1      36.361 -23.681 -15.595  0.00  0.00    +0.002 C 
ATOM     10  C   UNL     1      34.978 -23.032 -15.789  0.00  0.00    +0.000 C 
ATOM     11  C   UNL     1      35.952 -25.548 -12.343  0.00  0.00    +0.002 C 
ATOM     12  C   UNL     1      31.342 -24.263 -14.881  0.00  0.00    +0.015 C 
ATOM     13  C   UNL     1      32.986 -25.308 -13.272  0.00  0.00    +0.000 C 
ATOM     14  C   UNL     1      37.481 -25.661 -12.496  0.00  0.00    +0.027 C 
ATOM     15  C   UNL     1      31.589 -24.715 -13.438  0.00  0.00    +0.001 C 
ATOM     16  C   UNL     1      36.704 -22.765 -13.277  0.00  0.00    +0.002 C 
ATOM     17  C   UNL     1      32.063 -23.013 -16.863  0.00  0.00    +0.208 C 
ATOM     18  C   UNL     1      32.301 -21.890 -14.637  0.00  0.00    +0.004 C 
ATOM     19  C   UNL     1      29.925 -23.733 -15.056  0.00  0.00    +0.110 C 
ATOM     20  C   UNL     1      38.186 -26.009 -14.905  0.00  0.00    +0.029 C 
ATOM     21  C   UNL     1      29.644 -23.123 -16.405  0.00  0.00    +0.317 C 
ENDROOT
BRANCH   8  22
ATOM     22  O   UNL     1      39.035 -24.189 -13.640  0.00  0.00    -0.387 OA
ATOM     23  H   UNL     1      38.793 -23.303 -13.329  0.00  0.00    +0.210 HD
ENDBRANCH   8  22
TORSDOF 1
ENDMDL
MODEL 6
REMARK VINA RESULT:      -6.2     13.523     15.628
REMARK  Name = 5878
REMARK  1 active torsions:
REMARK  status: ('A' for Active; 'I' for Inactive)
REMARK    1  A    between atoms: C_8  and  O_22
REMARK                            x       y       z     vdW  Elec       q    Type
REMARK                         _______ _______ _______ _____ _____    ______ ____
ROOT
ATOM      1  O   UNL     1      34.271 -15.661 -22.941  0.00  0.00    -0.448 OA
ATOM      2  O   UNL     1      33.740 -17.351 -21.556  0.00  0.00    -0.250 OA
ATOM      3  C   UNL     1      32.795  -9.532 -22.274  0.00  0.00    +0.002 C 
ATOM      4  C   UNL     1      33.072  -9.030 -23.707  0.00  0.00    +0.023 C 
ATOM      5  C   UNL     1      32.384 -11.010 -22.220  0.00  0.00    +0.000 C 
ATOM      6  C   UNL     1      33.528 -11.873 -22.842  0.00  0.00    +0.003 C 
ATOM      7  C   UNL     1      33.199 -13.406 -22.782  0.00  0.00    +0.041 C 
ATOM      8  C   UNL     1      33.334  -7.516 -23.437  0.00  0.00    +0.088 C 
ATOM      9  C   UNL     1      34.244  -9.850 -24.274  0.00  0.00    +0.002 C 
ATOM     10  C   UNL     1      33.953 -11.362 -24.243  0.00  0.00    +0.000 C 
ATOM     11  C   UNL     1      31.833  -8.490 -21.711  0.00  0.00    +0.002 C 
ATOM     12  C   UNL     1      32.911 -13.784 -21.309  0.00  0.00    +0.015 C 
ATOM     13  C   UNL     1      32.085 -11.455 -20.782  0.00  0.00    +0.000 C 
ATOM     14  C   UNL     1      32.282  -7.162 -22.350  0.00  0.00    +0.027 C 
ATOM     15  C   UNL     1      31.785 -12.949 -20.690  0.00  0.00    +0.001 C 
ATOM     16  C   UNL     1      31.851  -9.179 -24.662  0.00  0.00    +0.002 C 
ATOM     17  C   UNL     1      34.424 -14.244 -23.183  0.00  0.00    +0.208 C 
ATOM     18  C   UNL     1      32.024 -13.772 -23.722  0.00  0.00    +0.004 C 
ATOM     19  C   UNL     1      32.638 -15.275 -21.156  0.00  0.00    +0.110 C 
ATOM     20  C   UNL     1      34.745  -7.163 -22.949  0.00  0.00    +0.029 C 
ATOM     21  C   UNL     1      33.616 -16.170 -21.872  0.00  0.00    +0.317 C 
ENDROOT
BRANCH   8  22
ATOM     22  O   UNL     1      33.092  -6.720 -24.595  0.00  0.00    -0.387 OA
ATOM     23  H   UNL     1      33.433  -5.824 -24.448  0.00  0.00    +0.210 HD
ENDBRANCH   8  22
TORSDOF 1
ENDMDL
