MODEL 1
REMARK VINA RESULT:     -10.3      0.000      0.000
REMARK  Name = 5289091
REMARK  14 active torsions:
REMARK  status: ('A' for Active; 'I' for Inactive)
REMARK    1  A    between atoms: C_1  and  C_4
REMARK    2  A    between atoms: C_1  and  N_21
REMARK    3  A    between atoms: C_1  and  C_32
REMARK    4  A    between atoms: N_3  and  C_6
REMARK    5  A    between atoms: C_6  and  C_8
REMARK    6  A    between atoms: C_6  and  C_12
REMARK    7  A    between atoms: C_8  and  C_9
REMARK    8  A    between atoms: C_9  and  O_10
REMARK    9  A    between atoms: C_12  and  C_13
REMARK   10  A    between atoms: C_13  and  C_14
REMARK   11  A    between atoms: C_22  and  O_24
REMARK   12  A    between atoms: O_24  and  C_25
REMARK   13  A    between atoms: C_25  and  C_27
REMARK   14  A    between atoms: C_32  and  C_33
REMARK                            x       y       z     vdW  Elec       q    Type
REMARK                         _______ _______ _______ _____ _____    ______ ____
ROOT
ATOM      1  C   UNL     1      33.250 -23.384 -17.105  0.00  0.00    +0.155 C 
ENDROOT
BRANCH   1   4
ATOM      2  O   UNL     1      33.762 -23.889 -19.420  0.00  0.00    -0.273 OA
ATOM      3  N   UNL     1      34.395 -21.826 -18.563  0.00  0.00    -0.298 N 
ATOM      4  C   UNL     1      33.832 -23.096 -18.485  0.00  0.00    +0.241 C 
ATOM      5  H   UNL     1      34.400 -21.267 -17.751  0.00  0.00    +0.150 HD
BRANCH   3   6
ATOM      6  C   UNL     1      34.972 -21.284 -19.765  0.00  0.00    +0.132 C 
BRANCH   6   8
ATOM      7  O   UNL     1      36.939 -19.904 -20.003  0.00  0.00    -0.292 OA
ATOM      8  C   UNL     1      36.378 -20.824 -19.407  0.00  0.00    +0.198 C 
BRANCH   8   9
ATOM      9  C   UNL     1      37.070 -21.596 -18.300  0.00  0.00    +0.204 C 
BRANCH   9  10
ATOM     10  O   UNL     1      36.749 -21.054 -17.036  0.00  0.00    -0.375 OA
ATOM     11  H   UNL     1      35.802 -20.844 -17.005  0.00  0.00    +0.211 HD
ENDBRANCH   9  10
ENDBRANCH   8   9
ENDBRANCH   6   8
BRANCH   6  12
ATOM     12  C   UNL     1      34.164 -20.114 -20.332  0.00  0.00    +0.032 C 
BRANCH  12  13
ATOM     13  C   UNL     1      34.333 -19.906 -21.844  0.00  0.00    +0.029 C 
BRANCH  13  14
ATOM     14  C   UNL     1      34.535 -18.467 -22.241  0.00  0.00    -0.022 C 
ATOM     15  C   UNL     1      34.517 -17.465 -21.269  0.00  0.00    -0.004 C 
ATOM     16  C   UNL     1      34.740 -18.134 -23.580  0.00  0.00    -0.004 C 
ATOM     17  C   UNL     1      34.704 -16.133 -21.637  0.00  0.00    -0.000 C 
ATOM     18  C   UNL     1      34.927 -16.802 -23.947  0.00  0.00    -0.000 C 
ATOM     19  C   UNL     1      34.909 -15.801 -22.976  0.00  0.00    -0.000 C 
ENDBRANCH  13  14
ENDBRANCH  12  13
ENDBRANCH   6  12
ENDBRANCH   3   6
ENDBRANCH   1   4
BRANCH   1  21
ATOM     20  O   UNL     1      35.155 -25.079 -15.715  0.00  0.00    -0.226 OA
ATOM     21  N   UNL     1      34.239 -22.989 -16.133  0.00  0.00    -0.264 N 
ATOM     22  C   UNL     1      35.108 -23.869 -15.520  0.00  0.00    +0.402 C 
ATOM     23  H   UNL     1      34.298 -22.036 -15.894  0.00  0.00    +0.153 HD
BRANCH  22  24
ATOM     24  O   UNL     1      35.919 -23.190 -14.654  0.00  0.00    -0.430 OA
BRANCH  24  25
ATOM     25  C   UNL     1      36.376 -23.931 -13.516  0.00  0.00    +0.238 C 
BRANCH  25  27
ATOM     26  N   UNL     1      39.421 -26.159 -13.272  0.00  0.00    -0.243 NA
ATOM     27  C   UNL     1      37.700 -24.559 -13.841  0.00  0.00    +0.040 C 
ATOM     28  C   UNL     1      38.425 -24.163 -14.958  0.00  0.00    +0.002 C 
ATOM     29  C   UNL     1      38.236 -25.552 -13.036  0.00  0.00    +0.098 C 
ATOM     30  C   UNL     1      39.650 -24.764 -15.233  0.00  0.00    +0.020 C 
ATOM     31  C   UNL     1      40.098 -25.747 -14.366  0.00  0.00    +0.099 C 
ENDBRANCH  25  27
ENDBRANCH  24  25
ENDBRANCH  22  24
ENDBRANCH   1  21
BRANCH   1  32
ATOM     32  C   UNL     1      31.925 -22.637 -16.919  0.00  0.00    +0.055 C 
BRANCH  32  33
ATOM     33  C   UNL     1      30.891 -23.457 -16.188  0.00  0.00    -0.020 C 
ATOM     34  C   UNL     1      31.281 -24.321 -15.165  0.00  0.00    -0.004 C 
ATOM     35  C   UNL     1      29.543 -23.350 -16.533  0.00  0.00    -0.004 C 
ATOM     36  C   UNL     1      30.326 -25.079 -14.488  0.00  0.00    -0.000 C 
ATOM     37  C   UNL     1      28.587 -24.108 -15.857  0.00  0.00    -0.000 C 
ATOM     38  C   UNL     1      28.978 -24.972 -14.834  0.00  0.00    -0.000 C 
ENDBRANCH  32  33
ENDBRANCH   1  32
TORSDOF 14
ENDMDL
MODEL 2
REMARK VINA RESULT:     -10.2      5.992     12.862
REMARK  Name = 5289091
REMARK  14 active torsions:
REMARK  status: ('A' for Active; 'I' for Inactive)
REMARK    1  A    between atoms: C_1  and  C_4
REMARK    2  A    between atoms: C_1  and  N_21
REMARK    3  A    between atoms: C_1  and  C_32
REMARK    4  A    between atoms: N_3  and  C_6
REMARK    5  A    between atoms: C_6  and  C_8
REMARK    6  A    between atoms: C_6  and  C_12
REMARK    7  A    between atoms: C_8  and  C_9
REMARK    8  A    between atoms: C_9  and  O_10
REMARK    9  A    between atoms: C_12  and  C_13
REMARK   10  A    between atoms: C_13  and  C_14
REMARK   11  A    between atoms: C_22  and  O_24
REMARK   12  A    between atoms: O_24  and  C_25
REMARK   13  A    between atoms: C_25  and  C_27
REMARK   14  A    between atoms: C_32  and  C_33
REMARK                            x       y       z     vdW  Elec       q    Type
REMARK                         _______ _______ _______ _____ _____    ______ ____
ROOT
ATOM      1  C   UNL     1      32.731 -14.008 -23.623  0.00  0.00    +0.155 C 
ENDROOT
BRANCH   1   4
ATOM      2  O   UNL     1      35.018 -14.009 -22.820  0.00  0.00    -0.273 OA
ATOM      3  N   UNL     1      33.988 -16.044 -23.252  0.00  0.00    -0.298 N 
ATOM      4  C   UNL     1      34.046 -14.656 -23.201  0.00  0.00    +0.241 C 
ATOM      5  H   UNL     1      33.157 -16.465 -23.574  0.00  0.00    +0.150 HD
BRANCH   3   6
ATOM      6  C   UNL     1      35.077 -16.901 -22.860  0.00  0.00    +0.132 C 
BRANCH   6   8
ATOM      7  O   UNL     1      35.869 -19.004 -23.743  0.00  0.00    -0.292 OA
ATOM      8  C   UNL     1      35.149 -18.016 -23.893  0.00  0.00    +0.198 C 
BRANCH   8   9
ATOM      9  C   UNL     1      34.316 -17.820 -25.145  0.00  0.00    +0.204 C 
BRANCH   9  10
ATOM     10  O   UNL     1      34.801 -16.730 -25.903  0.00  0.00    -0.375 OA
ATOM     11  H   UNL     1      35.730 -16.885 -26.133  0.00  0.00    +0.211 HD
ENDBRANCH   9  10
ENDBRANCH   8   9
ENDBRANCH   6   8
BRANCH   6  12
ATOM     12  C   UNL     1      34.888 -17.492 -21.461  0.00  0.00    +0.032 C 
BRANCH  12  13
ATOM     13  C   UNL     1      33.751 -18.518 -21.359  0.00  0.00    +0.029 C 
BRANCH  13  14
ATOM     14  C   UNL     1      34.132 -19.778 -20.626  0.00  0.00    -0.022 C 
ATOM     15  C   UNL     1      35.474 -20.149 -20.527  0.00  0.00    -0.004 C 
ATOM     16  C   UNL     1      33.144 -20.574 -20.046  0.00  0.00    -0.004 C 
ATOM     17  C   UNL     1      35.827 -21.316 -19.849  0.00  0.00    -0.000 C 
ATOM     18  C   UNL     1      33.498 -21.741 -19.368  0.00  0.00    -0.000 C 
ATOM     19  C   UNL     1      34.839 -22.112 -19.269  0.00  0.00    -0.000 C 
ENDBRANCH  13  14
ENDBRANCH  12  13
ENDBRANCH   6  12
ENDBRANCH   3   6
ENDBRANCH   1   4
BRANCH   1  21
ATOM     20  O   UNL     1      32.320 -14.470 -20.785  0.00  0.00    -0.226 OA
ATOM     21  N   UNL     1      32.388 -13.041 -22.611  0.00  0.00    -0.264 N 
ATOM     22  C   UNL     1      32.212 -13.352 -21.277  0.00  0.00    +0.402 C 
ATOM     23  H   UNL     1      32.274 -12.103 -22.886  0.00  0.00    +0.153 HD
BRANCH  22  24
ATOM     24  O   UNL     1      31.894 -12.223 -20.576  0.00  0.00    -0.430 OA
BRANCH  24  25
ATOM     25  C   UNL     1      31.015 -11.304 -21.235  0.00  0.00    +0.238 C 
BRANCH  25  27
ATOM     26  N   UNL     1      32.361  -8.244 -19.469  0.00  0.00    -0.243 NA
ATOM     27  C   UNL     1      31.507  -9.905 -21.003  0.00  0.00    +0.040 C 
ATOM     28  C   UNL     1      31.571  -8.988 -22.045  0.00  0.00    +0.002 C 
ATOM     29  C   UNL     1      31.909  -9.488 -19.745  0.00  0.00    +0.098 C 
ATOM     30  C   UNL     1      32.030  -7.698 -21.800  0.00  0.00    +0.020 C 
ATOM     31  C   UNL     1      32.409  -7.380 -20.506  0.00  0.00    +0.099 C 
ENDBRANCH  25  27
ENDBRANCH  24  25
ENDBRANCH  22  24
ENDBRANCH   1  21
BRANCH   1  32
ATOM     32  C   UNL     1      32.872 -13.371 -25.009  0.00  0.00    +0.055 C 
BRANCH  32  33
ATOM     33  C   UNL     1      33.678 -12.096 -24.987  0.00  0.00    -0.020 C 
ATOM     34  C   UNL     1      34.549 -11.803 -26.036  0.00  0.00    -0.004 C 
ATOM     35  C   UNL     1      33.553 -11.210 -23.916  0.00  0.00    -0.004 C 
ATOM     36  C   UNL     1      35.294 -10.624 -26.017  0.00  0.00    -0.000 C 
ATOM     37  C   UNL     1      34.299 -10.031 -23.896  0.00  0.00    -0.000 C 
ATOM     38  C   UNL     1      35.170  -9.738 -24.946  0.00  0.00    -0.000 C 
ENDBRANCH  32  33
ENDBRANCH   1  32
TORSDOF 14
ENDMDL
MODEL 3
REMARK VINA RESULT:     -10.0      5.359     12.233
REMARK  Name = 5289091
REMARK  14 active torsions:
REMARK  status: ('A' for Active; 'I' for Inactive)
REMARK    1  A    between atoms: C_1  and  C_4
REMARK    2  A    between atoms: C_1  and  N_21
REMARK    3  A    between atoms: C_1  and  C_32
REMARK    4  A    between atoms: N_3  and  C_6
REMARK    5  A    between atoms: C_6  and  C_8
REMARK    6  A    between atoms: C_6  and  C_12
REMARK    7  A    between atoms: C_8  and  C_9
REMARK    8  A    between atoms: C_9  and  O_10
REMARK    9  A    between atoms: C_12  and  C_13
REMARK   10  A    between atoms: C_13  and  C_14
REMARK   11  A    between atoms: C_22  and  O_24
REMARK   12  A    between atoms: O_24  and  C_25
REMARK   13  A    between atoms: C_25  and  C_27
REMARK   14  A    between atoms: C_32  and  C_33
REMARK                            x       y       z     vdW  Elec       q    Type
REMARK                         _______ _______ _______ _____ _____    ______ ____
ROOT
ATOM      1  C   UNL     1      33.549 -14.707 -21.911  0.00  0.00    +0.155 C 
ENDROOT
BRANCH   1   4
ATOM      2  O   UNL     1      34.921 -15.467 -20.063  0.00  0.00    -0.273 OA
ATOM      3  N   UNL     1      34.172 -17.027 -21.612  0.00  0.00    -0.298 N 
ATOM      4  C   UNL     1      34.306 -15.745 -21.090  0.00  0.00    +0.241 C 
ATOM      5  H   UNL     1      33.656 -17.141 -22.443  0.00  0.00    +0.150 HD
BRANCH   3   6
ATOM      6  C   UNL     1      34.747 -18.197 -21.002  0.00  0.00    +0.132 C 
BRANCH   6   8
ATOM      7  O   UNL     1      37.034 -18.865 -21.403  0.00  0.00    -0.292 OA
ATOM      8  C   UNL     1      35.925 -18.611 -21.874  0.00  0.00    +0.198 C 
BRANCH   8   9
ATOM      9  C   UNL     1      35.665 -18.648 -23.368  0.00  0.00    +0.204 C 
BRANCH   9  10
ATOM     10  O   UNL     1      35.742 -17.351 -23.922  0.00  0.00    -0.375 OA
ATOM     11  H   UNL     1      35.429 -16.703 -23.271  0.00  0.00    +0.211 HD
ENDBRANCH   9  10
ENDBRANCH   8   9
ENDBRANCH   6   8
BRANCH   6  12
ATOM     12  C   UNL     1      33.750 -19.353 -20.884  0.00  0.00    +0.032 C 
BRANCH  12  13
ATOM     13  C   UNL     1      34.383 -20.746 -21.008  0.00  0.00    +0.029 C 
BRANCH  13  14
ATOM     14  C   UNL     1      34.640 -21.416 -19.682  0.00  0.00    -0.022 C 
ATOM     15  C   UNL     1      33.615 -22.114 -19.043  0.00  0.00    -0.004 C 
ATOM     16  C   UNL     1      35.903 -21.339 -19.095  0.00  0.00    -0.004 C 
ATOM     17  C   UNL     1      33.853 -22.734 -17.816  0.00  0.00    -0.000 C 
ATOM     18  C   UNL     1      36.140 -21.959 -17.868  0.00  0.00    -0.000 C 
ATOM     19  C   UNL     1      35.116 -22.657 -17.228  0.00  0.00    -0.000 C 
ENDBRANCH  13  14
ENDBRANCH  12  13
ENDBRANCH   6  12
ENDBRANCH   3   6
ENDBRANCH   1   4
BRANCH   1  21
ATOM     20  O   UNL     1      31.527 -12.692 -22.448  0.00  0.00    -0.226 OA
ATOM     21  N   UNL     1      32.966 -13.771 -20.982  0.00  0.00    -0.264 N 
ATOM     22  C   UNL     1      32.004 -12.843 -21.328  0.00  0.00    +0.402 C 
ATOM     23  H   UNL     1      33.271 -13.796 -20.047  0.00  0.00    +0.153 HD
BRANCH  22  24
ATOM     24  O   UNL     1      31.655 -12.106 -20.231  0.00  0.00    -0.430 OA
BRANCH  24  25
ATOM     25  C   UNL     1      30.749 -11.023 -20.468  0.00  0.00    +0.238 C 
BRANCH  25  27
ATOM     26  N   UNL     1      32.643  -7.841 -19.702  0.00  0.00    -0.243 NA
ATOM     27  C   UNL     1      31.537  -9.761 -20.669  0.00  0.00    +0.040 C 
ATOM     28  C   UNL     1      31.892  -9.334 -21.943  0.00  0.00    +0.002 C 
ATOM     29  C   UNL     1      31.933  -8.986 -19.590  0.00  0.00    +0.098 C 
ATOM     30  C   UNL     1      32.622  -8.160 -22.098  0.00  0.00    +0.020 C 
ATOM     31  C   UNL     1      32.969  -7.457 -20.955  0.00  0.00    +0.099 C 
ENDBRANCH  25  27
ENDBRANCH  24  25
ENDBRANCH  22  24
ENDBRANCH   1  21
BRANCH   1  32
ATOM     32  C   UNL     1      34.492 -14.023 -22.907  0.00  0.00    +0.055 C 
BRANCH  32  33
ATOM     33  C   UNL     1      33.918 -13.953 -24.300  0.00  0.00    -0.020 C 
ATOM     34  C   UNL     1      33.842 -12.729 -24.963  0.00  0.00    -0.004 C 
ATOM     35  C   UNL     1      33.463 -15.115 -24.927  0.00  0.00    -0.004 C 
ATOM     36  C   UNL     1      33.312 -12.663 -26.251  0.00  0.00    -0.000 C 
ATOM     37  C   UNL     1      32.932 -15.050 -26.216  0.00  0.00    -0.000 C 
ATOM     38  C   UNL     1      32.857 -13.825 -26.878  0.00  0.00    -0.000 C 
ENDBRANCH  32  33
ENDBRANCH   1  32
TORSDOF 14
ENDMDL
MODEL 4
REMARK VINA RESULT:     -10.0      2.268      6.660
REMARK  Name = 5289091
REMARK  14 active torsions:
REMARK  status: ('A' for Active; 'I' for Inactive)
REMARK    1  A    between atoms: C_1  and  C_4
REMARK    2  A    between atoms: C_1  and  N_21
REMARK    3  A    between atoms: C_1  and  C_32
REMARK    4  A    between atoms: N_3  and  C_6
REMARK    5  A    between atoms: C_6  and  C_8
REMARK    6  A    between atoms: C_6  and  C_12
REMARK    7  A    between atoms: C_8  and  C_9
REMARK    8  A    between atoms: C_9  and  O_10
REMARK    9  A    between atoms: C_12  and  C_13
REMARK   10  A    between atoms: C_13  and  C_14
REMARK   11  A    between atoms: C_22  and  O_24
REMARK   12  A    between atoms: O_24  and  C_25
REMARK   13  A    between atoms: C_25  and  C_27
REMARK   14  A    between atoms: C_32  and  C_33
REMARK                            x       y       z     vdW  Elec       q    Type
REMARK                         _______ _______ _______ _____ _____    ______ ____
ROOT
ATOM      1  C   UNL     1      33.886 -24.218 -13.745  0.00  0.00    +0.155 C 
ENDROOT
BRANCH   1   4
ATOM      2  O   UNL     1      35.086 -25.385 -15.498  0.00  0.00    -0.273 OA
ATOM      3  N   UNL     1      34.852 -23.079 -15.651  0.00  0.00    -0.298 N 
ATOM      4  C   UNL     1      34.685 -24.318 -15.041  0.00  0.00    +0.241 C 
ATOM      5  H   UNL     1      34.490 -22.283 -15.198  0.00  0.00    +0.150 HD
BRANCH   3   6
ATOM      6  C   UNL     1      35.527 -22.898 -16.910  0.00  0.00    +0.132 C 
BRANCH   6   8
ATOM      7  O   UNL     1      36.926 -20.936 -17.061  0.00  0.00    -0.292 OA
ATOM      8  C   UNL     1      36.775 -22.076 -16.622  0.00  0.00    +0.198 C 
BRANCH   8   9
ATOM      9  C   UNL     1      37.848 -22.762 -15.798  0.00  0.00    +0.204 C 
BRANCH   9  10
ATOM     10  O   UNL     1      37.701 -24.166 -15.855  0.00  0.00    -0.375 OA
ATOM     11  H   UNL     1      36.862 -24.420 -15.440  0.00  0.00    +0.211 HD
ENDBRANCH   9  10
ENDBRANCH   8   9
ENDBRANCH   6   8
BRANCH   6  12
ATOM     12  C   UNL     1      34.657 -22.186 -17.949  0.00  0.00    +0.032 C 
BRANCH  12  13
ATOM     13  C   UNL     1      35.233 -22.206 -19.372  0.00  0.00    +0.029 C 
BRANCH  13  14
ATOM     14  C   UNL     1      35.137 -20.882 -20.085  0.00  0.00    -0.022 C 
ATOM     15  C   UNL     1      36.298 -20.179 -20.411  0.00  0.00    -0.004 C 
ATOM     16  C   UNL     1      33.888 -20.358 -20.420  0.00  0.00    -0.004 C 
ATOM     17  C   UNL     1      36.209 -18.953 -21.071  0.00  0.00    -0.000 C 
ATOM     18  C   UNL     1      33.799 -19.132 -21.080  0.00  0.00    -0.000 C 
ATOM     19  C   UNL     1      34.959 -18.429 -21.405  0.00  0.00    -0.000 C 
ENDBRANCH  13  14
ENDBRANCH  12  13
ENDBRANCH   6  12
ENDBRANCH   3   6
ENDBRANCH   1   4
BRANCH   1  21
ATOM     20  O   UNL     1      31.361 -23.286 -12.655  0.00  0.00    -0.226 OA
ATOM     21  N   UNL     1      32.565 -24.725 -14.018  0.00  0.00    -0.264 N 
ATOM     22  C   UNL     1      31.414 -24.217 -13.451  0.00  0.00    +0.402 C 
ATOM     23  H   UNL     1      32.478 -25.478 -14.648  0.00  0.00    +0.153 HD
BRANCH  22  24
ATOM     24  O   UNL     1      30.327 -24.908 -13.909  0.00  0.00    -0.430 OA
BRANCH  24  25
ATOM     25  C   UNL     1      30.243 -25.070 -15.330  0.00  0.00    +0.238 C 
BRANCH  25  27
ATOM     26  N   UNL     1      27.547 -23.603 -17.538  0.00  0.00    -0.243 NA
ATOM     27  C   UNL     1      29.223 -24.111 -15.872  0.00  0.00    +0.040 C 
ATOM     28  C   UNL     1      28.997 -22.885 -15.259  0.00  0.00    +0.002 C 
ATOM     29  C   UNL     1      28.479 -24.421 -16.999  0.00  0.00    +0.098 C 
ATOM     30  C   UNL     1      28.046 -22.016 -15.784  0.00  0.00    +0.020 C 
ATOM     31  C   UNL     1      27.355 -22.419 -16.915  0.00  0.00    +0.099 C 
ENDBRANCH  25  27
ENDBRANCH  24  25
ENDBRANCH  22  24
ENDBRANCH   1  21
BRANCH   1  32
ATOM     32  C   UNL     1      34.586 -24.998 -12.626  0.00  0.00    +0.055 C 
BRANCH  32  33
ATOM     33  C   UNL     1      36.020 -24.574 -12.429  0.00  0.00    -0.020 C 
ATOM     34  C   UNL     1      37.052 -25.494 -12.619  0.00  0.00    -0.004 C 
ATOM     35  C   UNL     1      36.316 -23.263 -12.056  0.00  0.00    -0.004 C 
ATOM     36  C   UNL     1      38.378 -25.104 -12.437  0.00  0.00    -0.000 C 
ATOM     37  C   UNL     1      37.643 -22.871 -11.873  0.00  0.00    -0.000 C 
ATOM     38  C   UNL     1      38.674 -23.792 -12.064  0.00  0.00    -0.000 C 
ENDBRANCH  32  33
ENDBRANCH   1  32
TORSDOF 14
ENDMDL
MODEL 5
REMARK VINA RESULT:      -9.9      1.481      2.334
REMARK  Name = 5289091
REMARK  14 active torsions:
REMARK  status: ('A' for Active; 'I' for Inactive)
REMARK    1  A    between atoms: C_1  and  C_4
REMARK    2  A    between atoms: C_1  and  N_21
REMARK    3  A    between atoms: C_1  and  C_32
REMARK    4  A    between atoms: N_3  and  C_6
REMARK    5  A    between atoms: C_6  and  C_8
REMARK    6  A    between atoms: C_6  and  C_12
REMARK    7  A    between atoms: C_8  and  C_9
REMARK    8  A    between atoms: C_9  and  O_10
REMARK    9  A    between atoms: C_12  and  C_13
REMARK   10  A    between atoms: C_13  and  C_14
REMARK   11  A    between atoms: C_22  and  O_24
REMARK   12  A    between atoms: O_24  and  C_25
REMARK   13  A    between atoms: C_25  and  C_27
REMARK   14  A    between atoms: C_32  and  C_33
REMARK                            x       y       z     vdW  Elec       q    Type
REMARK                         _______ _______ _______ _____ _____    ______ ____
ROOT
ATOM      1  C   UNL     1      33.183 -23.326 -17.265  0.00  0.00    +0.155 C 
ENDROOT
BRANCH   1   4
ATOM      2  O   UNL     1      33.786 -24.002 -19.512  0.00  0.00    -0.273 OA
ATOM      3  N   UNL     1      34.264 -21.833 -18.834  0.00  0.00    -0.298 N 
ATOM      4  C   UNL     1      33.781 -23.125 -18.652  0.00  0.00    +0.241 C 
ATOM      5  H   UNL     1      34.211 -21.204 -18.077  0.00  0.00    +0.150 HD
BRANCH   3   6
ATOM      6  C   UNL     1      34.835 -21.364 -20.069  0.00  0.00    +0.132 C 
BRANCH   6   8
ATOM      7  O   UNL     1      37.149 -21.276 -20.757  0.00  0.00    -0.292 OA
ATOM      8  C   UNL     1      36.333 -21.231 -19.835  0.00  0.00    +0.198 C 
BRANCH   8   9
ATOM      9  C   UNL     1      36.771 -21.086 -18.390  0.00  0.00    +0.204 C 
BRANCH   9  10
ATOM     10  O   UNL     1      37.037 -22.350 -17.819  0.00  0.00    -0.375 OA
ATOM     11  H   UNL     1      37.991 -22.524 -17.849  0.00  0.00    +0.211 HD
ENDBRANCH   9  10
ENDBRANCH   8   9
ENDBRANCH   6   8
BRANCH   6  12
ATOM     12  C   UNL     1      34.253 -20.021 -20.518  0.00  0.00    +0.032 C 
BRANCH  12  13
ATOM     13  C   UNL     1      35.303 -19.005 -20.986  0.00  0.00    +0.029 C 
BRANCH  13  14
ATOM     14  C   UNL     1      35.050 -18.462 -22.369  0.00  0.00    -0.022 C 
ATOM     15  C   UNL     1      34.792 -19.336 -23.426  0.00  0.00    -0.004 C 
ATOM     16  C   UNL     1      35.074 -17.085 -22.594  0.00  0.00    -0.004 C 
ATOM     17  C   UNL     1      34.558 -18.834 -24.706  0.00  0.00    -0.000 C 
ATOM     18  C   UNL     1      34.840 -16.583 -23.874  0.00  0.00    -0.000 C 
ATOM     19  C   UNL     1      34.582 -17.457 -24.930  0.00  0.00    -0.000 C 
ENDBRANCH  13  14
ENDBRANCH  12  13
ENDBRANCH   6  12
ENDBRANCH   3   6
ENDBRANCH   1   4
BRANCH   1  21
ATOM     20  O   UNL     1      35.361 -24.758 -15.983  0.00  0.00    -0.226 OA
ATOM     21  N   UNL     1      34.135 -22.816 -16.310  0.00  0.00    -0.264 N 
ATOM     22  C   UNL     1      35.144 -23.574 -15.750  0.00  0.00    +0.402 C 
ATOM     23  H   UNL     1      34.063 -21.871 -16.044  0.00  0.00    +0.153 HD
BRANCH  22  24
ATOM     24  O   UNL     1      35.876 -22.806 -14.888  0.00  0.00    -0.430 OA
BRANCH  24  25
ATOM     25  C   UNL     1      36.970 -23.466 -14.240  0.00  0.00    +0.238 C 
BRANCH  25  27
ATOM     26  N   UNL     1      36.923 -23.019 -10.485  0.00  0.00    -0.243 NA
ATOM     27  C   UNL     1      36.627 -23.675 -12.793  0.00  0.00    +0.040 C 
ATOM     28  C   UNL     1      35.737 -24.669 -12.406  0.00  0.00    +0.002 C 
ATOM     29  C   UNL     1      37.188 -22.883 -11.804  0.00  0.00    +0.098 C 
ATOM     30  C   UNL     1      35.438 -24.840 -11.058  0.00  0.00    +0.020 C 
ATOM     31  C   UNL     1      36.053 -23.996 -10.146  0.00  0.00    +0.099 C 
ENDBRANCH  25  27
ENDBRANCH  24  25
ENDBRANCH  22  24
ENDBRANCH   1  21
BRANCH   1  32
ATOM     32  C   UNL     1      31.826 -22.621 -17.162  0.00  0.00    +0.055 C 
BRANCH  32  33
ATOM     33  C   UNL     1      30.831 -23.388 -16.326  0.00  0.00    -0.020 C 
ATOM     34  C   UNL     1      29.470 -23.100 -16.422  0.00  0.00    -0.004 C 
ATOM     35  C   UNL     1      31.273 -24.387 -15.457  0.00  0.00    -0.004 C 
ATOM     36  C   UNL     1      28.550 -23.809 -15.650  0.00  0.00    -0.000 C 
ATOM     37  C   UNL     1      30.353 -25.096 -14.684  0.00  0.00    -0.000 C 
ATOM     38  C   UNL     1      28.992 -24.808 -14.781  0.00  0.00    -0.000 C 
ENDBRANCH  32  33
ENDBRANCH   1  32
TORSDOF 14
ENDMDL
MODEL 6
REMARK VINA RESULT:      -9.8      2.047      7.019
REMARK  Name = 5289091
REMARK  14 active torsions:
REMARK  status: ('A' for Active; 'I' for Inactive)
REMARK    1  A    between atoms: C_1  and  C_4
REMARK    2  A    between atoms: C_1  and  N_21
REMARK    3  A    between atoms: C_1  and  C_32
REMARK    4  A    between atoms: N_3  and  C_6
REMARK    5  A    between atoms: C_6  and  C_8
REMARK    6  A    between atoms: C_6  and  C_12
REMARK    7  A    between atoms: C_8  and  C_9
REMARK    8  A    between atoms: C_9  and  O_10
REMARK    9  A    between atoms: C_12  and  C_13
REMARK   10  A    between atoms: C_13  and  C_14
REMARK   11  A    between atoms: C_22  and  O_24
REMARK   12  A    between atoms: O_24  and  C_25
REMARK   13  A    between atoms: C_25  and  C_27
REMARK   14  A    between atoms: C_32  and  C_33
REMARK                            x       y       z     vdW  Elec       q    Type
REMARK                         _______ _______ _______ _____ _____    ______ ____
ROOT
ATOM      1  C   UNL     1      33.847 -22.635 -17.387  0.00  0.00    +0.155 C 
ENDROOT
BRANCH   1   4
ATOM      2  O   UNL     1      31.426 -22.518 -17.394  0.00  0.00    -0.273 OA
ATOM      3  N   UNL     1      32.494 -23.413 -15.536  0.00  0.00    -0.298 N 
ATOM      4  C   UNL     1      32.454 -22.821 -16.794  0.00  0.00    +0.241 C 
ATOM      5  H   UNL     1      33.374 -23.617 -15.144  0.00  0.00    +0.150 HD
BRANCH   3   6
ATOM      6  C   UNL     1      31.317 -23.744 -14.776  0.00  0.00    +0.132 C 
BRANCH   6   8
ATOM      7  O   UNL     1      30.840 -23.406 -12.433  0.00  0.00    -0.292 OA
ATOM      8  C   UNL     1      31.687 -23.588 -13.308  0.00  0.00    +0.198 C 
BRANCH   8   9
ATOM      9  C   UNL     1      33.169 -23.624 -12.987  0.00  0.00    +0.204 C 
BRANCH   9  10
ATOM     10  O   UNL     1      33.652 -24.952 -13.006  0.00  0.00    -0.375 OA
ATOM     11  H   UNL     1      33.147 -25.471 -13.651  0.00  0.00    +0.211 HD
ENDBRANCH   9  10
ENDBRANCH   8   9
ENDBRANCH   6   8
BRANCH   6  12
ATOM     12  C   UNL     1      30.822 -25.168 -15.044  0.00  0.00    +0.032 C 
BRANCH  12  13
ATOM     13  C   UNL     1      29.295 -25.318 -15.019  0.00  0.00    +0.029 C 
BRANCH  13  14
ATOM     14  C   UNL     1      28.562 -24.191 -15.700  0.00  0.00    -0.022 C 
ATOM     15  C   UNL     1      28.116 -23.098 -14.955  0.00  0.00    -0.004 C 
ATOM     16  C   UNL     1      28.329 -24.240 -17.075  0.00  0.00    -0.004 C 
ATOM     17  C   UNL     1      27.437 -22.055 -15.585  0.00  0.00    -0.000 C 
ATOM     18  C   UNL     1      27.650 -23.196 -17.704  0.00  0.00    -0.000 C 
ATOM     19  C   UNL     1      27.204 -22.104 -16.960  0.00  0.00    -0.000 C 
ENDBRANCH  13  14
ENDBRANCH  12  13
ENDBRANCH   6  12
ENDBRANCH   3   6
ENDBRANCH   1   4
BRANCH   1  21
ATOM     20  O   UNL     1      36.459 -22.151 -16.215  0.00  0.00    -0.226 OA
ATOM     21  N   UNL     1      34.716 -23.587 -16.743  0.00  0.00    -0.264 N 
ATOM     22  C   UNL     1      35.948 -23.266 -16.211  0.00  0.00    +0.402 C 
ATOM     23  H   UNL     1      34.412 -24.521 -16.678  0.00  0.00    +0.153 HD
BRANCH  22  24
ATOM     24  O   UNL     1      36.526 -24.382 -15.672  0.00  0.00    -0.430 OA
BRANCH  24  25
ATOM     25  C   UNL     1      37.640 -24.151 -14.802  0.00  0.00    +0.238 C 
BRANCH  25  27
ATOM     26  N   UNL     1      36.360 -25.513 -11.516  0.00  0.00    -0.243 NA
ATOM     27  C   UNL     1      37.167 -24.200 -13.378  0.00  0.00    +0.040 C 
ATOM     28  C   UNL     1      37.090 -23.046 -12.609  0.00  0.00    +0.002 C 
ATOM     29  C   UNL     1      36.794 -25.399 -12.791  0.00  0.00    +0.098 C 
ATOM     30  C   UNL     1      36.647 -23.123 -11.293  0.00  0.00    +0.020 C 
ATOM     31  C   UNL     1      36.297 -24.369 -10.799  0.00  0.00    +0.099 C 
ENDBRANCH  25  27
ENDBRANCH  24  25
ENDBRANCH  22  24
ENDBRANCH   1  21
BRANCH   1  32
ATOM     32  C   UNL     1      33.808 -22.822 -18.908  0.00  0.00    +0.055 C 
BRANCH  32  33
ATOM     33  C   UNL     1      34.147 -21.559 -19.661  0.00  0.00    -0.020 C 
ATOM     34  C   UNL     1      35.481 -21.227 -19.900  0.00  0.00    -0.004 C 
ATOM     35  C   UNL     1      33.128 -20.723 -20.117  0.00  0.00    -0.004 C 
ATOM     36  C   UNL     1      35.795 -20.060 -20.596  0.00  0.00    -0.000 C 
ATOM     37  C   UNL     1      33.442 -19.555 -20.813  0.00  0.00    -0.000 C 
ATOM     38  C   UNL     1      34.775 -19.224 -21.053  0.00  0.00    -0.000 C 
ENDBRANCH  32  33
ENDBRANCH   1  32
TORSDOF 14
ENDMDL
MODEL 7
REMARK VINA RESULT:      -9.8      5.659     12.243
REMARK  Name = 5289091
REMARK  14 active torsions:
REMARK  status: ('A' for Active; 'I' for Inactive)
REMARK    1  A    between atoms: C_1  and  C_4
REMARK    2  A    between atoms: C_1  and  N_21
REMARK    3  A    between atoms: C_1  and  C_32
REMARK    4  A    between atoms: N_3  and  C_6
REMARK    5  A    between atoms: C_6  and  C_8
REMARK    6  A    between atoms: C_6  and  C_12
REMARK    7  A    between atoms: C_8  and  C_9
REMARK    8  A    between atoms: C_9  and  O_10
REMARK    9  A    between atoms: C_12  and  C_13
REMARK   10  A    between atoms: C_13  and  C_14
REMARK   11  A    between atoms: C_22  and  O_24
REMARK   12  A    between atoms: O_24  and  C_25
REMARK   13  A    between atoms: C_25  and  C_27
REMARK   14  A    between atoms: C_32  and  C_33
REMARK                            x       y       z     vdW  Elec       q    Type
REMARK                         _______ _______ _______ _____ _____    ______ ____
ROOT
ATOM      1  C   UNL     1      34.054 -14.094 -21.560  0.00  0.00    +0.155 C 
ENDROOT
BRANCH   1   4
ATOM      2  O   UNL     1      35.051 -16.009 -20.458  0.00  0.00    -0.273 OA
ATOM      3  N   UNL     1      34.642 -16.125 -22.741  0.00  0.00    -0.298 N 
ATOM      4  C   UNL     1      34.652 -15.496 -21.500  0.00  0.00    +0.241 C 
ATOM      5  H   UNL     1      34.299 -15.622 -23.516  0.00  0.00    +0.150 HD
BRANCH   3   6
ATOM      6  C   UNL     1      35.105 -17.471 -22.954  0.00  0.00    +0.132 C 
BRANCH   6   8
ATOM      7  O   UNL     1      34.351 -18.993 -24.670  0.00  0.00    -0.292 OA
ATOM      8  C   UNL     1      34.704 -17.852 -24.372  0.00  0.00    +0.198 C 
BRANCH   8   9
ATOM      9  C   UNL     1      34.806 -16.752 -25.411  0.00  0.00    +0.204 C 
BRANCH   9  10
ATOM     10  O   UNL     1      33.528 -16.409 -25.904  0.00  0.00    -0.375 OA
ATOM     11  H   UNL     1      33.600 -15.627 -26.473  0.00  0.00    +0.211 HD
ENDBRANCH   9  10
ENDBRANCH   8   9
ENDBRANCH   6   8
BRANCH   6  12
ATOM     12  C   UNL     1      34.509 -18.465 -21.954  0.00  0.00    +0.032 C 
BRANCH  12  13
ATOM     13  C   UNL     1      35.544 -19.375 -21.278  0.00  0.00    +0.029 C 
BRANCH  13  14
ATOM     14  C   UNL     1      34.940 -20.401 -20.354  0.00  0.00    -0.022 C 
ATOM     15  C   UNL     1      33.553 -20.523 -20.257  0.00  0.00    -0.004 C 
ATOM     16  C   UNL     1      35.768 -21.230 -19.595  0.00  0.00    -0.004 C 
ATOM     17  C   UNL     1      32.995 -21.472 -19.401  0.00  0.00    -0.000 C 
ATOM     18  C   UNL     1      35.208 -22.179 -18.740  0.00  0.00    -0.000 C 
ATOM     19  C   UNL     1      33.822 -22.301 -18.642  0.00  0.00    -0.000 C 
ENDBRANCH  13  14
ENDBRANCH  12  13
ENDBRANCH   6  12
ENDBRANCH   3   6
ENDBRANCH   1   4
BRANCH   1  21
ATOM     20  O   UNL     1      32.627 -14.156 -24.089  0.00  0.00    -0.226 OA
ATOM     21  N   UNL     1      34.456 -13.511 -22.815  0.00  0.00    -0.264 N 
ATOM     22  C   UNL     1      33.709 -13.591 -23.974  0.00  0.00    +0.402 C 
ATOM     23  H   UNL     1      35.312 -13.027 -22.848  0.00  0.00    +0.153 HD
BRANCH  22  24
ATOM     24  O   UNL     1      34.356 -12.941 -24.988  0.00  0.00    -0.430 OA
BRANCH  24  25
ATOM     25  C   UNL     1      33.636 -11.864 -25.599  0.00  0.00    +0.238 C 
BRANCH  25  27
ATOM     26  N   UNL     1      35.277  -8.877 -23.962  0.00  0.00    -0.243 NA
ATOM     27  C   UNL     1      33.816 -10.624 -24.773  0.00  0.00    +0.040 C 
ATOM     28  C   UNL     1      32.752 -10.072 -24.069  0.00  0.00    +0.002 C 
ATOM     29  C   UNL     1      35.047  -9.994 -24.687  0.00  0.00    +0.098 C 
ATOM     30  C   UNL     1      32.949  -8.923 -23.311  0.00  0.00    +0.020 C 
ATOM     31  C   UNL     1      34.219  -8.370 -23.291  0.00  0.00    +0.099 C 
ENDBRANCH  25  27
ENDBRANCH  24  25
ENDBRANCH  22  24
ENDBRANCH   1  21
BRANCH   1  32
ATOM     32  C   UNL     1      32.530 -14.159 -21.412  0.00  0.00    +0.055 C 
BRANCH  32  33
ATOM     33  C   UNL     1      31.937 -12.866 -20.907  0.00  0.00    -0.020 C 
ATOM     34  C   UNL     1      32.164 -12.461 -19.592  0.00  0.00    -0.004 C 
ATOM     35  C   UNL     1      31.162 -12.076 -21.757  0.00  0.00    -0.004 C 
ATOM     36  C   UNL     1      31.616 -11.267 -19.125  0.00  0.00    -0.000 C 
ATOM     37  C   UNL     1      30.614 -10.880 -21.290  0.00  0.00    -0.000 C 
ATOM     38  C   UNL     1      30.841 -10.476 -19.974  0.00  0.00    -0.000 C 
ENDBRANCH  32  33
ENDBRANCH   1  32
TORSDOF 14
ENDMDL
MODEL 8
REMARK VINA RESULT:      -9.6      2.215      6.174
REMARK  Name = 5289091
REMARK  14 active torsions:
REMARK  status: ('A' for Active; 'I' for Inactive)
REMARK    1  A    between atoms: C_1  and  C_4
REMARK    2  A    between atoms: C_1  and  N_21
REMARK    3  A    between atoms: C_1  and  C_32
REMARK    4  A    between atoms: N_3  and  C_6
REMARK    5  A    between atoms: C_6  and  C_8
REMARK    6  A    between atoms: C_6  and  C_12
REMARK    7  A    between atoms: C_8  and  C_9
REMARK    8  A    between atoms: C_9  and  O_10
REMARK    9  A    between atoms: C_12  and  C_13
REMARK   10  A    between atoms: C_13  and  C_14
REMARK   11  A    between atoms: C_22  and  O_24
REMARK   12  A    between atoms: O_24  and  C_25
REMARK   13  A    between atoms: C_25  and  C_27
REMARK   14  A    between atoms: C_32  and  C_33
REMARK                            x       y       z     vdW  Elec       q    Type
REMARK                         _______ _______ _______ _____ _____    ______ ____
ROOT
ATOM      1  C   UNL     1      33.308 -23.296 -15.892  0.00  0.00    +0.155 C 
ENDROOT
BRANCH   1   4
ATOM      2  O   UNL     1      32.219 -22.773 -17.993  0.00  0.00    -0.273 OA
ATOM      3  N   UNL     1      34.511 -22.449 -17.814  0.00  0.00    -0.298 N 
ATOM      4  C   UNL     1      33.260 -22.834 -17.344  0.00  0.00    +0.241 C 
ATOM      5  H   UNL     1      35.284 -22.538 -17.210  0.00  0.00    +0.150 HD
BRANCH   3   6
ATOM      6  C   UNL     1      34.738 -21.927 -19.137  0.00  0.00    +0.132 C 
BRANCH   6   8
ATOM      7  O   UNL     1      36.742 -21.195 -20.267  0.00  0.00    -0.292 OA
ATOM      8  C   UNL     1      36.217 -21.580 -19.222  0.00  0.00    +0.198 C 
BRANCH   8   9
ATOM      9  C   UNL     1      37.023 -21.780 -17.953  0.00  0.00    +0.204 C 
BRANCH   9  10
ATOM     10  O   UNL     1      37.178 -20.558 -17.261  0.00  0.00    -0.375 OA
ATOM     11  H   UNL     1      37.877 -20.650 -16.595  0.00  0.00    +0.211 HD
ENDBRANCH   9  10
ENDBRANCH   8   9
ENDBRANCH   6   8
BRANCH   6  12
ATOM     12  C   UNL     1      33.889 -20.689 -19.436  0.00  0.00    +0.032 C 
BRANCH  12  13
ATOM     13  C   UNL     1      33.520 -20.522 -20.917  0.00  0.00    +0.029 C 
BRANCH  13  14
ATOM     14  C   UNL     1      34.137 -19.310 -21.565  0.00  0.00    -0.022 C 
ATOM     15  C   UNL     1      34.860 -19.444 -22.751  0.00  0.00    -0.004 C 
ATOM     16  C   UNL     1      33.985 -18.052 -20.979  0.00  0.00    -0.004 C 
ATOM     17  C   UNL     1      35.432 -18.322 -23.350  0.00  0.00    -0.000 C 
ATOM     18  C   UNL     1      34.557 -16.930 -21.580  0.00  0.00    -0.000 C 
ATOM     19  C   UNL     1      35.280 -17.064 -22.765  0.00  0.00    -0.000 C 
ENDBRANCH  13  14
ENDBRANCH  12  13
ENDBRANCH   6  12
ENDBRANCH   3   6
ENDBRANCH   1   4
BRANCH   1  21
ATOM     20  O   UNL     1      31.588 -22.829 -13.598  0.00  0.00    -0.226 OA
ATOM     21  N   UNL     1      32.038 -23.914 -15.599  0.00  0.00    -0.264 N 
ATOM     22  C   UNL     1      31.285 -23.628 -14.478  0.00  0.00    +0.402 C 
ATOM     23  H   UNL     1      31.688 -24.577 -16.236  0.00  0.00    +0.153 HD
BRANCH  22  24
ATOM     24  O   UNL     1      30.139 -24.373 -14.487  0.00  0.00    -0.430 OA
BRANCH  24  25
ATOM     25  C   UNL     1      29.650 -24.750 -15.780  0.00  0.00    +0.238 C 
BRANCH  25  27
ATOM     26  N   UNL     1      27.257 -22.821 -17.982  0.00  0.00    -0.243 NA
ATOM     27  C   UNL     1      28.593 -23.773 -16.206  0.00  0.00    +0.040 C 
ATOM     28  C   UNL     1      27.980 -22.934 -15.284  0.00  0.00    +0.002 C 
ATOM     29  C   UNL     1      28.201 -23.678 -17.532  0.00  0.00    +0.098 C 
ATOM     30  C   UNL     1      27.005 -22.037 -15.709  0.00  0.00    +0.020 C 
ATOM     31  C   UNL     1      26.683 -22.021 -17.057  0.00  0.00    +0.099 C 
ENDBRANCH  25  27
ENDBRANCH  24  25
ENDBRANCH  22  24
ENDBRANCH   1  21
BRANCH   1  32
ATOM     32  C   UNL     1      34.482 -24.256 -15.676  0.00  0.00    +0.055 C 
BRANCH  32  33
ATOM     33  C   UNL     1      35.240 -23.975 -14.402  0.00  0.00    -0.020 C 
ATOM     34  C   UNL     1      36.512 -23.406 -14.457  0.00  0.00    -0.004 C 
ATOM     35  C   UNL     1      34.667 -24.283 -13.167  0.00  0.00    -0.004 C 
ATOM     36  C   UNL     1      37.212 -23.146 -13.280  0.00  0.00    -0.000 C 
ATOM     37  C   UNL     1      35.367 -24.023 -11.989  0.00  0.00    -0.000 C 
ATOM     38  C   UNL     1      36.640 -23.454 -12.045  0.00  0.00    -0.000 C 
ENDBRANCH  32  33
ENDBRANCH   1  32
TORSDOF 14
ENDMDL
MODEL 9
REMARK VINA RESULT:      -9.5      5.112     10.009
REMARK  Name = 5289091
REMARK  14 active torsions:
REMARK  status: ('A' for Active; 'I' for Inactive)
REMARK    1  A    between atoms: C_1  and  C_4
REMARK    2  A    between atoms: C_1  and  N_21
REMARK    3  A    between atoms: C_1  and  C_32
REMARK    4  A    between atoms: N_3  and  C_6
REMARK    5  A    between atoms: C_6  and  C_8
REMARK    6  A    between atoms: C_6  and  C_12
REMARK    7  A    between atoms: C_8  and  C_9
REMARK    8  A    between atoms: C_9  and  O_10
REMARK    9  A    between atoms: C_12  and  C_13
REMARK   10  A    between atoms: C_13  and  C_14
REMARK   11  A    between atoms: C_22  and  O_24
REMARK   12  A    between atoms: O_24  and  C_25
REMARK   13  A    between atoms: C_25  and  C_27
REMARK   14  A    between atoms: C_32  and  C_33
REMARK                            x       y       z     vdW  Elec       q    Type
REMARK                         _______ _______ _______ _____ _____    ______ ____
ROOT
ATOM      1  C   UNL     1      34.496 -15.142 -22.601  0.00  0.00    +0.155 C 
ENDROOT
BRANCH   1   4
ATOM      2  O   UNL     1      32.332 -14.067 -22.783  0.00  0.00    -0.273 OA
ATOM      3  N   UNL     1      34.127 -13.164 -23.947  0.00  0.00    -0.298 N 
ATOM      4  C   UNL     1      33.514 -14.094 -23.115  0.00  0.00    +0.241 C 
ATOM      5  H   UNL     1      35.084 -13.277 -24.150  0.00  0.00    +0.150 HD
BRANCH   3   6
ATOM      6  C   UNL     1      33.437 -12.042 -24.529  0.00  0.00    +0.132 C 
BRANCH   6   8
ATOM      7  O   UNL     1      34.792 -11.128 -26.306  0.00  0.00    -0.292 OA
ATOM      8  C   UNL     1      33.921 -11.930 -25.968  0.00  0.00    +0.198 C 
BRANCH   8   9
ATOM      9  C   UNL     1      33.234 -12.832 -26.974  0.00  0.00    +0.204 C 
BRANCH   9  10
ATOM     10  O   UNL     1      33.450 -14.192 -26.655  0.00  0.00    -0.375 OA
ATOM     11  H   UNL     1      34.373 -14.318 -26.386  0.00  0.00    +0.211 HD
ENDBRANCH   9  10
ENDBRANCH   8   9
ENDBRANCH   6   8
BRANCH   6  12
ATOM     12  C   UNL     1      33.702 -10.733 -23.781  0.00  0.00    +0.032 C 
BRANCH  12  13
ATOM     13  C   UNL     1      32.435  -9.945 -23.423  0.00  0.00    +0.029 C 
BRANCH  13  14
ATOM     14  C   UNL     1      32.082  -9.995 -21.958  0.00  0.00    -0.022 C 
ATOM     15  C   UNL     1      32.350  -8.898 -21.138  0.00  0.00    -0.004 C 
ATOM     16  C   UNL     1      31.487 -11.137 -21.423  0.00  0.00    -0.004 C 
ATOM     17  C   UNL     1      32.024  -8.944 -19.783  0.00  0.00    -0.000 C 
ATOM     18  C   UNL     1      31.160 -11.183 -20.067  0.00  0.00    -0.000 C 
ATOM     19  C   UNL     1      31.429 -10.087 -19.247  0.00  0.00    -0.000 C 
ENDBRANCH  13  14
ENDBRANCH  12  13
ENDBRANCH   6  12
ENDBRANCH   3   6
ENDBRANCH   1   4
BRANCH   1  21
ATOM     20  O   UNL     1      35.198 -16.771 -20.301  0.00  0.00    -0.226 OA
ATOM     21  N   UNL     1      33.720 -16.193 -21.993  0.00  0.00    -0.264 N 
ATOM     22  C   UNL     1      34.135 -16.919 -20.895  0.00  0.00    +0.402 C 
ATOM     23  H   UNL     1      32.842 -16.405 -22.384  0.00  0.00    +0.153 HD
BRANCH  22  24
ATOM     24  O   UNL     1      33.181 -17.839 -20.559  0.00  0.00    -0.430 OA
BRANCH  24  25
ATOM     25  C   UNL     1      33.175 -19.044 -21.333  0.00  0.00    +0.238 C 
BRANCH  25  27
ATOM     26  N   UNL     1      33.131 -22.023 -19.005  0.00  0.00    -0.243 NA
ATOM     27  C   UNL     1      33.657 -20.177 -20.475  0.00  0.00    +0.040 C 
ATOM     28  C   UNL     1      35.014 -20.447 -20.341  0.00  0.00    +0.002 C 
ATOM     29  C   UNL     1      32.764 -20.987 -19.793  0.00  0.00    +0.098 C 
ATOM     30  C   UNL     1      35.431 -21.504 -19.538  0.00  0.00    +0.020 C 
ATOM     31  C   UNL     1      34.458 -22.254 -18.898  0.00  0.00    +0.099 C 
ENDBRANCH  25  27
ENDBRANCH  24  25
ENDBRANCH  22  24
ENDBRANCH   1  21
BRANCH   1  32
ATOM     32  C   UNL     1      35.374 -15.657 -23.747  0.00  0.00    +0.055 C 
BRANCH  32  33
ATOM     33  C   UNL     1      35.078 -17.092 -24.108  0.00  0.00    -0.020 C 
ATOM     34  C   UNL     1      34.107 -17.385 -25.065  0.00  0.00    -0.004 C 
ATOM     35  C   UNL     1      35.777 -18.127 -23.485  0.00  0.00    -0.004 C 
ATOM     36  C   UNL     1      33.834 -18.710 -25.400  0.00  0.00    -0.000 C 
ATOM     37  C   UNL     1      35.503 -19.454 -23.819  0.00  0.00    -0.000 C 
ATOM     38  C   UNL     1      34.532 -19.745 -24.777  0.00  0.00    -0.000 C 
ENDBRANCH  32  33
ENDBRANCH   1  32
TORSDOF 14
ENDMDL
