MODEL 1
REMARK VINA RESULT:      -8.4      0.000      0.000
REMARK  Name = 440271
REMARK  7 active torsions:
REMARK  status: ('A' for Active; 'I' for Inactive)
REMARK    1  A    between atoms: C_2  and  O_12
REMARK    2  A    between atoms: C_3  and  N_8
REMARK    3  A    between atoms: C_4  and  O_14
REMARK    4  A    between atoms: C_5  and  C_18
REMARK    5  A    between atoms: C_6  and  O_16
REMARK    6  A    between atoms: C_18  and  O_19
REMARK    7  A    between atoms: O_19  and  S_20
REMARK                            x       y       z     vdW  Elec       q    Type
REMARK                         _______ _______ _______ _____ _____    ______ ____
ROOT
ATOM      1  O   UNL     1      37.453 -24.024 -14.433  0.00  0.00    -0.327 OA
ATOM      2  C   UNL     1      35.232 -24.191 -12.626  0.00  0.00    +0.162 C 
ATOM      3  C   UNL     1      35.026 -24.030 -14.136  0.00  0.00    +0.158 C 
ATOM      4  C   UNL     1      36.590 -24.827 -12.317  0.00  0.00    +0.169 C 
ATOM      5  C   UNL     1      37.702 -24.048 -13.023  0.00  0.00    +0.179 C 
ATOM      6  C   UNL     1      36.244 -23.349 -14.779  0.00  0.00    +0.253 C 
ENDROOT
BRANCH   3   8
ATOM      7  O   UNL     1      32.294 -25.011 -14.220  0.00  0.00    -0.275 OA
ATOM      8  N   UNL     1      33.824 -23.265 -14.399  0.00  0.00    -0.299 N 
ATOM      9  C   UNL     1      32.560 -23.827 -14.418  0.00  0.00    +0.223 C 
ATOM     10  C   UNL     1      31.488 -22.807 -14.689  0.00  0.00    +0.095 C 
ATOM     11  H   UNL     1      33.910 -22.300 -14.573  0.00  0.00    +0.150 HD
ENDBRANCH   3   8
BRANCH   2  12
ATOM     12  O   UNL     1      34.189 -24.998 -12.087  0.00  0.00    -0.380 OA
ATOM     13  H   UNL     1      34.494 -25.416 -11.267  0.00  0.00    +0.211 HD
ENDBRANCH   2  12
BRANCH   4  14
ATOM     14  O   UNL     1      36.602 -26.179 -12.781  0.00  0.00    -0.379 OA
ATOM     15  H   UNL     1      36.899 -26.202 -13.704  0.00  0.00    +0.211 HD
ENDBRANCH   4  14
BRANCH   6  16
ATOM     16  O   UNL     1      36.074 -23.379 -16.196  0.00  0.00    -0.359 OA
ATOM     17  H   UNL     1      35.162 -23.634 -16.407  0.00  0.00    +0.213 HD
ENDBRANCH   6  16
BRANCH   5  18
ATOM     18  C   UNL     1      39.074 -24.676 -12.813  0.00  0.00    +0.209 C 
BRANCH  18  19
ATOM     19  O   UNL     1      39.749 -24.714 -14.057  0.00  0.00    -0.198 OA
BRANCH  19  20
ATOM     20  S   UNL     1      40.238 -26.148 -14.679  0.00  0.00    +0.239 S 
ATOM     21  O   UNL     1      38.889 -27.063 -14.634  0.00  0.00    -0.022 OA
ATOM     22  O   UNL     1      40.574 -25.931 -16.074  0.00  0.00    -0.116 OA
ATOM     23  O   UNL     1      41.210 -26.741 -13.780  0.00  0.00    -0.116 OA
ENDBRANCH  19  20
ENDBRANCH  18  19
ENDBRANCH   5  18
TORSDOF 7
ENDMDL
MODEL 2
REMARK VINA RESULT:      -8.3      0.978      2.388
REMARK  Name = 440271
REMARK  7 active torsions:
REMARK  status: ('A' for Active; 'I' for Inactive)
REMARK    1  A    between atoms: C_2  and  O_12
REMARK    2  A    between atoms: C_3  and  N_8
REMARK    3  A    between atoms: C_4  and  O_14
REMARK    4  A    between atoms: C_5  and  C_18
REMARK    5  A    between atoms: C_6  and  O_16
REMARK    6  A    between atoms: C_18  and  O_19
REMARK    7  A    between atoms: O_19  and  S_20
REMARK                            x       y       z     vdW  Elec       q    Type
REMARK                         _______ _______ _______ _____ _____    ______ ____
ROOT
ATOM      1  O   UNL     1      36.206 -24.720 -12.719  0.00  0.00    -0.327 OA
ATOM      2  C   UNL     1      35.641 -24.035 -15.446  0.00  0.00    +0.162 C 
ATOM      3  C   UNL     1      34.930 -23.337 -14.281  0.00  0.00    +0.158 C 
ATOM      4  C   UNL     1      36.990 -24.609 -15.008  0.00  0.00    +0.169 C 
ATOM      5  C   UNL     1      36.805 -25.487 -13.769  0.00  0.00    +0.179 C 
ATOM      6  C   UNL     1      34.899 -24.247 -13.043  0.00  0.00    +0.253 C 
ENDROOT
BRANCH   3   8
ATOM      7  O   UNL     1      32.528 -24.960 -14.099  0.00  0.00    -0.275 OA
ATOM      8  N   UNL     1      33.585 -22.964 -14.666  0.00  0.00    -0.299 N 
ATOM      9  C   UNL     1      32.500 -23.814 -14.540  0.00  0.00    +0.223 C 
ATOM     10  C   UNL     1      31.217 -23.167 -14.990  0.00  0.00    +0.095 C 
ATOM     11  H   UNL     1      33.435 -22.064 -15.035  0.00  0.00    +0.150 HD
ENDBRANCH   3   8
BRANCH   2  12
ATOM     12  O   UNL     1      35.834 -23.107 -16.509  0.00  0.00    -0.380 OA
ATOM     13  H   UNL     1      35.023 -23.044 -17.036  0.00  0.00    +0.211 HD
ENDBRANCH   2  12
BRANCH   4  14
ATOM     14  O   UNL     1      37.885 -23.540 -14.691  0.00  0.00    -0.379 OA
ATOM     15  H   UNL     1      38.800 -23.833 -14.825  0.00  0.00    +0.211 HD
ENDBRANCH   4  14
BRANCH   6  16
ATOM     16  O   UNL     1      34.385 -23.490 -11.948  0.00  0.00    -0.359 OA
ATOM     17  H   UNL     1      34.232 -22.575 -12.231  0.00  0.00    +0.213 HD
ENDBRANCH   6  16
BRANCH   5  18
ATOM     18  C   UNL     1      38.126 -26.031 -13.240  0.00  0.00    +0.209 C 
BRANCH  18  19
ATOM     19  O   UNL     1      38.882 -26.525 -14.331  0.00  0.00    -0.198 OA
BRANCH  19  20
ATOM     20  S   UNL     1      40.394 -25.957 -14.603  0.00  0.00    +0.239 S 
ATOM     21  O   UNL     1      41.349 -27.030 -13.832  0.00  0.00    -0.022 OA
ATOM     22  O   UNL     1      40.660 -26.076 -16.025  0.00  0.00    -0.116 OA
ATOM     23  O   UNL     1      40.537 -24.674 -13.941  0.00  0.00    -0.116 OA
ENDBRANCH  19  20
ENDBRANCH  18  19
ENDBRANCH   5  18
TORSDOF 7
ENDMDL
MODEL 3
REMARK VINA RESULT:      -8.1      1.558      2.056
REMARK  Name = 440271
REMARK  7 active torsions:
REMARK  status: ('A' for Active; 'I' for Inactive)
REMARK    1  A    between atoms: C_2  and  O_12
REMARK    2  A    between atoms: C_3  and  N_8
REMARK    3  A    between atoms: C_4  and  O_14
REMARK    4  A    between atoms: C_5  and  C_18
REMARK    5  A    between atoms: C_6  and  O_16
REMARK    6  A    between atoms: C_18  and  O_19
REMARK    7  A    between atoms: O_19  and  S_20
REMARK                            x       y       z     vdW  Elec       q    Type
REMARK                         _______ _______ _______ _____ _____    ______ ____
ROOT
ATOM      1  O   UNL     1      35.652 -23.653 -16.330  0.00  0.00    -0.327 OA
ATOM      2  C   UNL     1      34.221 -23.856 -13.853  0.00  0.00    +0.162 C 
ATOM      3  C   UNL     1      33.515 -24.029 -15.203  0.00  0.00    +0.158 C 
ATOM      4  C   UNL     1      35.715 -24.171 -13.964  0.00  0.00    +0.169 C 
ATOM      5  C   UNL     1      36.333 -23.360 -15.105  0.00  0.00    +0.179 C 
ATOM      6  C   UNL     1      34.274 -23.282 -16.309  0.00  0.00    +0.253 C 
ENDROOT
BRANCH   3   8
ATOM      7  O   UNL     1      31.164 -25.543 -14.420  0.00  0.00    -0.275 OA
ATOM      8  N   UNL     1      32.150 -23.553 -15.118  0.00  0.00    -0.299 N 
ATOM      9  C   UNL     1      31.092 -24.357 -14.733  0.00  0.00    +0.223 C 
ATOM     10  C   UNL     1      29.788 -23.607 -14.707  0.00  0.00    +0.095 C 
ATOM     11  H   UNL     1      31.965 -22.613 -15.346  0.00  0.00    +0.150 HD
ENDBRANCH   3   8
BRANCH   2  12
ATOM     12  O   UNL     1      33.619 -24.715 -12.888  0.00  0.00    -0.380 OA
ATOM     13  H   UNL     1      32.744 -24.371 -12.650  0.00  0.00    +0.211 HD
ENDBRANCH   2  12
BRANCH   4  14
ATOM     14  O   UNL     1      35.892 -25.564 -14.234  0.00  0.00    -0.379 OA
ATOM     15  H   UNL     1      36.637 -25.902 -13.713  0.00  0.00    +0.211 HD
ENDBRANCH   4  14
BRANCH   6  16
ATOM     16  O   UNL     1      33.676 -23.615 -17.561  0.00  0.00    -0.359 OA
ATOM     17  H   UNL     1      34.357 -23.947 -18.167  0.00  0.00    +0.213 HD
ENDBRANCH   6  16
BRANCH   5  18
ATOM     18  C   UNL     1      37.807 -23.684 -15.314  0.00  0.00    +0.209 C 
BRANCH  18  19
ATOM     19  O   UNL     1      38.388 -23.982 -14.058  0.00  0.00    -0.198 OA
BRANCH  19  20
ATOM     20  S   UNL     1      39.213 -25.382 -13.850  0.00  0.00    +0.239 S 
ATOM     21  O   UNL     1      38.804 -26.265 -15.158  0.00  0.00    -0.022 OA
ATOM     22  O   UNL     1      40.629 -25.077 -13.952  0.00  0.00    -0.116 OA
ATOM     23  O   UNL     1      38.698 -26.059 -12.674  0.00  0.00    -0.116 OA
ENDBRANCH  19  20
ENDBRANCH  18  19
ENDBRANCH   5  18
TORSDOF 7
ENDMDL
MODEL 4
REMARK VINA RESULT:      -7.9      3.389      5.066
REMARK  Name = 440271
REMARK  7 active torsions:
REMARK  status: ('A' for Active; 'I' for Inactive)
REMARK    1  A    between atoms: C_2  and  O_12
REMARK    2  A    between atoms: C_3  and  N_8
REMARK    3  A    between atoms: C_4  and  O_14
REMARK    4  A    between atoms: C_5  and  C_18
REMARK    5  A    between atoms: C_6  and  O_16
REMARK    6  A    between atoms: C_18  and  O_19
REMARK    7  A    between atoms: O_19  and  S_20
REMARK                            x       y       z     vdW  Elec       q    Type
REMARK                         _______ _______ _______ _____ _____    ______ ____
ROOT
ATOM      1  O   UNL     1      33.190 -23.544 -15.661  0.00  0.00    -0.327 OA
ATOM      2  C   UNL     1      30.687 -23.774 -14.281  0.00  0.00    +0.162 C 
ATOM      3  C   UNL     1      30.750 -23.592 -15.802  0.00  0.00    +0.158 C 
ATOM      4  C   UNL     1      31.979 -24.394 -13.743  0.00  0.00    +0.169 C 
ATOM      5  C   UNL     1      33.185 -23.586 -14.230  0.00  0.00    +0.179 C 
ATOM      6  C   UNL     1      32.050 -22.882 -16.208  0.00  0.00    +0.253 C 
ENDROOT
BRANCH   3   8
ATOM      7  O   UNL     1      28.325 -24.642 -17.008  0.00  0.00    -0.275 OA
ATOM      8  N   UNL     1      29.600 -22.841 -16.264  0.00  0.00    -0.299 N 
ATOM      9  C   UNL     1      28.486 -23.437 -16.829  0.00  0.00    +0.223 C 
ATOM     10  C   UNL     1      27.430 -22.431 -17.198  0.00  0.00    +0.095 C 
ATOM     11  H   UNL     1      29.612 -21.861 -16.173  0.00  0.00    +0.150 HD
ENDBRANCH   3   8
BRANCH   2  12
ATOM     12  O   UNL     1      29.579 -24.605 -13.947  0.00  0.00    -0.380 OA
ATOM     13  H   UNL     1      28.780 -24.269 -14.381  0.00  0.00    +0.211 HD
ENDBRANCH   2  12
BRANCH   4  14
ATOM     14  O   UNL     1      32.098 -25.738 -14.215  0.00  0.00    -0.379 OA
ATOM     15  H   UNL     1      31.951 -25.759 -15.174  0.00  0.00    +0.211 HD
ENDBRANCH   4  14
BRANCH   6  16
ATOM     16  O   UNL     1      32.135 -22.893 -17.633  0.00  0.00    -0.359 OA
ATOM     17  H   UNL     1      31.411 -22.366 -18.005  0.00  0.00    +0.213 HD
ENDBRANCH   6  16
BRANCH   5  18
ATOM     18  C   UNL     1      34.509 -24.197 -13.787  0.00  0.00    +0.209 C 
BRANCH  18  19
ATOM     19  O   UNL     1      34.437 -24.475 -12.400  0.00  0.00    -0.198 OA
BRANCH  19  20
ATOM     20  S   UNL     1      35.803 -24.477 -11.496  0.00  0.00    +0.239 S 
ATOM     21  O   UNL     1      35.246 -24.540  -9.964  0.00  0.00    -0.022 OA
ATOM     22  O   UNL     1      36.503 -25.721 -11.759  0.00  0.00    -0.116 OA
ATOM     23  O   UNL     1      36.483 -23.208 -11.672  0.00  0.00    -0.116 OA
ENDBRANCH  19  20
ENDBRANCH  18  19
ENDBRANCH   5  18
TORSDOF 7
ENDMDL
MODEL 5
REMARK VINA RESULT:      -7.6      4.032      7.676
REMARK  Name = 440271
REMARK  7 active torsions:
REMARK  status: ('A' for Active; 'I' for Inactive)
REMARK    1  A    between atoms: C_2  and  O_12
REMARK    2  A    between atoms: C_3  and  N_8
REMARK    3  A    between atoms: C_4  and  O_14
REMARK    4  A    between atoms: C_5  and  C_18
REMARK    5  A    between atoms: C_6  and  O_16
REMARK    6  A    between atoms: C_18  and  O_19
REMARK    7  A    between atoms: O_19  and  S_20
REMARK                            x       y       z     vdW  Elec       q    Type
REMARK                         _______ _______ _______ _____ _____    ______ ____
ROOT
ATOM      1  O   UNL     1      32.378 -23.068 -15.724  0.00  0.00    -0.327 OA
ATOM      2  C   UNL     1      33.510 -24.710 -13.663  0.00  0.00    +0.162 C 
ATOM      3  C   UNL     1      34.393 -23.954 -14.661  0.00  0.00    +0.158 C 
ATOM      4  C   UNL     1      32.140 -24.042 -13.518  0.00  0.00    +0.169 C 
ATOM      5  C   UNL     1      31.507 -23.850 -14.898  0.00  0.00    +0.179 C 
ATOM      6  C   UNL     1      33.633 -23.699 -15.972  0.00  0.00    +0.253 C 
ENDROOT
BRANCH   3   8
ATOM      7  O   UNL     1      37.109 -23.206 -13.954  0.00  0.00    -0.275 OA
ATOM      8  N   UNL     1      35.608 -24.700 -14.920  0.00  0.00    -0.299 N 
ATOM      9  C   UNL     1      36.862 -24.256 -14.541  0.00  0.00    +0.223 C 
ATOM     10  C   UNL     1      37.945 -25.234 -14.909  0.00  0.00    +0.095 C 
ATOM     11  H   UNL     1      35.538 -25.564 -15.388  0.00  0.00    +0.150 HD
ENDBRANCH   3   8
BRANCH   2  12
ATOM     12  O   UNL     1      34.158 -24.758 -12.395  0.00  0.00    -0.380 OA
ATOM     13  H   UNL     1      34.292 -23.856 -12.066  0.00  0.00    +0.211 HD
ENDBRANCH   2  12
BRANCH   4  14
ATOM     14  O   UNL     1      32.294 -22.764 -12.895  0.00  0.00    -0.379 OA
ATOM     15  H   UNL     1      32.553 -22.886 -11.968  0.00  0.00    +0.211 HD
ENDBRANCH   4  14
BRANCH   6  16
ATOM     16  O   UNL     1      34.435 -22.850 -16.792  0.00  0.00    -0.359 OA
ATOM     17  H   UNL     1      34.504 -21.974 -16.382  0.00  0.00    +0.213 HD
ENDBRANCH   6  16
BRANCH   5  18
ATOM     18  C   UNL     1      30.171 -23.121 -14.827  0.00  0.00    +0.209 C 
BRANCH  18  19
ATOM     19  O   UNL     1      29.199 -23.888 -15.514  0.00  0.00    -0.198 OA
BRANCH  19  20
ATOM     20  S   UNL     1      28.133 -23.151 -16.515  0.00  0.00    +0.239 S 
ATOM     21  O   UNL     1      27.677 -24.341 -17.532  0.00  0.00    -0.022 OA
ATOM     22  O   UNL     1      26.973 -22.781 -15.726  0.00  0.00    -0.116 OA
ATOM     23  O   UNL     1      28.837 -22.146 -17.290  0.00  0.00    -0.116 OA
ENDBRANCH  19  20
ENDBRANCH  18  19
ENDBRANCH   5  18
TORSDOF 7
ENDMDL
MODEL 6
REMARK VINA RESULT:      -7.5      3.100      4.805
REMARK  Name = 440271
REMARK  7 active torsions:
REMARK  status: ('A' for Active; 'I' for Inactive)
REMARK    1  A    between atoms: C_2  and  O_12
REMARK    2  A    between atoms: C_3  and  N_8
REMARK    3  A    between atoms: C_4  and  O_14
REMARK    4  A    between atoms: C_5  and  C_18
REMARK    5  A    between atoms: C_6  and  O_16
REMARK    6  A    between atoms: C_18  and  O_19
REMARK    7  A    between atoms: O_19  and  S_20
REMARK                            x       y       z     vdW  Elec       q    Type
REMARK                         _______ _______ _______ _____ _____    ______ ____
ROOT
ATOM      1  O   UNL     1      33.256 -24.552 -13.366  0.00  0.00    -0.327 OA
ATOM      2  C   UNL     1      32.879 -23.814 -16.112  0.00  0.00    +0.162 C 
ATOM      3  C   UNL     1      31.718 -23.798 -15.111  0.00  0.00    +0.158 C 
ATOM      4  C   UNL     1      34.226 -23.665 -15.401  0.00  0.00    +0.169 C 
ATOM      5  C   UNL     1      34.343 -24.705 -14.285  0.00  0.00    +0.179 C 
ATOM      6  C   UNL     1      31.980 -24.783 -13.962  0.00  0.00    +0.253 C 
ENDROOT
BRANCH   3   8
ATOM      7  O   UNL     1      29.245 -22.276 -15.076  0.00  0.00    -0.275 OA
ATOM      8  N   UNL     1      30.475 -24.122 -15.780  0.00  0.00    -0.299 N 
ATOM      9  C   UNL     1      29.345 -23.328 -15.702  0.00  0.00    +0.223 C 
ATOM     10  C   UNL     1      28.204 -23.884 -16.510  0.00  0.00    +0.095 C 
ATOM     11  H   UNL     1      30.432 -24.947 -16.316  0.00  0.00    +0.150 HD
ENDBRANCH   3   8
BRANCH   2  12
ATOM     12  O   UNL     1      32.711 -22.758 -17.053  0.00  0.00    -0.380 OA
ATOM     13  H   UNL     1      32.302 -23.106 -17.860  0.00  0.00    +0.211 HD
ENDBRANCH   2  12
BRANCH   4  14
ATOM     14  O   UNL     1      34.323 -22.357 -14.830  0.00  0.00    -0.379 OA
ATOM     15  H   UNL     1      34.237 -22.418 -13.866  0.00  0.00    +0.211 HD
ENDBRANCH   4  14
BRANCH   6  16
ATOM     16  O   UNL     1      30.959 -24.603 -12.981  0.00  0.00    -0.359 OA
ATOM     17  H   UNL     1      31.109 -25.213 -12.242  0.00  0.00    +0.213 HD
ENDBRANCH   6  16
BRANCH   5  18
ATOM     18  C   UNL     1      35.635 -24.559 -13.490  0.00  0.00    +0.209 C 
BRANCH  18  19
ATOM     19  O   UNL     1      35.361 -23.822 -12.312  0.00  0.00    -0.198 OA
BRANCH  19  20
ATOM     20  S   UNL     1      36.333 -23.981 -11.003  0.00  0.00    +0.239 S 
ATOM     21  O   UNL     1      37.328 -25.206 -11.413  0.00  0.00    -0.022 OA
ATOM     22  O   UNL     1      37.138 -22.777 -10.904  0.00  0.00    -0.116 OA
ATOM     23  O   UNL     1      35.531 -24.415  -9.875  0.00  0.00    -0.116 OA
ENDBRANCH  19  20
ENDBRANCH  18  19
ENDBRANCH   5  18
TORSDOF 7
ENDMDL
MODEL 7
REMARK VINA RESULT:      -7.3      3.098      6.514
REMARK  Name = 440271
REMARK  7 active torsions:
REMARK  status: ('A' for Active; 'I' for Inactive)
REMARK    1  A    between atoms: C_2  and  O_12
REMARK    2  A    between atoms: C_3  and  N_8
REMARK    3  A    between atoms: C_4  and  O_14
REMARK    4  A    between atoms: C_5  and  C_18
REMARK    5  A    between atoms: C_6  and  O_16
REMARK    6  A    between atoms: C_18  and  O_19
REMARK    7  A    between atoms: O_19  and  S_20
REMARK                            x       y       z     vdW  Elec       q    Type
REMARK                         _______ _______ _______ _____ _____    ______ ____
ROOT
ATOM      1  O   UNL     1      35.305 -22.715 -15.469  0.00  0.00    -0.327 OA
ATOM      2  C   UNL     1      35.999 -25.459 -15.010  0.00  0.00    +0.162 C 
ATOM      3  C   UNL     1      37.026 -24.334 -14.841  0.00  0.00    +0.158 C 
ATOM      4  C   UNL     1      34.571 -24.937 -14.841  0.00  0.00    +0.169 C 
ATOM      5  C   UNL     1      34.344 -23.736 -15.762  0.00  0.00    +0.179 C 
ATOM      6  C   UNL     1      36.651 -23.124 -15.710  0.00  0.00    +0.253 C 
ENDROOT
BRANCH   3   8
ATOM      7  O   UNL     1      39.003 -25.489 -13.055  0.00  0.00    -0.275 OA
ATOM      8  N   UNL     1      38.351 -24.809 -15.184  0.00  0.00    -0.299 N 
ATOM      9  C   UNL     1      39.224 -25.346 -14.255  0.00  0.00    +0.223 C 
ATOM     10  C   UNL     1      40.521 -25.782 -14.881  0.00  0.00    +0.095 C 
ATOM     11  H   UNL     1      38.644 -24.746 -16.122  0.00  0.00    +0.150 HD
ENDBRANCH   3   8
BRANCH   2  12
ATOM     12  O   UNL     1      36.254 -26.483 -14.053  0.00  0.00    -0.380 OA
ATOM     13  H   UNL     1      37.150 -26.379 -13.698  0.00  0.00    +0.211 HD
ENDBRANCH   2  12
BRANCH   4  14
ATOM     14  O   UNL     1      34.367 -24.529 -13.486  0.00  0.00    -0.379 OA
ATOM     15  H   UNL     1      33.511 -24.861 -13.173  0.00  0.00    +0.211 HD
ENDBRANCH   4  14
BRANCH   6  16
ATOM     16  O   UNL     1      37.536 -22.053 -15.386  0.00  0.00    -0.359 OA
ATOM     17  H   UNL     1      37.766 -22.096 -14.445  0.00  0.00    +0.213 HD
ENDBRANCH   6  16
BRANCH   5  18
ATOM     18  C   UNL     1      32.960 -23.123 -15.587  0.00  0.00    +0.209 C 
BRANCH  18  19
ATOM     19  O   UNL     1      32.026 -24.167 -15.380  0.00  0.00    -0.198 OA
BRANCH  19  20
ATOM     20  S   UNL     1      30.818 -23.979 -14.290  0.00  0.00    +0.239 S 
ATOM     21  O   UNL     1      29.842 -25.254 -14.577  0.00  0.00    -0.022 OA
ATOM     22  O   UNL     1      31.388 -24.153 -12.967  0.00  0.00    -0.116 OA
ATOM     23  O   UNL     1      30.081 -22.772 -14.612  0.00  0.00    -0.116 OA
ENDBRANCH  19  20
ENDBRANCH  18  19
ENDBRANCH   5  18
TORSDOF 7
ENDMDL
MODEL 8
REMARK VINA RESULT:      -7.2      8.996     11.010
REMARK  Name = 440271
REMARK  7 active torsions:
REMARK  status: ('A' for Active; 'I' for Inactive)
REMARK    1  A    between atoms: C_2  and  O_12
REMARK    2  A    between atoms: C_3  and  N_8
REMARK    3  A    between atoms: C_4  and  O_14
REMARK    4  A    between atoms: C_5  and  C_18
REMARK    5  A    between atoms: C_6  and  O_16
REMARK    6  A    between atoms: C_18  and  O_19
REMARK    7  A    between atoms: O_19  and  S_20
REMARK                            x       y       z     vdW  Elec       q    Type
REMARK                         _______ _______ _______ _____ _____    ______ ____
ROOT
ATOM      1  O   UNL     1      35.236 -17.569 -20.551  0.00  0.00    -0.327 OA
ATOM      2  C   UNL     1      34.718 -17.175 -23.344  0.00  0.00    +0.162 C 
ATOM      3  C   UNL     1      34.968 -15.993 -22.401  0.00  0.00    +0.158 C 
ATOM      4  C   UNL     1      35.346 -18.461 -22.800  0.00  0.00    +0.169 C 
ATOM      5  C   UNL     1      34.885 -18.697 -21.361  0.00  0.00    +0.179 C 
ATOM      6  C   UNL     1      34.591 -16.362 -20.958  0.00  0.00    +0.253 C 
ENDROOT
BRANCH   3   8
ATOM      7  O   UNL     1      32.250 -15.276 -21.668  0.00  0.00    -0.275 OA
ATOM      8  N   UNL     1      34.215 -14.836 -22.838  0.00  0.00    -0.299 N 
ATOM      9  C   UNL     1      32.917 -14.581 -22.430  0.00  0.00    +0.223 C 
ATOM     10  C   UNL     1      32.380 -13.301 -23.013  0.00  0.00    +0.095 C 
ATOM     11  H   UNL     1      34.646 -14.201 -23.455  0.00  0.00    +0.150 HD
ENDBRANCH   3   8
BRANCH   2  12
ATOM     12  O   UNL     1      35.257 -16.881 -24.629  0.00  0.00    -0.380 OA
ATOM     13  H   UNL     1      34.585 -17.045 -25.308  0.00  0.00    +0.211 HD
ENDBRANCH   2  12
BRANCH   4  14
ATOM     14  O   UNL     1      36.771 -18.342 -22.819  0.00  0.00    -0.379 OA
ATOM     15  H   UNL     1      37.046 -17.646 -22.201  0.00  0.00    +0.211 HD
ENDBRANCH   4  14
BRANCH   6  16
ATOM     16  O   UNL     1      35.002 -15.295 -20.105  0.00  0.00    -0.359 OA
ATOM     17  H   UNL     1      35.289 -15.656 -19.251  0.00  0.00    +0.213 HD
ENDBRANCH   6  16
BRANCH   5  18
ATOM     18  C   UNL     1      35.536 -19.925 -20.737  0.00  0.00    +0.209 C 
BRANCH  18  19
ATOM     19  O   UNL     1      34.614 -20.999 -20.785  0.00  0.00    -0.198 OA
BRANCH  19  20
ATOM     20  S   UNL     1      34.197 -21.781 -19.408  0.00  0.00    +0.239 S 
ATOM     21  O   UNL     1      34.126 -23.345 -19.863  0.00  0.00    -0.022 OA
ATOM     22  O   UNL     1      35.300 -21.646 -18.474  0.00  0.00    -0.116 OA
ATOM     23  O   UNL     1      32.861 -21.367 -19.021  0.00  0.00    -0.116 OA
ENDBRANCH  19  20
ENDBRANCH  18  19
ENDBRANCH   5  18
TORSDOF 7
ENDMDL
MODEL 9
REMARK VINA RESULT:      -6.9     11.263     13.188
REMARK  Name = 440271
REMARK  7 active torsions:
REMARK  status: ('A' for Active; 'I' for Inactive)
REMARK    1  A    between atoms: C_2  and  O_12
REMARK    2  A    between atoms: C_3  and  N_8
REMARK    3  A    between atoms: C_4  and  O_14
REMARK    4  A    between atoms: C_5  and  C_18
REMARK    5  A    between atoms: C_6  and  O_16
REMARK    6  A    between atoms: C_18  and  O_19
REMARK    7  A    between atoms: O_19  and  S_20
REMARK                            x       y       z     vdW  Elec       q    Type
REMARK                         _______ _______ _______ _____ _____    ______ ____
ROOT
ATOM      1  O   UNL     1      34.622 -16.440 -22.931  0.00  0.00    -0.327 OA
ATOM      2  C   UNL     1      33.212 -13.948 -22.768  0.00  0.00    +0.162 C 
ATOM      3  C   UNL     1      33.314 -14.726 -24.084  0.00  0.00    +0.158 C 
ATOM      4  C   UNL     1      33.379 -14.875 -21.562  0.00  0.00    +0.169 C 
ATOM      5  C   UNL     1      34.663 -15.694 -21.709  0.00  0.00    +0.179 C 
ATOM      6  C   UNL     1      34.569 -15.612 -24.092  0.00  0.00    +0.253 C 
ENDROOT
BRANCH   3   8
ATOM      7  O   UNL     1      32.539 -15.278 -26.828  0.00  0.00    -0.275 OA
ATOM      8  N   UNL     1      33.337 -13.810 -25.207  0.00  0.00    -0.299 N 
ATOM      9  C   UNL     1      32.946 -14.171 -26.484  0.00  0.00    +0.223 C 
ATOM     10  C   UNL     1      33.044 -13.024 -27.453  0.00  0.00    +0.095 C 
ATOM     11  H   UNL     1      33.646 -12.888 -25.054  0.00  0.00    +0.150 HD
ENDBRANCH   3   8
BRANCH   2  12
ATOM     12  O   UNL     1      31.948 -13.292 -22.700  0.00  0.00    -0.380 OA
ATOM     13  H   UNL     1      31.864 -12.840 -21.846  0.00  0.00    +0.211 HD
ENDBRANCH   2  12
BRANCH   4  14
ATOM     14  O   UNL     1      32.264 -15.767 -21.485  0.00  0.00    -0.379 OA
ATOM     15  H   UNL     1      32.488 -16.516 -20.911  0.00  0.00    +0.211 HD
ENDBRANCH   4  14
BRANCH   6  16
ATOM     16  O   UNL     1      34.523 -16.436 -25.257  0.00  0.00    -0.359 OA
ATOM     17  H   UNL     1      34.164 -15.926 -26.000  0.00  0.00    +0.213 HD
ENDBRANCH   6  16
BRANCH   5  18
ATOM     18  C   UNL     1      34.849 -16.691 -20.572  0.00  0.00    +0.209 C 
BRANCH  18  19
ATOM     19  O   UNL     1      34.180 -17.892 -20.910  0.00  0.00    -0.198 OA
BRANCH  19  20
ATOM     20  S   UNL     1      35.028 -19.284 -21.071  0.00  0.00    +0.239 S 
ATOM     21  O   UNL     1      34.142 -20.370 -20.239  0.00  0.00    -0.022 OA
ATOM     22  O   UNL     1      34.988 -19.665 -22.470  0.00  0.00    -0.116 OA
ATOM     23  O   UNL     1      36.303 -19.135 -20.393  0.00  0.00    -0.116 OA
ENDBRANCH  19  20
ENDBRANCH  18  19
ENDBRANCH   5  18
TORSDOF 7
ENDMDL
