MODEL 1
REMARK VINA RESULT:      -6.6      0.000      0.000
REMARK  Name = 5459816
REMARK  4 active torsions:
REMARK  status: ('A' for Active; 'I' for Inactive)
REMARK    1  A    between atoms: C_1  and  C_5
REMARK    2  A    between atoms: C_1  and  C_9
REMARK    3  A    between atoms: C_2  and  C_8
REMARK    4  A    between atoms: C_9  and  C_12
REMARK                            x       y       z     vdW  Elec       q    Type
REMARK                         _______ _______ _______ _____ _____    ______ ____
ROOT
ATOM      1  C   UNL     1      36.759 -24.335 -13.839  0.00  0.00    +0.075 C 
ATOM      2  C   UNL     1      36.717 -25.673 -13.742  0.00  0.00    +0.089 C 
ENDROOT
BRANCH   1   5
ATOM      3  O   UNL     1      38.608 -23.696 -15.173  0.00  0.00    -0.241 OA
ATOM      4  O   UNL     1      36.504 -23.530 -16.058  0.00  0.00    -0.241 OA
ATOM      5  C   UNL     1      37.348 -23.806 -15.157  0.00  0.00    +0.385 C 
ENDBRANCH   1   5
BRANCH   2   8
ATOM      6  O   UNL     1      38.400 -27.011 -14.735  0.00  0.00    -0.241 OA
ATOM      7  O   UNL     1      36.354 -26.849 -15.746  0.00  0.00    -0.241 OA
ATOM      8  C   UNL     1      37.214 -26.593 -14.855  0.00  0.00    +0.388 C 
ENDBRANCH   2   8
BRANCH   1   9
ATOM      9  C   UNL     1      36.367 -23.328 -12.798  0.00  0.00    +0.147 C 
BRANCH   9  12
ATOM     10  O   UNL     1      38.441 -23.016 -11.717  0.00  0.00    -0.245 OA
ATOM     11  O   UNL     1      36.755 -24.078 -10.597  0.00  0.00    -0.245 OA
ATOM     12  C   UNL     1      37.279 -23.495 -11.588  0.00  0.00    +0.369 C 
ENDBRANCH   9  12
ENDBRANCH   1   9
TORSDOF 4
ENDMDL
MODEL 2
REMARK VINA RESULT:      -6.5      1.915      4.173
REMARK  Name = 5459816
REMARK  4 active torsions:
REMARK  status: ('A' for Active; 'I' for Inactive)
REMARK    1  A    between atoms: C_1  and  C_5
REMARK    2  A    between atoms: C_1  and  C_9
REMARK    3  A    between atoms: C_2  and  C_8
REMARK    4  A    between atoms: C_9  and  C_12
REMARK                            x       y       z     vdW  Elec       q    Type
REMARK                         _______ _______ _______ _____ _____    ______ ____
ROOT
ATOM      1  C   UNL     1      38.366 -24.945 -13.705  0.00  0.00    +0.075 C 
ATOM      2  C   UNL     1      38.552 -24.773 -12.387  0.00  0.00    +0.089 C 
ENDROOT
BRANCH   1   5
ATOM      3  O   UNL     1      36.117 -24.467 -14.268  0.00  0.00    -0.241 OA
ATOM      4  O   UNL     1      37.739 -22.957 -14.840  0.00  0.00    -0.241 OA
ATOM      5  C   UNL     1      37.302 -24.029 -14.328  0.00  0.00    +0.385 C 
ENDBRANCH   1   5
BRANCH   2   8
ATOM      6  O   UNL     1      36.760 -24.188 -10.951  0.00  0.00    -0.241 OA
ATOM      7  O   UNL     1      38.247 -22.576 -11.604  0.00  0.00    -0.241 OA
ATOM      8  C   UNL     1      37.765 -23.745 -11.575  0.00  0.00    +0.388 C 
ENDBRANCH   2   8
BRANCH   1   9
ATOM      9  C   UNL     1      39.022 -25.959 -14.597  0.00  0.00    +0.147 C 
BRANCH   9  12
ATOM     10  O   UNL     1      41.169 -26.824 -14.141  0.00  0.00    -0.245 OA
ATOM     11  O   UNL     1      40.969 -24.645 -14.803  0.00  0.00    -0.245 OA
ATOM     12  C   UNL     1      40.534 -25.791 -14.498  0.00  0.00    +0.369 C 
ENDBRANCH   9  12
ENDBRANCH   1   9
TORSDOF 4
ENDMDL
MODEL 3
REMARK VINA RESULT:      -6.5      1.511      1.954
REMARK  Name = 5459816
REMARK  4 active torsions:
REMARK  status: ('A' for Active; 'I' for Inactive)
REMARK    1  A    between atoms: C_1  and  C_5
REMARK    2  A    between atoms: C_1  and  C_9
REMARK    3  A    between atoms: C_2  and  C_8
REMARK    4  A    between atoms: C_9  and  C_12
REMARK                            x       y       z     vdW  Elec       q    Type
REMARK                         _______ _______ _______ _____ _____    ______ ____
ROOT
ATOM      1  C   UNL     1      37.329 -24.733 -13.213  0.00  0.00    +0.075 C 
ATOM      2  C   UNL     1      38.447 -25.415 -12.921  0.00  0.00    +0.089 C 
ENDROOT
BRANCH   1   5
ATOM      3  O   UNL     1      36.676 -24.942 -15.479  0.00  0.00    -0.241 OA
ATOM      4  O   UNL     1      37.817 -23.067 -14.831  0.00  0.00    -0.241 OA
ATOM      5  C   UNL     1      37.264 -24.190 -14.649  0.00  0.00    +0.385 C 
ENDBRANCH   1   5
BRANCH   2   8
ATOM      6  O   UNL     1      40.506 -24.788 -13.913  0.00  0.00    -0.241 OA
ATOM      7  O   UNL     1      39.422 -26.657 -14.664  0.00  0.00    -0.241 OA
ATOM      8  C   UNL     1      39.565 -25.631 -13.940  0.00  0.00    +0.388 C 
ENDBRANCH   2   8
BRANCH   1   9
ATOM      9  C   UNL     1      36.195 -24.396 -12.289  0.00  0.00    +0.147 C 
BRANCH   9  12
ATOM     10  O   UNL     1      37.292 -22.449 -11.533  0.00  0.00    -0.245 OA
ATOM     11  O   UNL     1      36.521 -23.955  -9.996  0.00  0.00    -0.245 OA
ATOM     12  C   UNL     1      36.726 -23.517 -11.163  0.00  0.00    +0.369 C 
ENDBRANCH   9  12
ENDBRANCH   1   9
TORSDOF 4
ENDMDL
MODEL 4
REMARK VINA RESULT:      -6.2      2.001      3.852
REMARK  Name = 5459816
REMARK  4 active torsions:
REMARK  status: ('A' for Active; 'I' for Inactive)
REMARK    1  A    between atoms: C_1  and  C_5
REMARK    2  A    between atoms: C_1  and  C_9
REMARK    3  A    between atoms: C_2  and  C_8
REMARK    4  A    between atoms: C_9  and  C_12
REMARK                            x       y       z     vdW  Elec       q    Type
REMARK                         _______ _______ _______ _____ _____    ______ ____
ROOT
ATOM      1  C   UNL     1      37.954 -25.020 -14.473  0.00  0.00    +0.075 C 
ATOM      2  C   UNL     1      37.601 -24.586 -13.253  0.00  0.00    +0.089 C 
ENDROOT
BRANCH   1   5
ATOM      3  O   UNL     1      36.109 -26.044 -15.546  0.00  0.00    -0.241 OA
ATOM      4  O   UNL     1      37.756 -27.377 -14.680  0.00  0.00    -0.241 OA
ATOM      5  C   UNL     1      37.202 -26.272 -14.951  0.00  0.00    +0.385 C 
ENDBRANCH   1   5
BRANCH   2   8
ATOM      6  O   UNL     1      36.934 -26.257 -11.712  0.00  0.00    -0.241 OA
ATOM      7  O   UNL     1      35.382 -24.770 -12.496  0.00  0.00    -0.241 OA
ATOM      8  C   UNL     1      36.535 -25.284 -12.411  0.00  0.00    +0.388 C 
ENDBRANCH   2   8
BRANCH   1   9
ATOM      9  C   UNL     1      39.026 -24.468 -15.367  0.00  0.00    +0.147 C 
BRANCH   9  12
ATOM     10  O   UNL     1      40.634 -26.111 -15.899  0.00  0.00    -0.245 OA
ATOM     11  O   UNL     1      40.958 -24.797 -14.056  0.00  0.00    -0.245 OA
ATOM     12  C   UNL     1      40.331 -25.201 -15.076  0.00  0.00    +0.369 C 
ENDBRANCH   9  12
ENDBRANCH   1   9
TORSDOF 4
ENDMDL
MODEL 5
REMARK VINA RESULT:      -6.2      1.141      2.127
REMARK  Name = 5459816
REMARK  4 active torsions:
REMARK  status: ('A' for Active; 'I' for Inactive)
REMARK    1  A    between atoms: C_1  and  C_5
REMARK    2  A    between atoms: C_1  and  C_9
REMARK    3  A    between atoms: C_2  and  C_8
REMARK    4  A    between atoms: C_9  and  C_12
REMARK                            x       y       z     vdW  Elec       q    Type
REMARK                         _______ _______ _______ _____ _____    ______ ____
ROOT
ATOM      1  C   UNL     1      37.754 -25.095 -13.446  0.00  0.00    +0.075 C 
ATOM      2  C   UNL     1      36.475 -25.237 -13.824  0.00  0.00    +0.089 C 
ENDROOT
BRANCH   1   5
ATOM      3  O   UNL     1      39.222 -26.414 -14.754  0.00  0.00    -0.241 OA
ATOM      4  O   UNL     1      39.069 -24.173 -15.194  0.00  0.00    -0.241 OA
ATOM      5  C   UNL     1      38.780 -25.242 -14.581  0.00  0.00    +0.385 C 
ENDBRANCH   1   5
BRANCH   2   8
ATOM      6  O   UNL     1      36.096 -26.734 -15.621  0.00  0.00    -0.241 OA
ATOM      7  O   UNL     1      35.733 -24.497 -15.930  0.00  0.00    -0.241 OA
ATOM      8  C   UNL     1      36.074 -25.521 -15.271  0.00  0.00    +0.388 C 
ENDBRANCH   2   8
BRANCH   1   9
ATOM      9  C   UNL     1      38.280 -24.883 -12.056  0.00  0.00    +0.147 C 
BRANCH   9  12
ATOM     10  O   UNL     1      36.766 -23.825 -10.588  0.00  0.00    -0.245 OA
ATOM     11  O   UNL     1      38.076 -22.536 -11.949  0.00  0.00    -0.245 OA
ATOM     12  C   UNL     1      37.641 -23.626 -11.478  0.00  0.00    +0.369 C 
ENDBRANCH   9  12
ENDBRANCH   1   9
TORSDOF 4
ENDMDL
MODEL 6
REMARK VINA RESULT:      -6.0      1.803      3.772
REMARK  Name = 5459816
REMARK  4 active torsions:
REMARK  status: ('A' for Active; 'I' for Inactive)
REMARK    1  A    between atoms: C_1  and  C_5
REMARK    2  A    between atoms: C_1  and  C_9
REMARK    3  A    between atoms: C_2  and  C_8
REMARK    4  A    between atoms: C_9  and  C_12
REMARK                            x       y       z     vdW  Elec       q    Type
REMARK                         _______ _______ _______ _____ _____    ______ ____
ROOT
ATOM      1  C   UNL     1      37.792 -24.335 -13.873  0.00  0.00    +0.075 C 
ATOM      2  C   UNL     1      38.661 -24.743 -14.811  0.00  0.00    +0.089 C 
ENDROOT
BRANCH   1   5
ATOM      3  O   UNL     1      38.841 -23.750 -11.833  0.00  0.00    -0.241 OA
ATOM      4  O   UNL     1      37.870 -25.814 -12.018  0.00  0.00    -0.241 OA
ATOM      5  C   UNL     1      38.203 -24.665 -12.430  0.00  0.00    +0.385 C 
ENDBRANCH   1   5
BRANCH   2   8
ATOM      6  O   UNL     1      39.901 -26.738 -14.501  0.00  0.00    -0.241 OA
ATOM      7  O   UNL     1      40.937 -24.718 -14.220  0.00  0.00    -0.241 OA
ATOM      8  C   UNL     1      39.956 -25.476 -14.466  0.00  0.00    +0.388 C 
ENDBRANCH   2   8
BRANCH   1   9
ATOM      9  C   UNL     1      36.463 -23.669 -14.083  0.00  0.00    +0.147 C 
BRANCH   9  12
ATOM     10  O   UNL     1      35.466 -25.311 -15.454  0.00  0.00    -0.245 OA
ATOM     11  O   UNL     1      35.910 -23.249 -16.337  0.00  0.00    -0.245 OA
ATOM     12  C   UNL     1      35.896 -24.123 -15.424  0.00  0.00    +0.369 C 
ENDBRANCH   9  12
ENDBRANCH   1   9
TORSDOF 4
ENDMDL
MODEL 7
REMARK VINA RESULT:      -5.9      1.839      2.849
REMARK  Name = 5459816
REMARK  4 active torsions:
REMARK  status: ('A' for Active; 'I' for Inactive)
REMARK    1  A    between atoms: C_1  and  C_5
REMARK    2  A    between atoms: C_1  and  C_9
REMARK    3  A    between atoms: C_2  and  C_8
REMARK    4  A    between atoms: C_9  and  C_12
REMARK                            x       y       z     vdW  Elec       q    Type
REMARK                         _______ _______ _______ _____ _____    ______ ____
ROOT
ATOM      1  C   UNL     1      37.946 -25.817 -13.599  0.00  0.00    +0.075 C 
ATOM      2  C   UNL     1      39.235 -25.452 -13.665  0.00  0.00    +0.089 C 
ENDROOT
BRANCH   1   5
ATOM      3  O   UNL     1      36.670 -24.919 -15.380  0.00  0.00    -0.241 OA
ATOM      4  O   UNL     1      37.325 -27.109 -15.491  0.00  0.00    -0.241 OA
ATOM      5  C   UNL     1      37.249 -25.962 -14.961  0.00  0.00    +0.385 C 
ENDBRANCH   1   5
BRANCH   2   8
ATOM      6  O   UNL     1      40.599 -26.180 -15.460  0.00  0.00    -0.241 OA
ATOM      7  O   UNL     1      39.770 -24.047 -15.474  0.00  0.00    -0.241 OA
ATOM      8  C   UNL     1      39.950 -25.202 -14.992  0.00  0.00    +0.388 C 
ENDBRANCH   2   8
BRANCH   1   9
ATOM      9  C   UNL     1      37.115 -26.025 -12.366  0.00  0.00    +0.147 C 
BRANCH   9  12
ATOM     10  O   UNL     1      35.101 -24.941 -11.785  0.00  0.00    -0.245 OA
ATOM     11  O   UNL     1      36.961 -23.678 -12.203  0.00  0.00    -0.245 OA
ATOM     12  C   UNL     1      36.312 -24.757 -12.097  0.00  0.00    +0.369 C 
ENDBRANCH   9  12
ENDBRANCH   1   9
TORSDOF 4
ENDMDL
MODEL 8
REMARK VINA RESULT:      -5.9      1.683      4.379
REMARK  Name = 5459816
REMARK  4 active torsions:
REMARK  status: ('A' for Active; 'I' for Inactive)
REMARK    1  A    between atoms: C_1  and  C_5
REMARK    2  A    between atoms: C_1  and  C_9
REMARK    3  A    between atoms: C_2  and  C_8
REMARK    4  A    between atoms: C_9  and  C_12
REMARK                            x       y       z     vdW  Elec       q    Type
REMARK                         _______ _______ _______ _____ _____    ______ ____
ROOT
ATOM      1  C   UNL     1      36.899 -24.862 -13.587  0.00  0.00    +0.075 C 
ATOM      2  C   UNL     1      36.823 -23.658 -12.998  0.00  0.00    +0.089 C 
ENDROOT
BRANCH   1   5
ATOM      3  O   UNL     1      38.901 -26.010 -13.062  0.00  0.00    -0.241 OA
ATOM      4  O   UNL     1      36.981 -26.585 -11.957  0.00  0.00    -0.241 OA
ATOM      5  C   UNL     1      37.670 -25.921 -12.784  0.00  0.00    +0.385 C 
ENDBRANCH   1   5
BRANCH   2   8
ATOM      6  O   UNL     1      36.767 -23.693 -10.630  0.00  0.00    -0.241 OA
ATOM      7  O   UNL     1      38.616 -22.869 -11.696  0.00  0.00    -0.241 OA
ATOM      8  C   UNL     1      37.456 -23.369 -11.638  0.00  0.00    +0.388 C 
ENDBRANCH   2   8
BRANCH   1   9
ATOM      9  C   UNL     1      36.382 -25.253 -14.940  0.00  0.00    +0.147 C 
BRANCH   9  12
ATOM     10  O   UNL     1      34.138 -24.672 -14.500  0.00  0.00    -0.245 OA
ATOM     11  O   UNL     1      35.249 -23.604 -16.189  0.00  0.00    -0.245 OA
ATOM     12  C   UNL     1      35.133 -24.434 -15.242  0.00  0.00    +0.369 C 
ENDBRANCH   9  12
ENDBRANCH   1   9
TORSDOF 4
ENDMDL
MODEL 9
REMARK VINA RESULT:      -5.8      2.077      4.070
REMARK  Name = 5459816
REMARK  4 active torsions:
REMARK  status: ('A' for Active; 'I' for Inactive)
REMARK    1  A    between atoms: C_1  and  C_5
REMARK    2  A    between atoms: C_1  and  C_9
REMARK    3  A    between atoms: C_2  and  C_8
REMARK    4  A    between atoms: C_9  and  C_12
REMARK                            x       y       z     vdW  Elec       q    Type
REMARK                         _______ _______ _______ _____ _____    ______ ____
ROOT
ATOM      1  C   UNL     1      37.470 -24.364 -13.391  0.00  0.00    +0.075 C 
ATOM      2  C   UNL     1      36.195 -24.765 -13.268  0.00  0.00    +0.089 C 
ENDROOT
BRANCH   1   5
ATOM      3  O   UNL     1      38.023 -22.441 -12.125  0.00  0.00    -0.241 OA
ATOM      4  O   UNL     1      38.524 -24.504 -11.269  0.00  0.00    -0.241 OA
ATOM      5  C   UNL     1      38.060 -23.706 -12.134  0.00  0.00    +0.385 C 
ENDBRANCH   1   5
BRANCH   2   8
ATOM      6  O   UNL     1      34.542 -23.651 -11.987  0.00  0.00    -0.241 OA
ATOM      7  O   UNL     1      35.675 -25.413 -11.068  0.00  0.00    -0.241 OA
ATOM      8  C   UNL     1      35.398 -24.580 -11.978  0.00  0.00    +0.388 C 
ENDBRANCH   2   8
BRANCH   1   9
ATOM      9  C   UNL     1      38.335 -24.427 -14.615  0.00  0.00    +0.147 C 
BRANCH   9  12
ATOM     10  O   UNL     1      39.062 -26.668 -14.498  0.00  0.00    -0.245 OA
ATOM     11  O   UNL     1      40.573 -24.991 -14.135  0.00  0.00    -0.245 OA
ATOM     12  C   UNL     1      39.429 -25.464 -14.389  0.00  0.00    +0.369 C 
ENDBRANCH   9  12
ENDBRANCH   1   9
TORSDOF 4
ENDMDL
