MODEL 1
REMARK VINA RESULT:      -7.0      0.000      0.000
REMARK  Name = 17753823
REMARK  12 active torsions:
REMARK  status: ('A' for Active; 'I' for Inactive)
REMARK    1  A    between atoms: CG_1  and  OD2_2
REMARK    2  A    between atoms: CG_1  and  OD1_4
REMARK    3  A    between atoms: CG_1  and  CB_16
REMARK    4  A    between atoms: OD1_4  and  CB_5
REMARK    5  A    between atoms: CB_5  and  CA_7
REMARK    6  A    between atoms: CA_7  and  N_8
REMARK    7  A    between atoms: CA_7  and  C_13
REMARK    8  A    between atoms: C_13  and  O_14
REMARK    9  A    between atoms: CB_16  and  CA_17
REMARK   10  A    between atoms: CA_17  and  N_18
REMARK   11  A    between atoms: CA_17  and  C_23
REMARK   12  A    between atoms: C_23  and  O_24
REMARK                            x       y       z     vdW  Elec       q    Type
REMARK                         _______ _______ _______ _____ _____    ______ ____
ROOT
ATOM      1  CG  ASP A   1      36.871 -26.165 -14.499  0.00  0.00    +0.230 C 
ENDROOT
BRANCH   1   2
ATOM      2  OD2 ASP A   1      37.281 -26.578 -15.800  0.00  0.00    -0.360 OA
ATOM      3  HD2 ASP A   1      38.250 -26.627 -15.833  0.00  0.00    +0.213 HD
ENDBRANCH   1   2
BRANCH   1   4
ATOM      4  OD1 ASP A   1      36.280 -24.865 -14.514  0.00  0.00    -0.335 OA
BRANCH   4   5
ATOM      5  CB  ASP A   1      35.181 -24.757 -13.619  0.00  0.00    +0.108 C 
ATOM      6  CG2 ASP A   1      33.949 -24.388 -14.436  0.00  0.00    +0.030 C 
BRANCH   5   7
ATOM      7  CA  ASP A   1      35.484 -23.752 -12.497  0.00  0.00    +0.063 C 
BRANCH   7   8
ATOM      8  N   ASP A   1      36.586 -22.871 -12.897  0.00  0.00    +0.390 N 
ATOM      9  H1  ASP A   1      37.396 -23.435 -13.155  0.00  0.00    -0.088 HD
ATOM     10  H2  ASP A   1      36.831 -22.259 -12.118  0.00  0.00    -0.088 HD
ATOM     11  H3  ASP A   1      36.297 -22.307 -13.696  0.00  0.00    -0.088 HD
ENDBRANCH   7   8
BRANCH   7  13
ATOM     12  OXT ASP A   1      35.210 -25.184 -10.540  0.00  0.00    -0.253 OA
ATOM     13  C   ASP A   1      35.911 -24.432 -11.206  0.00  0.00    +0.295 C 
BRANCH  13  14
ATOM     14  O   ASP A   1      37.192 -24.133 -10.867  0.00  0.00    -0.482 OA
ATOM     15  H   ASP A   1      37.555 -23.301 -11.097  0.00  0.00    +0.295 HD
ENDBRANCH  13  14
ENDBRANCH   7  13
ENDBRANCH   5   7
ENDBRANCH   4   5
ENDBRANCH   1   4
BRANCH   1  16
ATOM     16  CB  ASP A   1      38.130 -26.115 -13.622  0.00  0.00    +0.050 C 
BRANCH  16  17
ATOM     17  CA  ASP A   1      39.230 -25.199 -14.179  0.00  0.00    +0.041 C 
BRANCH  17  18
ATOM     18  N   ASP A   1      38.692 -24.392 -15.273  0.00  0.00    +0.389 N 
ATOM     19  H1  ASP A   1      38.940 -23.414 -15.128  0.00  0.00    -0.088 HD
ATOM     20  H2  ASP A   1      37.677 -24.487 -15.298  0.00  0.00    -0.088 HD
ATOM     21  H3  ASP A   1      39.084 -24.715 -16.157  0.00  0.00    -0.088 HD
ENDBRANCH  17  18
BRANCH  17  23
ATOM     22  OXT ASP A   1      41.213 -26.611 -14.088  0.00  0.00    -0.253 OA
ATOM     23  C   ASP A   1      40.396 -25.985 -14.750  0.00  0.00    +0.293 C 
BRANCH  23  24
ATOM     24  O   ASP A   1      40.426 -25.944 -16.109  0.00  0.00    -0.482 OA
ATOM     25  H   ASP A   1      40.628 -25.141 -16.549  0.00  0.00    +0.295 HD
ENDBRANCH  23  24
ENDBRANCH  17  23
ENDBRANCH  16  17
ENDBRANCH   1  16
TORSDOF 12
ENDMDL
MODEL 2
REMARK VINA RESULT:      -6.8      1.488      1.622
REMARK  Name = 17753823
REMARK  12 active torsions:
REMARK  status: ('A' for Active; 'I' for Inactive)
REMARK    1  A    between atoms: CG_1  and  OD2_2
REMARK    2  A    between atoms: CG_1  and  OD1_4
REMARK    3  A    between atoms: CG_1  and  CB_16
REMARK    4  A    between atoms: OD1_4  and  CB_5
REMARK    5  A    between atoms: CB_5  and  CA_7
REMARK    6  A    between atoms: CA_7  and  N_8
REMARK    7  A    between atoms: CA_7  and  C_13
REMARK    8  A    between atoms: C_13  and  O_14
REMARK    9  A    between atoms: CB_16  and  CA_17
REMARK   10  A    between atoms: CA_17  and  N_18
REMARK   11  A    between atoms: CA_17  and  C_23
REMARK   12  A    between atoms: C_23  and  O_24
REMARK                            x       y       z     vdW  Elec       q    Type
REMARK                         _______ _______ _______ _____ _____    ______ ____
ROOT
ATOM      1  CG  ASP A   1      37.028 -23.919 -15.279  0.00  0.00    +0.230 C 
ENDROOT
BRANCH   1   2
ATOM      2  OD2 ASP A   1      37.141 -23.204 -16.508  0.00  0.00    -0.360 OA
ATOM      3  HD2 ASP A   1      37.380 -23.820 -17.219  0.00  0.00    +0.213 HD
ENDBRANCH   1   2
BRANCH   1   4
ATOM      4  OD1 ASP A   1      36.352 -23.156 -14.279  0.00  0.00    -0.335 OA
BRANCH   4   5
ATOM      5  CB  ASP A   1      35.604 -23.971 -13.387  0.00  0.00    +0.108 C 
ATOM      6  CG2 ASP A   1      34.151 -23.954 -13.845  0.00  0.00    +0.030 C 
BRANCH   5   7
ATOM      7  CA  ASP A   1      35.784 -23.502 -11.934  0.00  0.00    +0.063 C 
BRANCH   7   8
ATOM      8  N   ASP A   1      37.083 -22.840 -11.778  0.00  0.00    +0.390 N 
ATOM      9  H1  ASP A   1      37.655 -23.013 -12.606  0.00  0.00    -0.088 HD
ATOM     10  H2  ASP A   1      37.556 -23.210 -10.954  0.00  0.00    -0.088 HD
ATOM     11  H3  ASP A   1      36.942 -21.836 -11.668  0.00  0.00    -0.088 HD
ENDBRANCH   7   8
BRANCH   7  13
ATOM     12  OXT ASP A   1      35.309 -24.593  -9.804  0.00  0.00    -0.253 OA
ATOM     13  C   ASP A   1      35.757 -24.654 -10.943  0.00  0.00    +0.295 C 
BRANCH  13  14
ATOM     14  O   ASP A   1      36.271 -25.796 -11.467  0.00  0.00    -0.482 OA
ATOM     15  H   ASP A   1      36.811 -25.759 -12.231  0.00  0.00    +0.295 HD
ENDBRANCH  13  14
ENDBRANCH   7  13
ENDBRANCH   5   7
ENDBRANCH   4   5
ENDBRANCH   1   4
BRANCH   1  16
ATOM     16  CB  ASP A   1      38.454 -24.204 -14.789  0.00  0.00    +0.050 C 
BRANCH  16  17
ATOM     17  CA  ASP A   1      38.741 -25.698 -14.570  0.00  0.00    +0.041 C 
BRANCH  17  18
ATOM     18  N   ASP A   1      38.481 -26.048 -13.175  0.00  0.00    +0.389 N 
ATOM     19  H1  ASP A   1      38.953 -26.925 -12.952  0.00  0.00    -0.088 HD
ATOM     20  H2  ASP A   1      37.477 -26.156 -13.033  0.00  0.00    -0.088 HD
ATOM     21  H3  ASP A   1      38.834 -25.308 -12.568  0.00  0.00    -0.088 HD
ENDBRANCH  17  18
BRANCH  17  23
ATOM     22  OXT ASP A   1      41.001 -26.408 -14.000  0.00  0.00    -0.253 OA
ATOM     23  C   ASP A   1      40.191 -26.049 -14.846  0.00  0.00    +0.293 C 
BRANCH  23  24
ATOM     24  O   ASP A   1      40.501 -25.951 -16.166  0.00  0.00    -0.482 OA
ATOM     25  H   ASP A   1      41.108 -25.299 -16.456  0.00  0.00    +0.295 HD
ENDBRANCH  23  24
ENDBRANCH  17  23
ENDBRANCH  16  17
ENDBRANCH   1  16
TORSDOF 12
ENDMDL
MODEL 3
REMARK VINA RESULT:      -6.6      3.383      4.445
REMARK  Name = 17753823
REMARK  12 active torsions:
REMARK  status: ('A' for Active; 'I' for Inactive)
REMARK    1  A    between atoms: CG_1  and  OD2_2
REMARK    2  A    between atoms: CG_1  and  OD1_4
REMARK    3  A    between atoms: CG_1  and  CB_16
REMARK    4  A    between atoms: OD1_4  and  CB_5
REMARK    5  A    between atoms: CB_5  and  CA_7
REMARK    6  A    between atoms: CA_7  and  N_8
REMARK    7  A    between atoms: CA_7  and  C_13
REMARK    8  A    between atoms: C_13  and  O_14
REMARK    9  A    between atoms: CB_16  and  CA_17
REMARK   10  A    between atoms: CA_17  and  N_18
REMARK   11  A    between atoms: CA_17  and  C_23
REMARK   12  A    between atoms: C_23  and  O_24
REMARK                            x       y       z     vdW  Elec       q    Type
REMARK                         _______ _______ _______ _____ _____    ______ ____
ROOT
ATOM      1  CG  ASP A   1      37.377 -23.090 -15.164  0.00  0.00    +0.230 C 
ENDROOT
BRANCH   1   2
ATOM      2  OD2 ASP A   1      38.575 -23.411 -15.867  0.00  0.00    -0.360 OA
ATOM      3  HD2 ASP A   1      38.557 -24.346 -16.126  0.00  0.00    +0.213 HD
ENDBRANCH   1   2
BRANCH   1   4
ATOM      4  OD1 ASP A   1      36.870 -24.209 -14.436  0.00  0.00    -0.335 OA
BRANCH   4   5
ATOM      5  CB  ASP A   1      37.399 -24.287 -13.120  0.00  0.00    +0.108 C 
ATOM      6  CG2 ASP A   1      37.666 -25.755 -12.811  0.00  0.00    +0.030 C 
BRANCH   5   7
ATOM      7  CA  ASP A   1      36.454 -23.619 -12.108  0.00  0.00    +0.063 C 
BRANCH   7   8
ATOM      8  N   ASP A   1      37.200 -23.229 -10.907  0.00  0.00    +0.390 N 
ATOM      9  H1  ASP A   1      38.024 -23.822 -10.812  0.00  0.00    -0.088 HD
ATOM     10  H2  ASP A   1      36.604 -23.340 -10.087  0.00  0.00    -0.088 HD
ATOM     11  H3  ASP A   1      37.490 -22.255 -10.989  0.00  0.00    -0.088 HD
ENDBRANCH   7   8
BRANCH   7  13
ATOM     12  OXT ASP A   1      35.273 -25.078 -10.549  0.00  0.00    -0.253 OA
ATOM     13  C   ASP A   1      35.341 -24.548 -11.651  0.00  0.00    +0.295 C 
BRANCH  13  14
ATOM     14  O   ASP A   1      34.389 -24.719 -12.605  0.00  0.00    -0.482 OA
ATOM     15  H   ASP A   1      34.033 -23.976 -13.050  0.00  0.00    +0.295 HD
ENDBRANCH  13  14
ENDBRANCH   7  13
ENDBRANCH   5   7
ENDBRANCH   4   5
ENDBRANCH   1   4
BRANCH   1  16
ATOM     16  CB  ASP A   1      36.334 -22.679 -16.212  0.00  0.00    +0.050 C 
BRANCH  16  17
ATOM     17  CA  ASP A   1      36.935 -21.958 -17.428  0.00  0.00    +0.041 C 
BRANCH  17  18
ATOM     18  N   ASP A   1      37.360 -20.614 -17.042  0.00  0.00    +0.389 N 
ATOM     19  H1  ASP A   1      38.369 -20.607 -16.890  0.00  0.00    -0.088 HD
ATOM     20  H2  ASP A   1      36.885 -20.341 -16.182  0.00  0.00    -0.088 HD
ATOM     21  H3  ASP A   1      37.123 -19.957 -17.785  0.00  0.00    -0.088 HD
ENDBRANCH  17  18
BRANCH  17  23
ATOM     22  OXT ASP A   1      34.987 -22.542 -18.770  0.00  0.00    -0.253 OA
ATOM     23  C   ASP A   1      35.929 -21.791 -18.552  0.00  0.00    +0.293 C 
BRANCH  23  24
ATOM     24  O   ASP A   1      36.169 -20.678 -19.294  0.00  0.00    -0.482 OA
ATOM     25  H   ASP A   1      36.463 -20.761 -20.180  0.00  0.00    +0.295 HD
ENDBRANCH  23  24
ENDBRANCH  17  23
ENDBRANCH  16  17
ENDBRANCH   1  16
TORSDOF 12
ENDMDL
MODEL 4
REMARK VINA RESULT:      -6.6      2.608      3.864
REMARK  Name = 17753823
REMARK  12 active torsions:
REMARK  status: ('A' for Active; 'I' for Inactive)
REMARK    1  A    between atoms: CG_1  and  OD2_2
REMARK    2  A    between atoms: CG_1  and  OD1_4
REMARK    3  A    between atoms: CG_1  and  CB_16
REMARK    4  A    between atoms: OD1_4  and  CB_5
REMARK    5  A    between atoms: CB_5  and  CA_7
REMARK    6  A    between atoms: CA_7  and  N_8
REMARK    7  A    between atoms: CA_7  and  C_13
REMARK    8  A    between atoms: C_13  and  O_14
REMARK    9  A    between atoms: CB_16  and  CA_17
REMARK   10  A    between atoms: CA_17  and  N_18
REMARK   11  A    between atoms: CA_17  and  C_23
REMARK   12  A    between atoms: C_23  and  O_24
REMARK                            x       y       z     vdW  Elec       q    Type
REMARK                         _______ _______ _______ _____ _____    ______ ____
ROOT
ATOM      1  CG  ASP A   1      36.129 -25.465 -14.818  0.00  0.00    +0.230 C 
ENDROOT
BRANCH   1   2
ATOM      2  OD2 ASP A   1      36.181 -26.864 -15.088  0.00  0.00    -0.360 OA
ATOM      3  HD2 ASP A   1      36.825 -27.034 -15.794  0.00  0.00    +0.213 HD
ENDBRANCH   1   2
BRANCH   1   4
ATOM      4  OD1 ASP A   1      35.293 -24.774 -15.746  0.00  0.00    -0.335 OA
BRANCH   4   5
ATOM      5  CB  ASP A   1      34.555 -23.724 -15.135  0.00  0.00    +0.108 C 
ATOM      6  CG2 ASP A   1      33.776 -24.320 -13.968  0.00  0.00    +0.030 C 
BRANCH   5   7
ATOM      7  CA  ASP A   1      33.656 -23.016 -16.161  0.00  0.00    +0.063 C 
BRANCH   7   8
ATOM      8  N   ASP A   1      32.319 -23.618 -16.156  0.00  0.00    +0.390 N 
ATOM      9  H1  ASP A   1      32.395 -24.614 -15.948  0.00  0.00    -0.088 HD
ATOM     10  H2  ASP A   1      31.887 -23.494 -17.072  0.00  0.00    -0.088 HD
ATOM     11  H3  ASP A   1      31.745 -23.167 -15.445  0.00  0.00    -0.088 HD
ENDBRANCH   7   8
BRANCH   7  13
ATOM     12  OXT ASP A   1      33.595 -23.669 -18.511  0.00  0.00    -0.253 OA
ATOM     13  C   ASP A   1      34.186 -23.136 -17.580  0.00  0.00    +0.295 C 
BRANCH  13  14
ATOM     14  O   ASP A   1      35.406 -22.556 -17.724  0.00  0.00    -0.482 OA
ATOM     15  H   ASP A   1      35.472 -21.672 -18.029  0.00  0.00    +0.295 HD
ENDBRANCH  13  14
ENDBRANCH   7  13
ENDBRANCH   5   7
ENDBRANCH   4   5
ENDBRANCH   1   4
BRANCH   1  16
ATOM     16  CB  ASP A   1      37.559 -24.924 -14.957  0.00  0.00    +0.050 C 
BRANCH  16  17
ATOM     17  CA  ASP A   1      38.640 -25.930 -14.533  0.00  0.00    +0.041 C 
BRANCH  17  18
ATOM     18  N   ASP A   1      38.623 -26.087 -13.080  0.00  0.00    +0.389 N 
ATOM     19  H1  ASP A   1      38.017 -26.869 -12.830  0.00  0.00    -0.088 HD
ATOM     20  H2  ASP A   1      38.272 -25.232 -12.650  0.00  0.00    -0.088 HD
ATOM     21  H3  ASP A   1      39.570 -26.271 -12.748  0.00  0.00    -0.088 HD
ENDBRANCH  17  18
BRANCH  17  23
ATOM     22  OXT ASP A   1      40.751 -24.758 -14.206  0.00  0.00    -0.253 OA
ATOM     23  C   ASP A   1      40.035 -25.463 -14.905  0.00  0.00    +0.293 C 
BRANCH  23  24
ATOM     24  O   ASP A   1      40.432 -25.944 -16.114  0.00  0.00    -0.482 OA
ATOM     25  H   ASP A   1      39.851 -26.478 -16.619  0.00  0.00    +0.295 HD
ENDBRANCH  23  24
ENDBRANCH  17  23
ENDBRANCH  16  17
ENDBRANCH   1  16
TORSDOF 12
ENDMDL
MODEL 5
REMARK VINA RESULT:      -6.6      3.591      5.088
REMARK  Name = 17753823
REMARK  12 active torsions:
REMARK  status: ('A' for Active; 'I' for Inactive)
REMARK    1  A    between atoms: CG_1  and  OD2_2
REMARK    2  A    between atoms: CG_1  and  OD1_4
REMARK    3  A    between atoms: CG_1  and  CB_16
REMARK    4  A    between atoms: OD1_4  and  CB_5
REMARK    5  A    between atoms: CB_5  and  CA_7
REMARK    6  A    between atoms: CA_7  and  N_8
REMARK    7  A    between atoms: CA_7  and  C_13
REMARK    8  A    between atoms: C_13  and  O_14
REMARK    9  A    between atoms: CB_16  and  CA_17
REMARK   10  A    between atoms: CA_17  and  N_18
REMARK   11  A    between atoms: CA_17  and  C_23
REMARK   12  A    between atoms: C_23  and  O_24
REMARK                            x       y       z     vdW  Elec       q    Type
REMARK                         _______ _______ _______ _____ _____    ______ ____
ROOT
ATOM      1  CG  ASP A   1      36.916 -23.220 -15.501  0.00  0.00    +0.230 C 
ENDROOT
BRANCH   1   2
ATOM      2  OD2 ASP A   1      38.264 -23.220 -15.966  0.00  0.00    -0.360 OA
ATOM      3  HD2 ASP A   1      38.272 -23.143 -16.934  0.00  0.00    +0.213 HD
ENDBRANCH   1   2
BRANCH   1   4
ATOM      4  OD1 ASP A   1      36.388 -24.543 -15.398  0.00  0.00    -0.335 OA
BRANCH   4   5
ATOM      5  CB  ASP A   1      36.152 -24.930 -14.051  0.00  0.00    +0.108 C 
ATOM      6  CG2 ASP A   1      36.505 -23.748 -13.157  0.00  0.00    +0.030 C 
BRANCH   5   7
ATOM      7  CA  ASP A   1      36.934 -26.206 -13.702  0.00  0.00    +0.063 C 
BRANCH   7   8
ATOM      8  N   ASP A   1      37.745 -25.983 -12.500  0.00  0.00    +0.390 N 
ATOM      9  H1  ASP A   1      38.667 -26.401 -12.630  0.00  0.00    -0.088 HD
ATOM     10  H2  ASP A   1      37.286 -26.412 -11.697  0.00  0.00    -0.088 HD
ATOM     11  H3  ASP A   1      37.847 -24.981 -12.340  0.00  0.00    -0.088 HD
ENDBRANCH   7   8
BRANCH   7  13
ATOM     12  OXT ASP A   1      39.114 -26.595 -14.728  0.00  0.00    -0.253 OA
ATOM     13  C   ASP A   1      37.892 -26.622 -14.806  0.00  0.00    +0.295 C 
BRANCH  13  14
ATOM     14  O   ASP A   1      37.240 -27.063 -15.913  0.00  0.00    -0.482 OA
ATOM     15  H   ASP A   1      37.725 -27.394 -16.642  0.00  0.00    +0.295 HD
ENDBRANCH  13  14
ENDBRANCH   7  13
ENDBRANCH   5   7
ENDBRANCH   4   5
ENDBRANCH   1   4
BRANCH   1  16
ATOM     16  CB  ASP A   1      36.082 -22.444 -16.530  0.00  0.00    +0.050 C 
BRANCH  16  17
ATOM     17  CA  ASP A   1      36.925 -21.792 -17.637  0.00  0.00    +0.041 C 
BRANCH  17  18
ATOM     18  N   ASP A   1      37.387 -20.478 -17.193  0.00  0.00    +0.389 N 
ATOM     19  H1  ASP A   1      37.223 -19.793 -17.931  0.00  0.00    -0.088 HD
ATOM     20  H2  ASP A   1      38.384 -20.521 -16.983  0.00  0.00    -0.088 HD
ATOM     21  H3  ASP A   1      36.874 -20.204 -16.355  0.00  0.00    -0.088 HD
ENDBRANCH  17  18
BRANCH  17  23
ATOM     22  OXT ASP A   1      35.290 -22.339 -19.359  0.00  0.00    -0.253 OA
ATOM     23  C   ASP A   1      36.127 -21.567 -18.908  0.00  0.00    +0.293 C 
BRANCH  23  24
ATOM     24  O   ASP A   1      36.423 -20.377 -19.496  0.00  0.00    -0.482 OA
ATOM     25  H   ASP A   1      37.305 -20.059 -19.490  0.00  0.00    +0.295 HD
ENDBRANCH  23  24
ENDBRANCH  17  23
ENDBRANCH  16  17
ENDBRANCH   1  16
TORSDOF 12
ENDMDL
MODEL 6
REMARK VINA RESULT:      -6.6      2.949      5.508
REMARK  Name = 17753823
REMARK  12 active torsions:
REMARK  status: ('A' for Active; 'I' for Inactive)
REMARK    1  A    between atoms: CG_1  and  OD2_2
REMARK    2  A    between atoms: CG_1  and  OD1_4
REMARK    3  A    between atoms: CG_1  and  CB_16
REMARK    4  A    between atoms: OD1_4  and  CB_5
REMARK    5  A    between atoms: CB_5  and  CA_7
REMARK    6  A    between atoms: CA_7  and  N_8
REMARK    7  A    between atoms: CA_7  and  C_13
REMARK    8  A    between atoms: C_13  and  O_14
REMARK    9  A    between atoms: CB_16  and  CA_17
REMARK   10  A    between atoms: CA_17  and  N_18
REMARK   11  A    between atoms: CA_17  and  C_23
REMARK   12  A    between atoms: C_23  and  O_24
REMARK                            x       y       z     vdW  Elec       q    Type
REMARK                         _______ _______ _______ _____ _____    ______ ____
ROOT
ATOM      1  CG  ASP A   1      34.128 -23.306 -15.576  0.00  0.00    +0.230 C 
ENDROOT
BRANCH   1   2
ATOM      2  OD2 ASP A   1      34.842 -23.154 -16.800  0.00  0.00    -0.360 OA
ATOM      3  HD2 ASP A   1      34.214 -23.001 -17.524  0.00  0.00    +0.213 HD
ENDBRANCH   1   2
BRANCH   1   4
ATOM      4  OD1 ASP A   1      34.601 -24.418 -14.816  0.00  0.00    -0.335 OA
BRANCH   4   5
ATOM      5  CB  ASP A   1      36.018 -24.437 -14.705  0.00  0.00    +0.108 C 
ATOM      6  CG2 ASP A   1      36.484 -25.870 -14.931  0.00  0.00    +0.030 C 
BRANCH   5   7
ATOM      7  CA  ASP A   1      36.469 -23.861 -13.353  0.00  0.00    +0.063 C 
BRANCH   7   8
ATOM      8  N   ASP A   1      37.853 -24.260 -13.076  0.00  0.00    +0.390 N 
ATOM      9  H1  ASP A   1      38.016 -24.245 -12.069  0.00  0.00    -0.088 HD
ATOM     10  H2  ASP A   1      38.492 -23.610 -13.534  0.00  0.00    -0.088 HD
ATOM     11  H3  ASP A   1      38.013 -25.202 -13.431  0.00  0.00    -0.088 HD
ENDBRANCH   7   8
BRANCH   7  13
ATOM     12  OXT ASP A   1      35.918 -25.310 -11.469  0.00  0.00    -0.253 OA
ATOM     13  C   ASP A   1      35.626 -24.367 -12.194  0.00  0.00    +0.295 C 
BRANCH  13  14
ATOM     14  O   ASP A   1      34.496 -23.634 -12.022  0.00  0.00    -0.482 OA
ATOM     15  H   ASP A   1      33.791 -23.973 -11.507  0.00  0.00    +0.295 HD
ENDBRANCH  13  14
ENDBRANCH   7  13
ENDBRANCH   5   7
ENDBRANCH   4   5
ENDBRANCH   1   4
BRANCH   1  16
ATOM     16  CB  ASP A   1      32.657 -23.556 -15.938  0.00  0.00    +0.050 C 
BRANCH  16  17
ATOM     17  CA  ASP A   1      31.710 -23.510 -14.729  0.00  0.00    +0.041 C 
BRANCH  17  18
ATOM     18  N   ASP A   1      32.322 -22.731 -13.655  0.00  0.00    +0.389 N 
ATOM     19  H1  ASP A   1      32.321 -23.279 -12.795  0.00  0.00    -0.088 HD
ATOM     20  H2  ASP A   1      31.791 -21.872 -13.513  0.00  0.00    -0.088 HD
ATOM     21  H3  ASP A   1      33.282 -22.498 -13.909  0.00  0.00    -0.088 HD
ENDBRANCH  17  18
BRANCH  17  23
ATOM     22  OXT ASP A   1      30.559 -25.651 -14.558  0.00  0.00    -0.253 OA
ATOM     23  C   ASP A   1      31.434 -24.891 -14.164  0.00  0.00    +0.293 C 
BRANCH  23  24
ATOM     24  O   ASP A   1      32.298 -25.219 -13.166  0.00  0.00    -0.482 OA
ATOM     25  H   ASP A   1      32.827 -24.555 -12.768  0.00  0.00    +0.295 HD
ENDBRANCH  23  24
ENDBRANCH  17  23
ENDBRANCH  16  17
ENDBRANCH   1  16
TORSDOF 12
ENDMDL
MODEL 7
REMARK VINA RESULT:      -6.5      9.293     10.700
REMARK  Name = 17753823
REMARK  12 active torsions:
REMARK  status: ('A' for Active; 'I' for Inactive)
REMARK    1  A    between atoms: CG_1  and  OD2_2
REMARK    2  A    between atoms: CG_1  and  OD1_4
REMARK    3  A    between atoms: CG_1  and  CB_16
REMARK    4  A    between atoms: OD1_4  and  CB_5
REMARK    5  A    between atoms: CB_5  and  CA_7
REMARK    6  A    between atoms: CA_7  and  N_8
REMARK    7  A    between atoms: CA_7  and  C_13
REMARK    8  A    between atoms: C_13  and  O_14
REMARK    9  A    between atoms: CB_16  and  CA_17
REMARK   10  A    between atoms: CA_17  and  N_18
REMARK   11  A    between atoms: CA_17  and  C_23
REMARK   12  A    between atoms: C_23  and  O_24
REMARK                            x       y       z     vdW  Elec       q    Type
REMARK                         _______ _______ _______ _____ _____    ______ ____
ROOT
ATOM      1  CG  ASP A   1      34.883 -18.450 -21.283  0.00  0.00    +0.230 C 
ENDROOT
BRANCH   1   2
ATOM      2  OD2 ASP A   1      35.227 -17.181 -20.730  0.00  0.00    -0.360 OA
ATOM      3  HD2 ASP A   1      36.184 -17.145 -20.574  0.00  0.00    +0.213 HD
ENDBRANCH   1   2
BRANCH   1   4
ATOM      4  OD1 ASP A   1      35.355 -19.529 -20.475  0.00  0.00    -0.335 OA
BRANCH   4   5
ATOM      5  CB  ASP A   1      34.410 -20.585 -20.371  0.00  0.00    +0.108 C 
ATOM      6  CG2 ASP A   1      33.018 -19.979 -20.508  0.00  0.00    +0.030 C 
BRANCH   5   7
ATOM      7  CA  ASP A   1      34.601 -21.366 -19.062  0.00  0.00    +0.063 C 
BRANCH   7   8
ATOM      8  N   ASP A   1      35.957 -21.923 -19.004  0.00  0.00    +0.390 N 
ATOM      9  H1  ASP A   1      35.937 -22.899 -19.298  0.00  0.00    -0.088 HD
ATOM     10  H2  ASP A   1      36.308 -21.862 -18.049  0.00  0.00    -0.088 HD
ATOM     11  H3  ASP A   1      36.568 -21.394 -19.626  0.00  0.00    -0.088 HD
ENDBRANCH   7   8
BRANCH   7  13
ATOM     12  OXT ASP A   1      32.582 -22.518 -18.320  0.00  0.00    -0.253 OA
ATOM     13  C   ASP A   1      33.640 -22.537 -18.937  0.00  0.00    +0.295 C 
BRANCH  13  14
ATOM     14  O   ASP A   1      34.072 -23.631 -19.616  0.00  0.00    -0.482 OA
ATOM     15  H   ASP A   1      34.930 -23.973 -19.459  0.00  0.00    +0.295 HD
ENDBRANCH  13  14
ENDBRANCH   7  13
ENDBRANCH   5   7
ENDBRANCH   4   5
ENDBRANCH   1   4
BRANCH   1  16
ATOM     16  CB  ASP A   1      35.558 -18.543 -22.658  0.00  0.00    +0.050 C 
BRANCH  16  17
ATOM     17  CA  ASP A   1      34.613 -18.234 -23.829  0.00  0.00    +0.041 C 
BRANCH  17  18
ATOM     18  N   ASP A   1      34.679 -19.313 -24.812  0.00  0.00    +0.389 N 
ATOM     19  H1  ASP A   1      34.396 -18.958 -25.725  0.00  0.00    -0.088 HD
ATOM     20  H2  ASP A   1      34.054 -20.068 -24.531  0.00  0.00    -0.088 HD
ATOM     21  H3  ASP A   1      35.635 -19.665 -24.865  0.00  0.00    -0.088 HD
ENDBRANCH  17  18
BRANCH  17  23
ATOM     22  OXT ASP A   1      34.775 -16.727 -25.737  0.00  0.00    -0.253 OA
ATOM     23  C   ASP A   1      34.997 -16.958 -24.555  0.00  0.00    +0.293 C 
BRANCH  23  24
ATOM     24  O   ASP A   1      35.605 -16.062 -23.732  0.00  0.00    -0.482 OA
ATOM     25  H   ASP A   1      35.455 -16.100 -22.808  0.00  0.00    +0.295 HD
ENDBRANCH  23  24
ENDBRANCH  17  23
ENDBRANCH  16  17
ENDBRANCH   1  16
TORSDOF 12
ENDMDL
MODEL 8
REMARK VINA RESULT:      -6.5      2.261      4.714
REMARK  Name = 17753823
REMARK  12 active torsions:
REMARK  status: ('A' for Active; 'I' for Inactive)
REMARK    1  A    between atoms: CG_1  and  OD2_2
REMARK    2  A    between atoms: CG_1  and  OD1_4
REMARK    3  A    between atoms: CG_1  and  CB_16
REMARK    4  A    between atoms: OD1_4  and  CB_5
REMARK    5  A    between atoms: CB_5  and  CA_7
REMARK    6  A    between atoms: CA_7  and  N_8
REMARK    7  A    between atoms: CA_7  and  C_13
REMARK    8  A    between atoms: C_13  and  O_14
REMARK    9  A    between atoms: CB_16  and  CA_17
REMARK   10  A    between atoms: CA_17  and  N_18
REMARK   11  A    between atoms: CA_17  and  C_23
REMARK   12  A    between atoms: C_23  and  O_24
REMARK                            x       y       z     vdW  Elec       q    Type
REMARK                         _______ _______ _______ _____ _____    ______ ____
ROOT
ATOM      1  CG  ASP A   1      37.041 -23.395 -15.230  0.00  0.00    +0.230 C 
ENDROOT
BRANCH   1   2
ATOM      2  OD2 ASP A   1      36.740 -23.200 -16.610  0.00  0.00    -0.360 OA
ATOM      3  HD2 ASP A   1      36.401 -22.300 -16.743  0.00  0.00    +0.213 HD
ENDBRANCH   1   2
BRANCH   1   4
ATOM      4  OD1 ASP A   1      37.410 -24.746 -14.950  0.00  0.00    -0.335 OA
BRANCH   4   5
ATOM      5  CB  ASP A   1      38.567 -24.835 -14.131  0.00  0.00    +0.108 C 
ATOM      6  CG2 ASP A   1      39.581 -25.716 -14.850  0.00  0.00    +0.030 C 
BRANCH   5   7
ATOM      7  CA  ASP A   1      38.208 -25.350 -12.728  0.00  0.00    +0.063 C 
BRANCH   7   8
ATOM      8  N   ASP A   1      36.985 -26.157 -12.788  0.00  0.00    +0.390 N 
ATOM      9  H1  ASP A   1      36.862 -26.518 -13.735  0.00  0.00    -0.088 HD
ATOM     10  H2  ASP A   1      36.184 -25.578 -12.537  0.00  0.00    -0.088 HD
ATOM     11  H3  ASP A   1      37.060 -26.937 -12.135  0.00  0.00    -0.088 HD
ENDBRANCH   7   8
BRANCH   7  13
ATOM     12  OXT ASP A   1      38.561 -23.166 -11.699  0.00  0.00    -0.253 OA
ATOM     13  C   ASP A   1      37.942 -24.222 -11.744  0.00  0.00    +0.295 C 
BRANCH  13  14
ATOM     14  O   ASP A   1      36.906 -24.500 -10.912  0.00  0.00    -0.482 OA
ATOM     15  H   ASP A   1      36.390 -25.269 -11.047  0.00  0.00    +0.295 HD
ENDBRANCH  13  14
ENDBRANCH   7  13
ENDBRANCH   5   7
ENDBRANCH   4   5
ENDBRANCH   1   4
BRANCH   1  16
ATOM     16  CB  ASP A   1      35.768 -23.066 -14.438  0.00  0.00    +0.050 C 
BRANCH  16  17
ATOM     17  CA  ASP A   1      34.613 -24.045 -14.698  0.00  0.00    +0.041 C 
BRANCH  17  18
ATOM     18  N   ASP A   1      33.738 -23.508 -15.739  0.00  0.00    +0.389 N 
ATOM     19  H1  ASP A   1      34.306 -23.112 -16.489  0.00  0.00    -0.088 HD
ATOM     20  H2  ASP A   1      33.143 -22.782 -15.342  0.00  0.00    -0.088 HD
ATOM     21  H3  ASP A   1      33.157 -24.258 -16.113  0.00  0.00    -0.088 HD
ENDBRANCH  17  18
BRANCH  17  23
ATOM     22  OXT ASP A   1      32.543 -24.048 -13.412  0.00  0.00    -0.253 OA
ATOM     23  C   ASP A   1      33.749 -24.253 -13.468  0.00  0.00    +0.293 C 
BRANCH  23  24
ATOM     24  O   ASP A   1      34.463 -24.729 -12.414  0.00  0.00    -0.482 OA
ATOM     25  H   ASP A   1      34.814 -24.135 -11.779  0.00  0.00    +0.295 HD
ENDBRANCH  23  24
ENDBRANCH  17  23
ENDBRANCH  16  17
ENDBRANCH   1  16
TORSDOF 12
ENDMDL
MODEL 9
REMARK VINA RESULT:      -6.4      2.152      3.969
REMARK  Name = 17753823
REMARK  12 active torsions:
REMARK  status: ('A' for Active; 'I' for Inactive)
REMARK    1  A    between atoms: CG_1  and  OD2_2
REMARK    2  A    between atoms: CG_1  and  OD1_4
REMARK    3  A    between atoms: CG_1  and  CB_16
REMARK    4  A    between atoms: OD1_4  and  CB_5
REMARK    5  A    between atoms: CB_5  and  CA_7
REMARK    6  A    between atoms: CA_7  and  N_8
REMARK    7  A    between atoms: CA_7  and  C_13
REMARK    8  A    between atoms: C_13  and  O_14
REMARK    9  A    between atoms: CB_16  and  CA_17
REMARK   10  A    between atoms: CA_17  and  N_18
REMARK   11  A    between atoms: CA_17  and  C_23
REMARK   12  A    between atoms: C_23  and  O_24
REMARK                            x       y       z     vdW  Elec       q    Type
REMARK                         _______ _______ _______ _____ _____    ______ ____
ROOT
ATOM      1  CG  ASP A   1      38.512 -24.725 -14.732  0.00  0.00    +0.230 C 
ENDROOT
BRANCH   1   2
ATOM      2  OD2 ASP A   1      39.737 -24.544 -15.439  0.00  0.00    -0.360 OA
ATOM      3  HD2 ASP A   1      40.350 -24.022 -14.896  0.00  0.00    +0.213 HD
ENDBRANCH   1   2
BRANCH   1   4
ATOM      4  OD1 ASP A   1      37.850 -23.485 -14.485  0.00  0.00    -0.335 OA
BRANCH   4   5
ATOM      5  CB  ASP A   1      36.939 -23.139 -15.520  0.00  0.00    +0.108 C 
ATOM      6  CG2 ASP A   1      37.491 -21.912 -16.236  0.00  0.00    +0.030 C 
BRANCH   5   7
ATOM      7  CA  ASP A   1      35.525 -22.924 -14.958  0.00  0.00    +0.063 C 
BRANCH   7   8
ATOM      8  N   ASP A   1      35.536 -23.086 -13.500  0.00  0.00    +0.390 N 
ATOM      9  H1  ASP A   1      35.990 -22.278 -13.072  0.00  0.00    -0.088 HD
ATOM     10  H2  ASP A   1      36.048 -23.933 -13.256  0.00  0.00    -0.088 HD
ATOM     11  H3  ASP A   1      34.578 -23.157 -13.159  0.00  0.00    -0.088 HD
ENDBRANCH   7   8
BRANCH   7  13
ATOM     12  OXT ASP A   1      33.330 -23.711 -15.674  0.00  0.00    -0.253 OA
ATOM     13  C   ASP A   1      34.523 -23.928 -15.504  0.00  0.00    +0.295 C 
BRANCH  13  14
ATOM     14  O   ASP A   1      35.102 -25.117 -15.814  0.00  0.00    -0.482 OA
ATOM     15  H   ASP A   1      35.049 -25.835 -15.215  0.00  0.00    +0.295 HD
ENDBRANCH  13  14
ENDBRANCH   7  13
ENDBRANCH   5   7
ENDBRANCH   4   5
ENDBRANCH   1   4
BRANCH   1  16
ATOM     16  CB  ASP A   1      38.860 -25.367 -13.382  0.00  0.00    +0.050 C 
BRANCH  16  17
ATOM     17  CA  ASP A   1      37.669 -26.069 -12.711  0.00  0.00    +0.041 C 
BRANCH  17  18
ATOM     18  N   ASP A   1      36.678 -26.430 -13.722  0.00  0.00    +0.389 N 
ATOM     19  H1  ASP A   1      35.886 -25.789 -13.666  0.00  0.00    -0.088 HD
ATOM     20  H2  ASP A   1      36.356 -27.384 -13.557  0.00  0.00    -0.088 HD
ATOM     21  H3  ASP A   1      37.100 -26.369 -14.648  0.00  0.00    -0.088 HD
ENDBRANCH  17  18
BRANCH  17  23
ATOM     22  OXT ASP A   1      35.842 -25.365 -11.260  0.00  0.00    -0.253 OA
ATOM     23  C   ASP A   1      36.964 -25.171 -11.710  0.00  0.00    +0.293 C 
BRANCH  23  24
ATOM     24  O   ASP A   1      37.737 -24.118 -11.332  0.00  0.00    -0.482 OA
ATOM     25  H   ASP A   1      37.650 -23.294 -11.769  0.00  0.00    +0.295 HD
ENDBRANCH  23  24
ENDBRANCH  17  23
ENDBRANCH  16  17
ENDBRANCH   1  16
TORSDOF 12
ENDMDL
