MODEL 1
REMARK VINA RESULT:      -6.3      0.000      0.000
REMARK  Name = 688267
REMARK  5 active torsions:
REMARK  status: ('A' for Active; 'I' for Inactive)
REMARK    1  A    between atoms: C_3  and  C_9
REMARK    2  A    between atoms: C_7  and  C_12
REMARK    3  A    between atoms: C_9  and  O_10
REMARK    4  A    between atoms: C_12  and  C_14
REMARK    5  A    between atoms: C_14  and  S_15
REMARK                            x       y       z     vdW  Elec       q    Type
REMARK                         _______ _______ _______ _____ _____    ______ ____
ROOT
ATOM      1  O   UNL     1      35.156 -16.702 -20.342  0.00  0.00    -0.275 OA
ATOM      2  N   UNL     1      34.487 -16.046 -22.458  0.00  0.00    -0.271 N 
ATOM      3  C   UNL     1      34.194 -14.659 -22.117  0.00  0.00    +0.174 C 
ATOM      4  C   UNL     1      34.086 -13.945 -23.460  0.00  0.00    +0.033 C 
ATOM      5  C   UNL     1      33.603 -15.041 -24.407  0.00  0.00    +0.024 C 
ATOM      6  C   UNL     1      34.304 -16.287 -23.886  0.00  0.00    +0.094 C 
ATOM      7  C   UNL     1      35.017 -16.941 -21.543  0.00  0.00    +0.226 C 
ENDROOT
BRANCH   3   9
ATOM      8  O   UNL     1      32.103 -15.585 -21.332  0.00  0.00    -0.248 OA
ATOM      9  C   UNL     1      32.890 -14.651 -21.376  0.00  0.00    +0.332 C 
BRANCH   9  10
ATOM     10  O   UNL     1      32.697 -13.460 -20.759  0.00  0.00    -0.479 OA
ATOM     11  H   UNL     1      31.841 -13.217 -20.466  0.00  0.00    +0.295 HD
ENDBRANCH   9  10
ENDBRANCH   3   9
BRANCH   7  12
ATOM     12  C   UNL     1      35.424 -18.280 -22.105  0.00  0.00    +0.087 C 
ATOM     13  C   UNL     1      36.582 -18.799 -21.260  0.00  0.00    +0.010 C 
BRANCH  12  14
ATOM     14  C   UNL     1      34.251 -19.257 -22.083  0.00  0.00    +0.062 C 
BRANCH  14  15
ATOM     15  S   UNL     1      34.208 -20.233 -20.548  0.00  0.00    -0.167 S 
ATOM     16  H   UNL     1      32.955 -20.193 -20.020  0.00  0.00    +0.102 HD
ENDBRANCH  14  15
ENDBRANCH  12  14
ENDBRANCH   7  12
TORSDOF 5
ENDMDL
MODEL 2
REMARK VINA RESULT:      -6.3     10.111     12.478
REMARK  Name = 688267
REMARK  5 active torsions:
REMARK  status: ('A' for Active; 'I' for Inactive)
REMARK    1  A    between atoms: C_3  and  C_9
REMARK    2  A    between atoms: C_7  and  C_12
REMARK    3  A    between atoms: C_9  and  O_10
REMARK    4  A    between atoms: C_12  and  C_14
REMARK    5  A    between atoms: C_14  and  S_15
REMARK                            x       y       z     vdW  Elec       q    Type
REMARK                         _______ _______ _______ _____ _____    ______ ____
ROOT
ATOM      1  O   UNL     1      35.739 -25.421 -15.613  0.00  0.00    -0.275 OA
ATOM      2  N   UNL     1      36.421 -24.274 -13.722  0.00  0.00    -0.271 N 
ATOM      3  C   UNL     1      37.631 -25.052 -13.483  0.00  0.00    +0.174 C 
ATOM      4  C   UNL     1      38.433 -24.223 -12.487  0.00  0.00    +0.033 C 
ATOM      5  C   UNL     1      37.360 -23.465 -11.709  0.00  0.00    +0.024 C 
ATOM      6  C   UNL     1      36.300 -23.180 -12.762  0.00  0.00    +0.094 C 
ATOM      7  C   UNL     1      35.607 -24.485 -14.823  0.00  0.00    +0.226 C 
ENDROOT
BRANCH   3   9
ATOM      8  O   UNL     1      36.964 -26.561 -11.715  0.00  0.00    -0.248 OA
ATOM      9  C   UNL     1      37.204 -26.365 -12.897  0.00  0.00    +0.332 C 
BRANCH   9  10
ATOM     10  O   UNL     1      37.120 -27.314 -13.860  0.00  0.00    -0.479 OA
ATOM     11  H   UNL     1      36.295 -27.506 -14.259  0.00  0.00    +0.295 HD
ENDBRANCH   9  10
ENDBRANCH   3   9
BRANCH   7  12
ATOM     12  C   UNL     1      34.499 -23.480 -15.013  0.00  0.00    +0.087 C 
ATOM     13  C   UNL     1      34.445 -23.130 -16.495  0.00  0.00    +0.010 C 
BRANCH  12  14
ATOM     14  C   UNL     1      33.163 -24.047 -14.537  0.00  0.00    +0.062 C 
BRANCH  14  15
ATOM     15  S   UNL     1      31.775 -23.467 -15.562  0.00  0.00    -0.167 S 
ATOM     16  H   UNL     1      32.257 -22.926 -16.713  0.00  0.00    +0.102 HD
ENDBRANCH  14  15
ENDBRANCH  12  14
ENDBRANCH   7  12
TORSDOF 5
ENDMDL
MODEL 3
REMARK VINA RESULT:      -6.3      1.617      2.055
REMARK  Name = 688267
REMARK  5 active torsions:
REMARK  status: ('A' for Active; 'I' for Inactive)
REMARK    1  A    between atoms: C_3  and  C_9
REMARK    2  A    between atoms: C_7  and  C_12
REMARK    3  A    between atoms: C_9  and  O_10
REMARK    4  A    between atoms: C_12  and  C_14
REMARK    5  A    between atoms: C_14  and  S_15
REMARK                            x       y       z     vdW  Elec       q    Type
REMARK                         _______ _______ _______ _____ _____    ______ ____
ROOT
ATOM      1  O   UNL     1      35.471 -17.567 -20.549  0.00  0.00    -0.275 OA
ATOM      2  N   UNL     1      34.864 -17.761 -22.774  0.00  0.00    -0.271 N 
ATOM      3  C   UNL     1      35.224 -16.404 -23.164  0.00  0.00    +0.174 C 
ATOM      4  C   UNL     1      35.248 -16.433 -24.688  0.00  0.00    +0.033 C 
ATOM      5  C   UNL     1      34.232 -17.517 -25.039  0.00  0.00    +0.024 C 
ATOM      6  C   UNL     1      34.411 -18.538 -23.925  0.00  0.00    +0.094 C 
ATOM      7  C   UNL     1      35.089 -18.254 -21.498  0.00  0.00    +0.226 C 
ENDROOT
BRANCH   3   9
ATOM      8  O   UNL     1      33.108 -15.236 -23.220  0.00  0.00    -0.248 OA
ATOM      9  C   UNL     1      34.153 -15.495 -22.641  0.00  0.00    +0.332 C 
BRANCH   9  10
ATOM     10  O   UNL     1      34.501 -14.991 -21.433  0.00  0.00    -0.479 OA
ATOM     11  H   UNL     1      35.322 -15.223 -21.047  0.00  0.00    +0.295 HD
ENDBRANCH   9  10
ENDBRANCH   3   9
BRANCH   7  12
ATOM     12  C   UNL     1      34.822 -19.726 -21.314  0.00  0.00    +0.087 C 
ATOM     13  C   UNL     1      35.948 -20.292 -20.456  0.00  0.00    +0.010 C 
BRANCH  12  14
ATOM     14  C   UNL     1      33.464 -19.954 -20.652  0.00  0.00    +0.062 C 
BRANCH  14  15
ATOM     15  S   UNL     1      33.479 -21.405 -19.554  0.00  0.00    -0.167 S 
ATOM     16  H   UNL     1      34.742 -21.613 -19.095  0.00  0.00    +0.102 HD
ENDBRANCH  14  15
ENDBRANCH  12  14
ENDBRANCH   7  12
TORSDOF 5
ENDMDL
MODEL 4
REMARK VINA RESULT:      -6.2     10.284     11.045
REMARK  Name = 688267
REMARK  5 active torsions:
REMARK  status: ('A' for Active; 'I' for Inactive)
REMARK    1  A    between atoms: C_3  and  C_9
REMARK    2  A    between atoms: C_7  and  C_12
REMARK    3  A    between atoms: C_9  and  O_10
REMARK    4  A    between atoms: C_12  and  C_14
REMARK    5  A    between atoms: C_14  and  S_15
REMARK                            x       y       z     vdW  Elec       q    Type
REMARK                         _______ _______ _______ _____ _____    ______ ____
ROOT
ATOM      1  O   UNL     1      33.804 -24.356 -13.140  0.00  0.00    -0.275 OA
ATOM      2  N   UNL     1      32.454 -23.677 -14.893  0.00  0.00    -0.271 N 
ATOM      3  C   UNL     1      31.251 -23.457 -14.101  0.00  0.00    +0.174 C 
ATOM      4  C   UNL     1      30.332 -22.648 -15.009  0.00  0.00    +0.033 C 
ATOM      5  C   UNL     1      30.741 -23.089 -16.412  0.00  0.00    +0.024 C 
ATOM      6  C   UNL     1      32.243 -23.302 -16.288  0.00  0.00    +0.094 C 
ATOM      7  C   UNL     1      33.663 -24.045 -14.324  0.00  0.00    +0.226 C 
ENDROOT
BRANCH   3   9
ATOM      8  O   UNL     1      30.523 -25.709 -14.595  0.00  0.00    -0.248 OA
ATOM      9  C   UNL     1      30.675 -24.806 -13.787  0.00  0.00    +0.332 C 
BRANCH   9  10
ATOM     10  O   UNL     1      30.341 -24.891 -12.477  0.00  0.00    -0.479 OA
ATOM     11  H   UNL     1      29.612 -24.403 -12.146  0.00  0.00    +0.295 HD
ENDBRANCH   9  10
ENDBRANCH   3   9
BRANCH   7  12
ATOM     12  C   UNL     1      34.845 -24.057 -15.260  0.00  0.00    +0.087 C 
ATOM     13  C   UNL     1      35.656 -22.795 -14.991  0.00  0.00    +0.010 C 
BRANCH  12  14
ATOM     14  C   UNL     1      35.694 -25.308 -15.047  0.00  0.00    +0.062 C 
BRANCH  14  15
ATOM     15  S   UNL     1      37.433 -24.897 -14.701  0.00  0.00    -0.167 S 
ATOM     16  H   UNL     1      37.767 -25.344 -13.460  0.00  0.00    +0.102 HD
ENDBRANCH  14  15
ENDBRANCH  12  14
ENDBRANCH   7  12
TORSDOF 5
ENDMDL
MODEL 5
REMARK VINA RESULT:      -6.1     10.563     12.423
REMARK  Name = 688267
REMARK  5 active torsions:
REMARK  status: ('A' for Active; 'I' for Inactive)
REMARK    1  A    between atoms: C_3  and  C_9
REMARK    2  A    between atoms: C_7  and  C_12
REMARK    3  A    between atoms: C_9  and  O_10
REMARK    4  A    between atoms: C_12  and  C_14
REMARK    5  A    between atoms: C_14  and  S_15
REMARK                            x       y       z     vdW  Elec       q    Type
REMARK                         _______ _______ _______ _____ _____    ______ ____
ROOT
ATOM      1  O   UNL     1      34.257 -23.886 -12.120  0.00  0.00    -0.275 OA
ATOM      2  N   UNL     1      36.082 -24.719 -13.273  0.00  0.00    -0.271 N 
ATOM      3  C   UNL     1      36.965 -24.845 -12.121  0.00  0.00    +0.174 C 
ATOM      4  C   UNL     1      38.109 -25.728 -12.603  0.00  0.00    +0.033 C 
ATOM      5  C   UNL     1      38.178 -25.433 -14.100  0.00  0.00    +0.024 C 
ATOM      6  C   UNL     1      36.721 -25.227 -14.484  0.00  0.00    +0.094 C 
ATOM      7  C   UNL     1      34.762 -24.311 -13.160  0.00  0.00    +0.226 C 
ENDROOT
BRANCH   3   9
ATOM      8  O   UNL     1      38.120 -22.754 -12.493  0.00  0.00    -0.248 OA
ATOM      9  C   UNL     1      37.437 -23.465 -11.772  0.00  0.00    +0.332 C 
BRANCH   9  10
ATOM     10  O   UNL     1      37.003 -23.108 -10.539  0.00  0.00    -0.479 OA
ATOM     11  H   UNL     1      36.810 -22.210 -10.351  0.00  0.00    +0.295 HD
ENDBRANCH   9  10
ENDBRANCH   3   9
BRANCH   7  12
ATOM     12  C   UNL     1      33.942 -24.406 -14.422  0.00  0.00    +0.087 C 
ATOM     13  C   UNL     1      32.500 -24.678 -14.012  0.00  0.00    +0.010 C 
BRANCH  12  14
ATOM     14  C   UNL     1      34.046 -23.117 -15.235  0.00  0.00    +0.062 C 
BRANCH  14  15
ATOM     15  S   UNL     1      33.360 -23.313 -16.909  0.00  0.00    -0.167 S 
ATOM     16  H   UNL     1      32.369 -22.402 -17.103  0.00  0.00    +0.102 HD
ENDBRANCH  14  15
ENDBRANCH  12  14
ENDBRANCH   7  12
TORSDOF 5
ENDMDL
MODEL 6
REMARK VINA RESULT:      -5.9      3.244      4.878
REMARK  Name = 688267
REMARK  5 active torsions:
REMARK  status: ('A' for Active; 'I' for Inactive)
REMARK    1  A    between atoms: C_3  and  C_9
REMARK    2  A    between atoms: C_7  and  C_12
REMARK    3  A    between atoms: C_9  and  O_10
REMARK    4  A    between atoms: C_12  and  C_14
REMARK    5  A    between atoms: C_14  and  S_15
REMARK                            x       y       z     vdW  Elec       q    Type
REMARK                         _______ _______ _______ _____ _____    ______ ____
ROOT
ATOM      1  O   UNL     1      34.861 -15.948 -24.577  0.00  0.00    -0.275 OA
ATOM      2  N   UNL     1      33.827 -15.389 -22.584  0.00  0.00    -0.271 N 
ATOM      3  C   UNL     1      34.766 -16.079 -21.709  0.00  0.00    +0.174 C 
ATOM      4  C   UNL     1      34.476 -15.528 -20.318  0.00  0.00    +0.033 C 
ATOM      5  C   UNL     1      32.995 -15.161 -20.383  0.00  0.00    +0.024 C 
ATOM      6  C   UNL     1      32.819 -14.667 -21.811  0.00  0.00    +0.094 C 
ATOM      7  C   UNL     1      33.998 -15.323 -23.958  0.00  0.00    +0.226 C 
ENDROOT
BRANCH   3   9
ATOM      8  O   UNL     1      33.620 -18.129 -21.137  0.00  0.00    -0.248 OA
ATOM      9  C   UNL     1      34.461 -17.544 -21.802  0.00  0.00    +0.332 C 
BRANCH   9  10
ATOM     10  O   UNL     1      35.252 -18.140 -22.726  0.00  0.00    -0.479 OA
ATOM     11  H   UNL     1      36.144 -18.341 -22.521  0.00  0.00    +0.295 HD
ENDBRANCH   9  10
ENDBRANCH   3   9
BRANCH   7  12
ATOM     12  C   UNL     1      33.036 -14.424 -24.691  0.00  0.00    +0.087 C 
ATOM     13  C   UNL     1      33.546 -12.995 -24.552  0.00  0.00    +0.010 C 
BRANCH  12  14
ATOM     14  C   UNL     1      32.930 -14.826 -26.161  0.00  0.00    +0.062 C 
BRANCH  14  15
ATOM     15  S   UNL     1      33.297 -13.433 -27.274  0.00  0.00    -0.167 S 
ATOM     16  H   UNL     1      32.158 -12.729 -27.510  0.00  0.00    +0.102 HD
ENDBRANCH  14  15
ENDBRANCH  12  14
ENDBRANCH   7  12
TORSDOF 5
ENDMDL
MODEL 7
REMARK VINA RESULT:      -5.9      3.216      4.767
REMARK  Name = 688267
REMARK  5 active torsions:
REMARK  status: ('A' for Active; 'I' for Inactive)
REMARK    1  A    between atoms: C_3  and  C_9
REMARK    2  A    between atoms: C_7  and  C_12
REMARK    3  A    between atoms: C_9  and  O_10
REMARK    4  A    between atoms: C_12  and  C_14
REMARK    5  A    between atoms: C_14  and  S_15
REMARK                            x       y       z     vdW  Elec       q    Type
REMARK                         _______ _______ _______ _____ _____    ______ ____
ROOT
ATOM      1  O   UNL     1      34.337 -14.771 -23.752  0.00  0.00    -0.275 OA
ATOM      2  N   UNL     1      34.448 -16.844 -22.729  0.00  0.00    -0.271 N 
ATOM      3  C   UNL     1      35.393 -17.441 -23.664  0.00  0.00    +0.174 C 
ATOM      4  C   UNL     1      35.890 -18.699 -22.961  0.00  0.00    +0.033 C 
ATOM      5  C   UNL     1      34.713 -19.100 -22.076  0.00  0.00    +0.024 C 
ATOM      6  C   UNL     1      34.132 -17.764 -21.640  0.00  0.00    +0.094 C 
ATOM      7  C   UNL     1      34.051 -15.519 -22.815  0.00  0.00    +0.226 C 
ENDROOT
BRANCH   3   9
ATOM      8  O   UNL     1      33.946 -18.763 -25.079  0.00  0.00    -0.248 OA
ATOM      9  C   UNL     1      34.632 -17.766 -24.915  0.00  0.00    +0.332 C 
BRANCH   9  10
ATOM     10  O   UNL     1      34.810 -16.801 -25.848  0.00  0.00    -0.479 OA
ATOM     11  H   UNL     1      34.118 -16.589 -26.442  0.00  0.00    +0.295 HD
ENDBRANCH   9  10
ENDBRANCH   3   9
BRANCH   7  12
ATOM     12  C   UNL     1      33.210 -15.016 -21.669  0.00  0.00    +0.087 C 
ATOM     13  C   UNL     1      34.159 -14.609 -20.548  0.00  0.00    +0.010 C 
BRANCH  12  14
ATOM     14  C   UNL     1      32.343 -13.837 -22.107  0.00  0.00    +0.062 C 
BRANCH  14  15
ATOM     15  S   UNL     1      32.012 -12.691 -20.733  0.00  0.00    -0.167 S 
ATOM     16  H   UNL     1      31.841 -11.434 -21.223  0.00  0.00    +0.102 HD
ENDBRANCH  14  15
ENDBRANCH  12  14
ENDBRANCH   7  12
TORSDOF 5
ENDMDL
MODEL 8
REMARK VINA RESULT:      -5.7     10.298     11.476
REMARK  Name = 688267
REMARK  5 active torsions:
REMARK  status: ('A' for Active; 'I' for Inactive)
REMARK    1  A    between atoms: C_3  and  C_9
REMARK    2  A    between atoms: C_7  and  C_12
REMARK    3  A    between atoms: C_9  and  O_10
REMARK    4  A    between atoms: C_12  and  C_14
REMARK    5  A    between atoms: C_14  and  S_15
REMARK                            x       y       z     vdW  Elec       q    Type
REMARK                         _______ _______ _______ _____ _____    ______ ____
ROOT
ATOM      1  O   UNL     1      32.563 -24.665 -13.376  0.00  0.00    -0.275 OA
ATOM      2  N   UNL     1      34.413 -23.730 -14.404  0.00  0.00    -0.271 N 
ATOM      3  C   UNL     1      35.399 -24.634 -13.828  0.00  0.00    +0.174 C 
ATOM      4  C   UNL     1      36.654 -24.424 -14.667  0.00  0.00    +0.033 C 
ATOM      5  C   UNL     1      36.532 -22.975 -15.133  0.00  0.00    +0.024 C 
ATOM      6  C   UNL     1      35.035 -22.802 -15.345  0.00  0.00    +0.094 C 
ATOM      7  C   UNL     1      33.053 -23.870 -14.180  0.00  0.00    +0.226 C 
ENDROOT
BRANCH   3   9
ATOM      8  O   UNL     1      36.261 -23.247 -12.045  0.00  0.00    -0.248 OA
ATOM      9  C   UNL     1      35.606 -24.214 -12.403  0.00  0.00    +0.332 C 
BRANCH   9  10
ATOM     10  O   UNL     1      34.966 -25.058 -11.558  0.00  0.00    -0.479 OA
ATOM     11  H   UNL     1      34.900 -25.969 -11.766  0.00  0.00    +0.295 HD
ENDBRANCH   9  10
ENDBRANCH   3   9
BRANCH   7  12
ATOM     12  C   UNL     1      32.163 -22.962 -14.991  0.00  0.00    +0.087 C 
ATOM     13  C   UNL     1      32.060 -23.553 -16.392  0.00  0.00    +0.010 C 
BRANCH  12  14
ATOM     14  C   UNL     1      30.783 -22.837 -14.348  0.00  0.00    +0.062 C 
BRANCH  14  15
ATOM     15  S   UNL     1      29.455 -23.331 -15.490  0.00  0.00    -0.167 S 
ATOM     16  H   UNL     1      29.977 -24.090 -16.491  0.00  0.00    +0.102 HD
ENDBRANCH  14  15
ENDBRANCH  12  14
ENDBRANCH   7  12
TORSDOF 5
ENDMDL
MODEL 9
REMARK VINA RESULT:      -5.7      9.300     10.575
REMARK  Name = 688267
REMARK  5 active torsions:
REMARK  status: ('A' for Active; 'I' for Inactive)
REMARK    1  A    between atoms: C_3  and  C_9
REMARK    2  A    between atoms: C_7  and  C_12
REMARK    3  A    between atoms: C_9  and  O_10
REMARK    4  A    between atoms: C_12  and  C_14
REMARK    5  A    between atoms: C_14  and  S_15
REMARK                            x       y       z     vdW  Elec       q    Type
REMARK                         _______ _______ _______ _____ _____    ______ ____
ROOT
ATOM      1  O   UNL     1      33.244 -23.148 -16.964  0.00  0.00    -0.275 OA
ATOM      2  N   UNL     1      32.153 -24.022 -15.120  0.00  0.00    -0.271 N 
ATOM      3  C   UNL     1      30.867 -24.233 -15.772  0.00  0.00    +0.174 C 
ATOM      4  C   UNL     1      30.101 -25.151 -14.827  0.00  0.00    +0.033 C 
ATOM      5  C   UNL     1      30.670 -24.803 -13.454  0.00  0.00    +0.024 C 
ATOM      6  C   UNL     1      32.134 -24.514 -13.745  0.00  0.00    +0.094 C 
ATOM      7  C   UNL     1      33.266 -23.557 -15.802  0.00  0.00    +0.226 C 
ENDROOT
BRANCH   3   9
ATOM      8  O   UNL     1      29.590 -22.327 -15.010  0.00  0.00    -0.248 OA
ATOM      9  C   UNL     1      30.210 -22.891 -15.899  0.00  0.00    +0.332 C 
BRANCH   9  10
ATOM     10  O   UNL     1      30.393 -22.384 -17.142  0.00  0.00    -0.479 OA
ATOM     11  H   UNL     1      29.654 -22.195 -17.685  0.00  0.00    +0.295 HD
ENDBRANCH   9  10
ENDBRANCH   3   9
BRANCH   7  12
ATOM     12  C   UNL     1      34.557 -23.564 -15.022  0.00  0.00    +0.087 C 
ATOM     13  C   UNL     1      35.160 -24.958 -15.147  0.00  0.00    +0.010 C 
BRANCH  12  14
ATOM     14  C   UNL     1      35.518 -22.502 -15.553  0.00  0.00    +0.062 C 
BRANCH  14  15
ATOM     15  S   UNL     1      37.245 -23.076 -15.525  0.00  0.00    -0.167 S 
ATOM     16  H   UNL     1      37.297 -24.333 -15.008  0.00  0.00    +0.102 HD
ENDBRANCH  14  15
ENDBRANCH  12  14
ENDBRANCH   7  12
TORSDOF 5
ENDMDL
