MODEL 1
REMARK VINA RESULT:      -7.6      0.000      0.000
REMARK  Name = 441350
REMARK  6 active torsions:
REMARK  status: ('A' for Active; 'I' for Inactive)
REMARK    1  A    between atoms: C_1  and  N_3
REMARK    2  A    between atoms: C_1  and  C_8
REMARK    3  A    between atoms: C_1  and  C_11
REMARK    4  A    between atoms: C_8  and  O_9
REMARK    5  A    between atoms: C_11  and  C_12
REMARK    6  A    between atoms: C_17  and  O_18
REMARK                            x       y       z     vdW  Elec       q    Type
REMARK                         _______ _______ _______ _____ _____    ______ ____
ROOT
ATOM      1  C   UNL     1      35.135 -18.150 -23.096  0.00  0.00    +0.047 C 
ATOM      2  C   UNL     1      34.793 -19.425 -23.882  0.00  0.00    -0.011 C 
ENDROOT
BRANCH   1   3
ATOM      3  N   UNL     1      36.587 -18.183 -22.863  0.00  0.00    +0.390 N 
ATOM      4  H   UNL     1      37.014 -18.880 -23.473  0.00  0.00    -0.088 HD
ATOM      5  H   UNL     1      36.770 -18.425 -21.889  0.00  0.00    -0.088 HD
ATOM      6  H   UNL     1      36.984 -17.266 -23.065  0.00  0.00    -0.088 HD
ENDBRANCH   1   3
BRANCH   1   8
ATOM      7  O   UNL     1      34.071 -16.901 -24.903  0.00  0.00    -0.253 OA
ATOM      8  C   UNL     1      34.837 -16.911 -23.946  0.00  0.00    +0.295 C 
BRANCH   8   9
ATOM      9  O   UNL     1      35.514 -15.800 -23.555  0.00  0.00    -0.482 OA
ATOM     10  H   UNL     1      35.727 -15.676 -22.651  0.00  0.00    +0.295 HD
ENDBRANCH   8   9
ENDBRANCH   1   8
BRANCH   1  11
ATOM     11  C   UNL     1      34.415 -18.105 -21.725  0.00  0.00    +0.017 C 
BRANCH  11  12
ATOM     12  C   UNL     1      34.437 -19.395 -20.935  0.00  0.00    -0.023 C 
ATOM     13  C   UNL     1      33.240 -19.990 -20.577  0.00  0.00    -0.001 C 
ATOM     14  C   UNL     1      35.656 -19.952 -20.586  0.00  0.00    -0.001 C 
ATOM     15  C   UNL     1      33.261 -21.178 -19.847  0.00  0.00    +0.036 C 
ATOM     16  C   UNL     1      35.677 -21.140 -19.857  0.00  0.00    +0.036 C 
ATOM     17  C   UNL     1      34.480 -21.754 -19.488  0.00  0.00    +0.134 C 
BRANCH  17  18
ATOM     18  O   UNL     1      34.499 -22.914 -18.776  0.00  0.00    -0.506 OA
ATOM     19  H   UNL     1      35.007 -23.641 -19.078  0.00  0.00    +0.292 HD
ENDBRANCH  17  18
ENDBRANCH  11  12
ENDBRANCH   1  11
TORSDOF 6
ENDMDL
MODEL 2
REMARK VINA RESULT:      -7.0      1.266      1.908
REMARK  Name = 441350
REMARK  6 active torsions:
REMARK  status: ('A' for Active; 'I' for Inactive)
REMARK    1  A    between atoms: C_1  and  N_3
REMARK    2  A    between atoms: C_1  and  C_8
REMARK    3  A    between atoms: C_1  and  C_11
REMARK    4  A    between atoms: C_8  and  O_9
REMARK    5  A    between atoms: C_11  and  C_12
REMARK    6  A    between atoms: C_17  and  O_18
REMARK                            x       y       z     vdW  Elec       q    Type
REMARK                         _______ _______ _______ _____ _____    ______ ____
ROOT
ATOM      1  C   UNL     1      35.290 -17.810 -21.945  0.00  0.00    +0.047 C 
ATOM      2  C   UNL     1      36.715 -18.245 -22.316  0.00  0.00    -0.011 C 
ENDROOT
BRANCH   1   3
ATOM      3  N   UNL     1      35.338 -17.383 -20.539  0.00  0.00    +0.390 N 
ATOM      4  H   UNL     1      36.073 -16.685 -20.420  0.00  0.00    -0.088 HD
ATOM      5  H   UNL     1      35.535 -18.189 -19.945  0.00  0.00    -0.088 HD
ATOM      6  H   UNL     1      34.440 -16.978 -20.276  0.00  0.00    -0.088 HD
ENDBRANCH   1   3
BRANCH   1   8
ATOM      7  O   UNL     1      33.843 -15.958 -22.606  0.00  0.00    -0.253 OA
ATOM      8  C   UNL     1      34.877 -16.592 -22.778  0.00  0.00    +0.295 C 
BRANCH   8   9
ATOM      9  O   UNL     1      35.763 -16.271 -23.757  0.00  0.00    -0.482 OA
ATOM     10  H   UNL     1      36.505 -16.821 -23.916  0.00  0.00    +0.295 HD
ENDBRANCH   8   9
ENDBRANCH   1   8
BRANCH   1  11
ATOM     11  C   UNL     1      34.278 -18.975 -22.074  0.00  0.00    +0.017 C 
BRANCH  11  12
ATOM     12  C   UNL     1      34.352 -20.026 -20.988  0.00  0.00    -0.023 C 
ATOM     13  C   UNL     1      35.578 -20.580 -20.666  0.00  0.00    -0.001 C 
ATOM     14  C   UNL     1      33.191 -20.412 -20.341  0.00  0.00    -0.001 C 
ATOM     15  C   UNL     1      35.647 -21.549 -19.666  0.00  0.00    +0.036 C 
ATOM     16  C   UNL     1      33.258 -21.380 -19.341  0.00  0.00    +0.036 C 
ATOM     17  C   UNL     1      34.486 -21.949 -19.003  0.00  0.00    +0.134 C 
BRANCH  17  18
ATOM     18  O   UNL     1      34.554 -22.895 -18.026  0.00  0.00    -0.506 OA
ATOM     19  H   UNL     1      35.372 -23.081 -17.609  0.00  0.00    +0.292 HD
ENDBRANCH  17  18
ENDBRANCH  11  12
ENDBRANCH   1  11
TORSDOF 6
ENDMDL
MODEL 3
REMARK VINA RESULT:      -6.9      1.512      2.341
REMARK  Name = 441350
REMARK  6 active torsions:
REMARK  status: ('A' for Active; 'I' for Inactive)
REMARK    1  A    between atoms: C_1  and  N_3
REMARK    2  A    between atoms: C_1  and  C_8
REMARK    3  A    between atoms: C_1  and  C_11
REMARK    4  A    between atoms: C_8  and  O_9
REMARK    5  A    between atoms: C_11  and  C_12
REMARK    6  A    between atoms: C_17  and  O_18
REMARK                            x       y       z     vdW  Elec       q    Type
REMARK                         _______ _______ _______ _____ _____    ______ ____
ROOT
ATOM      1  C   UNL     1      34.971 -17.659 -22.462  0.00  0.00    +0.047 C 
ATOM      2  C   UNL     1      34.706 -16.776 -23.690  0.00  0.00    -0.011 C 
ENDROOT
BRANCH   1   3
ATOM      3  N   UNL     1      36.419 -17.916 -22.439  0.00  0.00    +0.390 N 
ATOM      4  H   UNL     1      36.608 -18.748 -21.880  0.00  0.00    -0.088 HD
ATOM      5  H   UNL     1      36.900 -17.115 -22.030  0.00  0.00    -0.088 HD
ATOM      6  H   UNL     1      36.753 -18.064 -23.391  0.00  0.00    -0.088 HD
ENDBRANCH   1   3
BRANCH   1   8
ATOM      7  O   UNL     1      35.397 -16.730 -20.245  0.00  0.00    -0.253 OA
ATOM      8  C   UNL     1      34.622 -16.897 -21.180  0.00  0.00    +0.295 C 
BRANCH   8   9
ATOM      9  O   UNL     1      33.351 -16.420 -21.153  0.00  0.00    -0.482 OA
ATOM     10  H   UNL     1      32.936 -16.146 -21.948  0.00  0.00    +0.295 HD
ENDBRANCH   8   9
ENDBRANCH   1   8
BRANCH   1  11
ATOM     11  C   UNL     1      34.229 -19.016 -22.555  0.00  0.00    +0.017 C 
BRANCH  11  12
ATOM     12  C   UNL     1      34.400 -19.934 -21.366  0.00  0.00    -0.023 C 
ATOM     13  C   UNL     1      35.671 -20.342 -21.003  0.00  0.00    -0.001 C 
ATOM     14  C   UNL     1      33.279 -20.349 -20.666  0.00  0.00    -0.001 C 
ATOM     15  C   UNL     1      35.829 -21.190 -19.907  0.00  0.00    +0.036 C 
ATOM     16  C   UNL     1      33.436 -21.197 -19.570  0.00  0.00    +0.036 C 
ATOM     17  C   UNL     1      34.710 -21.617 -19.191  0.00  0.00    +0.134 C 
BRANCH  17  18
ATOM     18  O   UNL     1      34.865 -22.444 -18.121  0.00  0.00    -0.506 OA
ATOM     19  H   UNL     1      34.132 -22.926 -17.790  0.00  0.00    +0.292 HD
ENDBRANCH  17  18
ENDBRANCH  11  12
ENDBRANCH   1  11
TORSDOF 6
ENDMDL
MODEL 4
REMARK VINA RESULT:      -6.8      2.783      5.416
REMARK  Name = 441350
REMARK  6 active torsions:
REMARK  status: ('A' for Active; 'I' for Inactive)
REMARK    1  A    between atoms: C_1  and  N_3
REMARK    2  A    between atoms: C_1  and  C_8
REMARK    3  A    between atoms: C_1  and  C_11
REMARK    4  A    between atoms: C_8  and  O_9
REMARK    5  A    between atoms: C_11  and  C_12
REMARK    6  A    between atoms: C_17  and  O_18
REMARK                            x       y       z     vdW  Elec       q    Type
REMARK                         _______ _______ _______ _____ _____    ______ ____
ROOT
ATOM      1  C   UNL     1      34.917 -18.493 -21.329  0.00  0.00    +0.047 C 
ATOM      2  C   UNL     1      33.441 -18.855 -21.107  0.00  0.00    -0.011 C 
ENDROOT
BRANCH   1   3
ATOM      3  N   UNL     1      35.702 -19.431 -20.513  0.00  0.00    +0.390 N 
ATOM      4  H   UNL     1      35.742 -19.093 -19.551  0.00  0.00    -0.088 HD
ATOM      5  H   UNL     1      36.647 -19.501 -20.889  0.00  0.00    -0.088 HD
ATOM      6  H   UNL     1      35.260 -20.350 -20.531  0.00  0.00    -0.088 HD
ENDBRANCH   1   3
BRANCH   1   8
ATOM      7  O   UNL     1      34.589 -19.301 -23.610  0.00  0.00    -0.253 OA
ATOM      8  C   UNL     1      35.302 -18.729 -22.793  0.00  0.00    +0.295 C 
BRANCH   8   9
ATOM      9  O   UNL     1      36.532 -18.255 -23.120  0.00  0.00    -0.482 OA
ATOM     10  H   UNL     1      37.207 -18.217 -22.471  0.00  0.00    +0.295 HD
ENDBRANCH   8   9
ENDBRANCH   1   8
BRANCH   1  11
ATOM     11  C   UNL     1      35.234 -17.050 -20.867  0.00  0.00    +0.017 C 
BRANCH  11  12
ATOM     12  C   UNL     1      34.307 -15.978 -21.397  0.00  0.00    -0.023 C 
ATOM     13  C   UNL     1      34.430 -15.569 -22.713  0.00  0.00    -0.001 C 
ATOM     14  C   UNL     1      33.357 -15.428 -20.554  0.00  0.00    -0.001 C 
ATOM     15  C   UNL     1      33.577 -14.579 -23.202  0.00  0.00    +0.036 C 
ATOM     16  C   UNL     1      32.504 -14.440 -21.041  0.00  0.00    +0.036 C 
ATOM     17  C   UNL     1      32.613 -14.015 -22.365  0.00  0.00    +0.134 C 
BRANCH  17  18
ATOM     18  O   UNL     1      31.781 -13.050 -22.843  0.00  0.00    -0.506 OA
ATOM     19  H   UNL     1      31.275 -12.531 -22.250  0.00  0.00    +0.292 HD
ENDBRANCH  17  18
ENDBRANCH  11  12
ENDBRANCH   1  11
TORSDOF 6
ENDMDL
MODEL 5
REMARK VINA RESULT:      -6.7      2.795      5.628
REMARK  Name = 441350
REMARK  6 active torsions:
REMARK  status: ('A' for Active; 'I' for Inactive)
REMARK    1  A    between atoms: C_1  and  N_3
REMARK    2  A    between atoms: C_1  and  C_8
REMARK    3  A    between atoms: C_1  and  C_11
REMARK    4  A    between atoms: C_8  and  O_9
REMARK    5  A    between atoms: C_11  and  C_12
REMARK    6  A    between atoms: C_17  and  O_18
REMARK                            x       y       z     vdW  Elec       q    Type
REMARK                         _______ _______ _______ _____ _____    ______ ____
ROOT
ATOM      1  C   UNL     1      34.747 -18.890 -21.387  0.00  0.00    +0.047 C 
ATOM      2  C   UNL     1      34.795 -19.267 -22.875  0.00  0.00    -0.011 C 
ENDROOT
BRANCH   1   3
ATOM      3  N   UNL     1      33.331 -18.936 -20.992  0.00  0.00    +0.390 N 
ATOM      4  H   UNL     1      32.778 -18.380 -21.644  0.00  0.00    -0.088 HD
ATOM      5  H   UNL     1      33.228 -18.559 -20.050  0.00  0.00    -0.088 HD
ATOM      6  H   UNL     1      33.005 -19.903 -21.008  0.00  0.00    -0.088 HD
ENDBRANCH   1   3
BRANCH   1   8
ATOM      7  O   UNL     1      34.998 -21.002 -20.188  0.00  0.00    -0.253 OA
ATOM      8  C   UNL     1      35.489 -19.939 -20.553  0.00  0.00    +0.295 C 
BRANCH   8   9
ATOM      9  O   UNL     1      36.760 -19.587 -20.230  0.00  0.00    -0.482 OA
ATOM     10  H   UNL     1      37.308 -20.187 -19.764  0.00  0.00    +0.295 HD
ENDBRANCH   8   9
ENDBRANCH   1   8
BRANCH   1  11
ATOM     11  C   UNL     1      35.284 -17.459 -21.136  0.00  0.00    +0.017 C 
BRANCH  11  12
ATOM     12  C   UNL     1      34.381 -16.335 -21.594  0.00  0.00    -0.023 C 
ATOM     13  C   UNL     1      33.556 -15.712 -20.674  0.00  0.00    -0.001 C 
ATOM     14  C   UNL     1      34.398 -15.955 -22.925  0.00  0.00    -0.001 C 
ATOM     15  C   UNL     1      32.722 -14.677 -21.097  0.00  0.00    +0.036 C 
ATOM     16  C   UNL     1      33.565 -14.920 -23.349  0.00  0.00    +0.036 C 
ATOM     17  C   UNL     1      32.728 -14.281 -22.435  0.00  0.00    +0.134 C 
BRANCH  17  18
ATOM     18  O   UNL     1      31.914 -13.270 -22.847  0.00  0.00    -0.506 OA
ATOM     19  H   UNL     1      31.587 -12.649 -22.226  0.00  0.00    +0.292 HD
ENDBRANCH  17  18
ENDBRANCH  11  12
ENDBRANCH   1  11
TORSDOF 6
ENDMDL
MODEL 6
REMARK VINA RESULT:      -6.5      1.840      2.289
REMARK  Name = 441350
REMARK  6 active torsions:
REMARK  status: ('A' for Active; 'I' for Inactive)
REMARK    1  A    between atoms: C_1  and  N_3
REMARK    2  A    between atoms: C_1  and  C_8
REMARK    3  A    between atoms: C_1  and  C_11
REMARK    4  A    between atoms: C_8  and  O_9
REMARK    5  A    between atoms: C_11  and  C_12
REMARK    6  A    between atoms: C_17  and  O_18
REMARK                            x       y       z     vdW  Elec       q    Type
REMARK                         _______ _______ _______ _____ _____    ______ ____
ROOT
ATOM      1  C   UNL     1      33.979 -16.565 -21.599  0.00  0.00    +0.047 C 
ATOM      2  C   UNL     1      34.909 -16.266 -20.413  0.00  0.00    -0.011 C 
ENDROOT
BRANCH   1   3
ATOM      3  N   UNL     1      32.621 -16.666 -21.046  0.00  0.00    +0.390 N 
ATOM      4  H   UNL     1      31.967 -16.903 -21.792  0.00  0.00    -0.088 HD
ATOM      5  H   UNL     1      32.354 -15.773 -20.631  0.00  0.00    -0.088 HD
ATOM      6  H   UNL     1      32.598 -17.393 -20.331  0.00  0.00    -0.088 HD
ENDBRANCH   1   3
BRANCH   1   8
ATOM      7  O   UNL     1      34.947 -15.078 -23.277  0.00  0.00    -0.253 OA
ATOM      8  C   UNL     1      33.986 -15.390 -22.582  0.00  0.00    +0.295 C 
BRANCH   8   9
ATOM      9  O   UNL     1      32.820 -14.694 -22.614  0.00  0.00    -0.482 OA
ATOM     10  H   UNL     1      32.003 -15.145 -22.533  0.00  0.00    +0.295 HD
ENDBRANCH   8   9
ENDBRANCH   1   8
BRANCH   1  11
ATOM     11  C   UNL     1      34.335 -17.905 -22.288  0.00  0.00    +0.017 C 
BRANCH  11  12
ATOM     12  C   UNL     1      34.507 -19.088 -21.362  0.00  0.00    -0.023 C 
ATOM     13  C   UNL     1      33.385 -19.719 -20.855  0.00  0.00    -0.001 C 
ATOM     14  C   UNL     1      35.784 -19.513 -21.039  0.00  0.00    -0.001 C 
ATOM     15  C   UNL     1      33.543 -20.810 -20.000  0.00  0.00    +0.036 C 
ATOM     16  C   UNL     1      35.944 -20.603 -20.184  0.00  0.00    +0.036 C 
ATOM     17  C   UNL     1      34.824 -21.251 -19.665  0.00  0.00    +0.134 C 
BRANCH  17  18
ATOM     18  O   UNL     1      34.977 -22.316 -18.830  0.00  0.00    -0.506 OA
ATOM     19  H   UNL     1      34.226 -22.723 -18.446  0.00  0.00    +0.292 HD
ENDBRANCH  17  18
ENDBRANCH  11  12
ENDBRANCH   1  11
TORSDOF 6
ENDMDL
MODEL 7
REMARK VINA RESULT:      -6.5      6.276      9.891
REMARK  Name = 441350
REMARK  6 active torsions:
REMARK  status: ('A' for Active; 'I' for Inactive)
REMARK    1  A    between atoms: C_1  and  N_3
REMARK    2  A    between atoms: C_1  and  C_8
REMARK    3  A    between atoms: C_1  and  C_11
REMARK    4  A    between atoms: C_8  and  O_9
REMARK    5  A    between atoms: C_11  and  C_12
REMARK    6  A    between atoms: C_17  and  O_18
REMARK                            x       y       z     vdW  Elec       q    Type
REMARK                         _______ _______ _______ _____ _____    ______ ____
ROOT
ATOM      1  C   UNL     1      37.094 -24.861 -13.759  0.00  0.00    +0.047 C 
ATOM      2  C   UNL     1      38.393 -25.049 -14.558  0.00  0.00    -0.011 C 
ENDROOT
BRANCH   1   3
ATOM      3  N   UNL     1      36.113 -25.794 -14.334  0.00  0.00    +0.390 N 
ATOM      4  H   UNL     1      36.556 -26.339 -15.074  0.00  0.00    -0.088 HD
ATOM      5  H   UNL     1      35.330 -25.267 -14.721  0.00  0.00    -0.088 HD
ATOM      6  H   UNL     1      35.774 -26.421 -13.606  0.00  0.00    -0.088 HD
ENDBRANCH   1   3
BRANCH   1   8
ATOM      7  O   UNL     1      37.867 -24.566 -11.462  0.00  0.00    -0.253 OA
ATOM      8  C   UNL     1      37.311 -25.269 -12.299  0.00  0.00    +0.295 C 
BRANCH   8   9
ATOM      9  O   UNL     1      36.842 -26.508 -11.998  0.00  0.00    -0.482 OA
ATOM     10  H   UNL     1      36.289 -26.631 -11.252  0.00  0.00    +0.295 HD
ENDBRANCH   8   9
ENDBRANCH   1   8
BRANCH   1  11
ATOM     11  C   UNL     1      36.541 -23.420 -13.886  0.00  0.00    +0.017 C 
BRANCH  11  12
ATOM     12  C   UNL     1      36.247 -22.958 -15.296  0.00  0.00    -0.023 C 
ATOM     13  C   UNL     1      37.217 -22.263 -15.996  0.00  0.00    -0.001 C 
ATOM     14  C   UNL     1      35.012 -23.238 -15.855  0.00  0.00    -0.001 C 
ATOM     15  C   UNL     1      36.945 -21.835 -17.296  0.00  0.00    +0.036 C 
ATOM     16  C   UNL     1      34.739 -22.812 -17.154  0.00  0.00    +0.036 C 
ATOM     17  C   UNL     1      35.706 -22.110 -17.875  0.00  0.00    +0.134 C 
BRANCH  17  18
ATOM     18  O   UNL     1      35.442 -21.693 -19.143  0.00  0.00    -0.506 OA
ATOM     19  H   UNL     1      36.126 -21.329 -19.669  0.00  0.00    +0.292 HD
ENDBRANCH  17  18
ENDBRANCH  11  12
ENDBRANCH   1  11
TORSDOF 6
ENDMDL
MODEL 8
REMARK VINA RESULT:      -6.4      6.352      9.579
REMARK  Name = 441350
REMARK  6 active torsions:
REMARK  status: ('A' for Active; 'I' for Inactive)
REMARK    1  A    between atoms: C_1  and  N_3
REMARK    2  A    between atoms: C_1  and  C_8
REMARK    3  A    between atoms: C_1  and  C_11
REMARK    4  A    between atoms: C_8  and  O_9
REMARK    5  A    between atoms: C_11  and  C_12
REMARK    6  A    between atoms: C_17  and  O_18
REMARK                            x       y       z     vdW  Elec       q    Type
REMARK                         _______ _______ _______ _____ _____    ______ ____
ROOT
ATOM      1  C   UNL     1      37.202 -25.649 -14.144  0.00  0.00    +0.047 C 
ATOM      2  C   UNL     1      36.676 -26.492 -15.315  0.00  0.00    -0.011 C 
ENDROOT
BRANCH   1   3
ATOM      3  N   UNL     1      36.987 -26.448 -12.928  0.00  0.00    +0.390 N 
ATOM      4  H   UNL     1      37.015 -27.440 -13.163  0.00  0.00    -0.088 HD
ATOM      5  H   UNL     1      36.077 -26.218 -12.526  0.00  0.00    -0.088 HD
ATOM      6  H   UNL     1      37.720 -26.239 -12.250  0.00  0.00    -0.088 HD
ENDBRANCH   1   3
BRANCH   1   8
ATOM      7  O   UNL     1      39.397 -24.806 -13.486  0.00  0.00    -0.253 OA
ATOM      8  C   UNL     1      38.711 -25.432 -14.287  0.00  0.00    +0.295 C 
BRANCH   8   9
ATOM      9  O   UNL     1      39.243 -25.991 -15.405  0.00  0.00    -0.482 OA
ATOM     10  H   UNL     1      38.691 -26.199 -16.132  0.00  0.00    +0.295 HD
ENDBRANCH   8   9
ENDBRANCH   1   8
BRANCH   1  11
ATOM     11  C   UNL     1      36.431 -24.313 -14.001  0.00  0.00    +0.017 C 
BRANCH  11  12
ATOM     12  C   UNL     1      36.326 -23.484 -15.262  0.00  0.00    -0.023 C 
ATOM     13  C   UNL     1      35.119 -23.428 -15.936  0.00  0.00    -0.001 C 
ATOM     14  C   UNL     1      37.442 -22.802 -15.717  0.00  0.00    -0.001 C 
ATOM     15  C   UNL     1      35.023 -22.665 -17.100  0.00  0.00    +0.036 C 
ATOM     16  C   UNL     1      37.346 -22.039 -16.880  0.00  0.00    +0.036 C 
ATOM     17  C   UNL     1      36.137 -21.970 -17.571  0.00  0.00    +0.134 C 
BRANCH  17  18
ATOM     18  O   UNL     1      36.042 -21.226 -18.707  0.00  0.00    -0.506 OA
ATOM     19  H   UNL     1      35.511 -21.522 -19.419  0.00  0.00    +0.292 HD
ENDBRANCH  17  18
ENDBRANCH  11  12
ENDBRANCH   1  11
TORSDOF 6
ENDMDL
MODEL 9
REMARK VINA RESULT:      -6.3      6.132      8.970
REMARK  Name = 441350
REMARK  6 active torsions:
REMARK  status: ('A' for Active; 'I' for Inactive)
REMARK    1  A    between atoms: C_1  and  N_3
REMARK    2  A    between atoms: C_1  and  C_8
REMARK    3  A    between atoms: C_1  and  C_11
REMARK    4  A    between atoms: C_8  and  O_9
REMARK    5  A    between atoms: C_11  and  C_12
REMARK    6  A    between atoms: C_17  and  O_18
REMARK                            x       y       z     vdW  Elec       q    Type
REMARK                         _______ _______ _______ _____ _____    ______ ____
ROOT
ATOM      1  C   UNL     1      36.245 -24.629 -14.208  0.00  0.00    +0.047 C 
ATOM      2  C   UNL     1      35.843 -25.655 -15.278  0.00  0.00    -0.011 C 
ENDROOT
BRANCH   1   3
ATOM      3  N   UNL     1      35.896 -25.224 -12.909  0.00  0.00    +0.390 N 
ATOM      4  H   UNL     1      35.341 -24.560 -12.369  0.00  0.00    -0.088 HD
ATOM      5  H   UNL     1      36.750 -25.449 -12.398  0.00  0.00    -0.088 HD
ATOM      6  H   UNL     1      35.356 -26.076 -13.060  0.00  0.00    -0.088 HD
ENDBRANCH   1   3
BRANCH   1   8
ATOM      7  O   UNL     1      38.399 -23.928 -13.297  0.00  0.00    -0.253 OA
ATOM      8  C   UNL     1      37.762 -24.420 -14.222  0.00  0.00    +0.295 C 
BRANCH   8   9
ATOM      9  O   UNL     1      38.361 -24.819 -15.374  0.00  0.00    -0.482 OA
ATOM     10  H   UNL     1      38.273 -24.302 -16.151  0.00  0.00    +0.295 HD
ENDBRANCH   8   9
ENDBRANCH   1   8
BRANCH   1  11
ATOM     11  C   UNL     1      35.470 -23.297 -14.365  0.00  0.00    +0.017 C 
BRANCH  11  12
ATOM     12  C   UNL     1      34.811 -23.082 -15.710  0.00  0.00    -0.023 C 
ATOM     13  C   UNL     1      35.564 -22.591 -16.761  0.00  0.00    -0.001 C 
ATOM     14  C   UNL     1      33.467 -23.379 -15.858  0.00  0.00    -0.001 C 
ATOM     15  C   UNL     1      34.956 -22.391 -18.001  0.00  0.00    +0.036 C 
ATOM     16  C   UNL     1      32.858 -23.181 -17.097  0.00  0.00    +0.036 C 
ATOM     17  C   UNL     1      33.603 -22.687 -18.168  0.00  0.00    +0.134 C 
BRANCH  17  18
ATOM     18  O   UNL     1      33.010 -22.492 -19.378  0.00  0.00    -0.506 OA
ATOM     19  H   UNL     1      32.907 -23.210 -19.971  0.00  0.00    +0.292 HD
ENDBRANCH  17  18
ENDBRANCH  11  12
ENDBRANCH   1  11
TORSDOF 6
ENDMDL
