MODEL 1
REMARK VINA RESULT:      -8.3      0.000      0.000
REMARK  Name = 6249
REMARK  6 active torsions:
REMARK  status: ('A' for Active; 'I' for Inactive)
REMARK    1  A    between atoms: N_2  and  CA_11
REMARK    2  A    between atoms: C_3  and  CA_19
REMARK    3  A    between atoms: CA_10  and  C_16
REMARK    4  A    between atoms: C_16  and  O_17
REMARK    5  A    between atoms: CA_19  and  C_20
REMARK    6  A    between atoms: CA_19  and  N_26
REMARK                            x       y       z     vdW  Elec       q    Type
REMARK                         _______ _______ _______ _____ _____    ______ ____
ROOT
ATOM      1  O   UNL     1      32.551 -23.135 -16.202  0.00  0.00    -0.277 OA
ATOM      2  N   UNL     1      33.697 -23.244 -14.190  0.00  0.00    -0.298 N 
ATOM      3  C   UNL     1      32.559 -23.355 -14.993  0.00  0.00    +0.206 C 
ATOM      4  H   UNL     1      33.615 -23.439 -13.229  0.00  0.00    +0.150 HD
ENDROOT
BRANCH   2  11
ATOM      5  S   UNL     1      35.952 -23.863 -12.201  0.00  0.00    -0.118 S 
ATOM      6  O   UNL     1      35.423 -24.613 -16.510  0.00  0.00    -0.273 OA
ATOM      7  N   UNL     1      36.752 -23.979 -14.666  0.00  0.00    -0.260 N 
ATOM      8  C   UNL     1      36.214 -22.954 -13.768  0.00  0.00    +0.151 C 
ATOM      9  C   UNL     1      37.392 -24.987 -12.569  0.00  0.00    +0.068 C 
ATOM     10  CA  UNL     1      37.320 -25.185 -14.097  0.00  0.00    +0.184 C 
ATOM     11  CA  UNL     1      35.011 -22.847 -14.714  0.00  0.00    +0.178 C 
ATOM     12  C   UNL     1      35.711 -23.940 -15.547  0.00  0.00    +0.247 C 
ATOM     13  C   UNL     1      38.669 -24.293 -12.075  0.00  0.00    +0.013 C 
ATOM     14  C   UNL     1      37.194 -26.308 -11.824  0.00  0.00    +0.013 C 
BRANCH  10  16
ATOM     15  OXT UNL     1      39.246 -26.474 -14.772  0.00  0.00    -0.248 OA
ATOM     16  C   UNL     1      38.632 -25.418 -14.775  0.00  0.00    +0.333 C 
BRANCH  16  17
ATOM     17  O   UNL     1      39.055 -24.291 -15.400  0.00  0.00    -0.479 OA
ATOM     18  H   UNL     1      39.248 -24.309 -16.316  0.00  0.00    +0.295 HD
ENDBRANCH  16  17
ENDBRANCH  10  16
ENDBRANCH   2  11
BRANCH   3  19
ATOM     19  CA  UNL     1      31.315 -23.761 -14.210  0.00  0.00    +0.036 C 
BRANCH  19  20
ATOM     20  C   UNL     1      30.067 -23.590 -15.052  0.00  0.00    -0.034 C 
ATOM     21  C   UNL     1      29.645 -24.638 -15.850  0.00  0.00    -0.006 C 
ATOM     22  C   UNL     1      29.380 -22.391 -15.005  0.00  0.00    -0.006 C 
ATOM     23  C   UNL     1      28.497 -24.482 -16.627  0.00  0.00    -0.000 C 
ATOM     24  C   UNL     1      28.231 -22.235 -15.781  0.00  0.00    -0.000 C 
ATOM     25  C   UNL     1      27.790 -23.281 -16.592  0.00  0.00    -0.000 C 
ENDBRANCH  19  20
BRANCH  19  26
ATOM     26  N   UNL     1      31.500 -25.143 -13.760  0.00  0.00    +0.390 N 
ATOM     27  H1  UNL     1      31.995 -25.671 -14.479  0.00  0.00    -0.088 HD
ATOM     28  H2  UNL     1      30.590 -25.570 -13.591  0.00  0.00    -0.088 HD
ATOM     29  H3  UNL     1      32.045 -25.150 -12.898  0.00  0.00    -0.088 HD
ENDBRANCH  19  26
ENDBRANCH   3  19
TORSDOF 6
ENDMDL
MODEL 2
REMARK VINA RESULT:      -8.3      9.930     12.136
REMARK  Name = 6249
REMARK  6 active torsions:
REMARK  status: ('A' for Active; 'I' for Inactive)
REMARK    1  A    between atoms: N_2  and  CA_11
REMARK    2  A    between atoms: C_3  and  CA_19
REMARK    3  A    between atoms: CA_10  and  C_16
REMARK    4  A    between atoms: C_16  and  O_17
REMARK    5  A    between atoms: CA_19  and  C_20
REMARK    6  A    between atoms: CA_19  and  N_26
REMARK                            x       y       z     vdW  Elec       q    Type
REMARK                         _______ _______ _______ _____ _____    ______ ____
ROOT
ATOM      1  O   UNL     1      36.371 -17.861 -20.258  0.00  0.00    -0.277 OA
ATOM      2  N   UNL     1      34.418 -17.098 -21.247  0.00  0.00    -0.298 N 
ATOM      3  C   UNL     1      35.386 -18.065 -20.966  0.00  0.00    +0.206 C 
ATOM      4  H   UNL     1      33.660 -17.346 -21.825  0.00  0.00    +0.150 HD
ENDROOT
BRANCH   2  11
ATOM      5  S   UNL     1      34.527 -15.018 -23.503  0.00  0.00    -0.118 S 
ATOM      6  O   UNL     1      32.109 -15.389 -19.839  0.00  0.00    -0.273 OA
ATOM      7  N   UNL     1      33.358 -14.105 -21.375  0.00  0.00    -0.260 N 
ATOM      8  C   UNL     1      34.694 -14.590 -21.731  0.00  0.00    +0.151 C 
ATOM      9  C   UNL     1      33.261 -13.672 -23.747  0.00  0.00    +0.068 C 
ATOM     10  CA  UNL     1      32.458 -13.683 -22.430  0.00  0.00    +0.184 C 
ATOM     11  CA  UNL     1      34.479 -15.727 -20.723  0.00  0.00    +0.178 C 
ATOM     12  C   UNL     1      33.099 -15.090 -20.467  0.00  0.00    +0.247 C 
ATOM     13  C   UNL     1      34.013 -12.363 -24.025  0.00  0.00    +0.013 C 
ATOM     14  C   UNL     1      32.378 -14.032 -24.943  0.00  0.00    +0.013 C 
BRANCH  10  16
ATOM     15  OXT UNL     1      31.505 -11.494 -22.790  0.00  0.00    -0.248 OA
ATOM     16  C   UNL     1      31.883 -12.365 -22.020  0.00  0.00    +0.333 C 
BRANCH  16  17
ATOM     17  O   UNL     1      31.838 -12.261 -20.669  0.00  0.00    -0.479 OA
ATOM     18  H   UNL     1      31.112 -11.837 -20.256  0.00  0.00    +0.295 HD
ENDBRANCH  16  17
ENDBRANCH  10  16
ENDBRANCH   2  11
BRANCH   3  19
ATOM     19  CA  UNL     1      35.108 -19.402 -21.646  0.00  0.00    +0.036 C 
BRANCH  19  20
ATOM     20  C   UNL     1      34.637 -20.431 -20.639  0.00  0.00    -0.034 C 
ATOM     21  C   UNL     1      33.296 -20.481 -20.305  0.00  0.00    -0.006 C 
ATOM     22  C   UNL     1      35.558 -21.296 -20.078  0.00  0.00    -0.006 C 
ATOM     23  C   UNL     1      32.861 -21.428 -19.377  0.00  0.00    -0.000 C 
ATOM     24  C   UNL     1      35.124 -22.244 -19.151  0.00  0.00    -0.000 C 
ATOM     25  C   UNL     1      33.775 -22.310 -18.801  0.00  0.00    -0.000 C 
ENDBRANCH  19  20
BRANCH  19  26
ATOM     26  N   UNL     1      34.126 -19.168 -22.707  0.00  0.00    +0.390 N 
ATOM     27  H1  UNL     1      33.579 -20.016 -22.858  0.00  0.00    -0.088 HD
ATOM     28  H2  UNL     1      34.610 -18.920 -23.570  0.00  0.00    -0.088 HD
ATOM     29  H3  UNL     1      33.504 -18.407 -22.434  0.00  0.00    -0.088 HD
ENDBRANCH  19  26
ENDBRANCH   3  19
TORSDOF 6
ENDMDL
MODEL 3
REMARK VINA RESULT:      -8.3      1.790      2.278
REMARK  Name = 6249
REMARK  6 active torsions:
REMARK  status: ('A' for Active; 'I' for Inactive)
REMARK    1  A    between atoms: N_2  and  CA_11
REMARK    2  A    between atoms: C_3  and  CA_19
REMARK    3  A    between atoms: CA_10  and  C_16
REMARK    4  A    between atoms: C_16  and  O_17
REMARK    5  A    between atoms: CA_19  and  C_20
REMARK    6  A    between atoms: CA_19  and  N_26
REMARK                            x       y       z     vdW  Elec       q    Type
REMARK                         _______ _______ _______ _____ _____    ______ ____
ROOT
ATOM      1  O   UNL     1      32.846 -22.795 -14.592  0.00  0.00    -0.277 OA
ATOM      2  N   UNL     1      34.575 -23.001 -16.123  0.00  0.00    -0.298 N 
ATOM      3  C   UNL     1      33.234 -23.041 -15.733  0.00  0.00    +0.206 C 
ATOM      4  H   UNL     1      34.799 -23.212 -17.058  0.00  0.00    +0.150 HD
ENDROOT
BRANCH   2  11
ATOM      5  S   UNL     1      35.369 -25.386 -14.360  0.00  0.00    -0.118 S 
ATOM      6  O   UNL     1      37.667 -22.510 -16.780  0.00  0.00    -0.273 OA
ATOM      7  N   UNL     1      37.364 -23.794 -14.824  0.00  0.00    -0.260 N 
ATOM      8  C   UNL     1      36.065 -23.705 -14.152  0.00  0.00    +0.151 C 
ATOM      9  C   UNL     1      37.074 -26.137 -14.322  0.00  0.00    +0.068 C 
ATOM     10  CA  UNL     1      37.946 -25.100 -15.060  0.00  0.00    +0.184 C 
ATOM     11  CA  UNL     1      35.667 -22.658 -15.201  0.00  0.00    +0.178 C 
ATOM     12  C   UNL     1      37.076 -22.875 -15.789  0.00  0.00    +0.247 C 
ATOM     13  C   UNL     1      37.457 -26.362 -12.853  0.00  0.00    +0.013 C 
ATOM     14  C   UNL     1      37.044 -27.473 -15.065  0.00  0.00    +0.013 C 
BRANCH  10  16
ATOM     15  OXT UNL     1      39.762 -24.544 -13.571  0.00  0.00    -0.248 OA
ATOM     16  C   UNL     1      39.373 -25.035 -14.620  0.00  0.00    +0.333 C 
BRANCH  16  17
ATOM     17  O   UNL     1      40.187 -25.597 -15.548  0.00  0.00    -0.479 OA
ATOM     18  H   UNL     1      40.837 -26.218 -15.285  0.00  0.00    +0.295 HD
ENDBRANCH  16  17
ENDBRANCH  10  16
ENDBRANCH   2  11
BRANCH   3  19
ATOM     19  CA  UNL     1      32.296 -23.444 -16.866  0.00  0.00    +0.036 C 
BRANCH  19  20
ATOM     20  C   UNL     1      30.863 -23.514 -16.380  0.00  0.00    -0.034 C 
ATOM     21  C   UNL     1      30.012 -22.454 -16.635  0.00  0.00    -0.006 C 
ATOM     22  C   UNL     1      30.438 -24.637 -15.693  0.00  0.00    -0.006 C 
ATOM     23  C   UNL     1      28.692 -22.518 -16.188  0.00  0.00    -0.000 C 
ATOM     24  C   UNL     1      29.118 -24.702 -15.246  0.00  0.00    -0.000 C 
ATOM     25  C   UNL     1      28.246 -23.642 -15.493  0.00  0.00    -0.000 C 
ENDBRANCH  19  20
BRANCH  19  26
ATOM     26  N   UNL     1      32.469 -22.478 -17.954  0.00  0.00    +0.390 N 
ATOM     27  H1  UNL     1      33.444 -22.180 -17.992  0.00  0.00    -0.088 HD
ATOM     28  H2  UNL     1      31.873 -21.668 -17.789  0.00  0.00    -0.088 HD
ATOM     29  H3  UNL     1      32.213 -22.914 -18.840  0.00  0.00    -0.088 HD
ENDBRANCH  19  26
ENDBRANCH   3  19
TORSDOF 6
ENDMDL
MODEL 4
REMARK VINA RESULT:      -8.1      4.003      5.355
REMARK  Name = 6249
REMARK  6 active torsions:
REMARK  status: ('A' for Active; 'I' for Inactive)
REMARK    1  A    between atoms: N_2  and  CA_11
REMARK    2  A    between atoms: C_3  and  CA_19
REMARK    3  A    between atoms: CA_10  and  C_16
REMARK    4  A    between atoms: C_16  and  O_17
REMARK    5  A    between atoms: CA_19  and  C_20
REMARK    6  A    between atoms: CA_19  and  N_26
REMARK                            x       y       z     vdW  Elec       q    Type
REMARK                         _______ _______ _______ _____ _____    ______ ____
ROOT
ATOM      1  O   UNL     1      34.293 -23.233 -18.292  0.00  0.00    -0.277 OA
ATOM      2  N   UNL     1      35.823 -23.142 -16.554  0.00  0.00    -0.298 N 
ATOM      3  C   UNL     1      35.323 -22.773 -17.805  0.00  0.00    +0.206 C 
ATOM      4  H   UNL     1      36.656 -22.723 -16.238  0.00  0.00    +0.150 HD
ENDROOT
BRANCH   2  11
ATOM      5  S   UNL     1      37.820 -24.527 -14.678  0.00  0.00    -0.118 S 
ATOM      6  O   UNL     1      33.891 -22.634 -14.055  0.00  0.00    -0.273 OA
ATOM      7  N   UNL     1      35.447 -24.359 -13.642  0.00  0.00    -0.260 N 
ATOM      8  C   UNL     1      36.059 -25.009 -14.805  0.00  0.00    +0.151 C 
ATOM      9  C   UNL     1      37.712 -24.483 -12.818  0.00  0.00    +0.068 C 
ATOM     10  CA  UNL     1      36.296 -23.933 -12.548  0.00  0.00    +0.184 C 
ATOM     11  CA  UNL     1      35.163 -24.128 -15.687  0.00  0.00    +0.178 C 
ATOM     12  C   UNL     1      34.627 -23.543 -14.365  0.00  0.00    +0.247 C 
ATOM     13  C   UNL     1      37.954 -25.906 -12.298  0.00  0.00    +0.013 C 
ATOM     14  C   UNL     1      38.789 -23.539 -12.280  0.00  0.00    +0.013 C 
BRANCH  10  16
ATOM     15  OXT UNL     1      36.032 -24.121 -10.155  0.00  0.00    -0.248 OA
ATOM     16  C   UNL     1      35.656 -24.408 -11.282  0.00  0.00    +0.333 C 
BRANCH  16  17
ATOM     17  O   UNL     1      34.595 -25.208 -11.552  0.00  0.00    -0.479 OA
ATOM     18  H   UNL     1      34.721 -26.010 -12.019  0.00  0.00    +0.295 HD
ENDBRANCH  16  17
ENDBRANCH  10  16
ENDBRANCH   2  11
BRANCH   3  19
ATOM     19  CA  UNL     1      36.200 -21.749 -18.519  0.00  0.00    +0.036 C 
BRANCH  19  20
ATOM     20  C   UNL     1      35.395 -20.965 -19.535  0.00  0.00    -0.034 C 
ATOM     21  C   UNL     1      34.017 -21.084 -19.540  0.00  0.00    -0.006 C 
ATOM     22  C   UNL     1      36.057 -20.148 -20.434  0.00  0.00    -0.006 C 
ATOM     23  C   UNL     1      33.276 -20.362 -20.476  0.00  0.00    -0.000 C 
ATOM     24  C   UNL     1      35.316 -19.426 -21.369  0.00  0.00    -0.000 C 
ATOM     25  C   UNL     1      33.925 -19.534 -21.390  0.00  0.00    -0.000 C 
ENDBRANCH  19  20
BRANCH  19  26
ATOM     26  N   UNL     1      36.802 -20.887 -17.498  0.00  0.00    +0.390 N 
ATOM     27  H1  UNL     1      37.801 -20.790 -17.682  0.00  0.00    -0.088 HD
ATOM     28  H2  UNL     1      36.666 -21.304 -16.578  0.00  0.00    -0.088 HD
ATOM     29  H3  UNL     1      36.361 -19.968 -17.525  0.00  0.00    -0.088 HD
ENDBRANCH  19  26
ENDBRANCH   3  19
TORSDOF 6
ENDMDL
MODEL 5
REMARK VINA RESULT:      -7.8      3.377      4.420
REMARK  Name = 6249
REMARK  6 active torsions:
REMARK  status: ('A' for Active; 'I' for Inactive)
REMARK    1  A    between atoms: N_2  and  CA_11
REMARK    2  A    between atoms: C_3  and  CA_19
REMARK    3  A    between atoms: CA_10  and  C_16
REMARK    4  A    between atoms: C_16  and  O_17
REMARK    5  A    between atoms: CA_19  and  C_20
REMARK    6  A    between atoms: CA_19  and  N_26
REMARK                            x       y       z     vdW  Elec       q    Type
REMARK                         _______ _______ _______ _____ _____    ______ ____
ROOT
ATOM      1  O   UNL     1      32.952 -22.803 -15.866  0.00  0.00    -0.277 OA
ATOM      2  N   UNL     1      35.127 -22.762 -16.665  0.00  0.00    -0.298 N 
ATOM      3  C   UNL     1      33.742 -22.866 -16.806  0.00  0.00    +0.206 C 
ATOM      4  H   UNL     1      35.688 -22.824 -17.473  0.00  0.00    +0.150 HD
ENDROOT
BRANCH   2  11
ATOM      5  S   UNL     1      35.439 -25.405 -15.134  0.00  0.00    -0.118 S 
ATOM      6  O   UNL     1      38.199 -22.100 -16.064  0.00  0.00    -0.273 OA
ATOM      7  N   UNL     1      37.329 -23.716 -14.581  0.00  0.00    -0.260 N 
ATOM      8  C   UNL     1      35.873 -23.774 -14.425  0.00  0.00    +0.151 C 
ATOM      9  C   UNL     1      37.075 -26.117 -14.597  0.00  0.00    +0.068 C 
ATOM     10  CA  UNL     1      38.063 -24.948 -14.793  0.00  0.00    +0.184 C 
ATOM     11  CA  UNL     1      35.788 -22.566 -15.368  0.00  0.00    +0.178 C 
ATOM     12  C   UNL     1      37.327 -22.647 -15.428  0.00  0.00    +0.247 C 
ATOM     13  C   UNL     1      36.929 -26.591 -13.144  0.00  0.00    +0.013 C 
ATOM     14  C   UNL     1      37.423 -27.300 -15.501  0.00  0.00    +0.013 C 
BRANCH  10  16
ATOM     15  OXT UNL     1      39.309 -24.255 -12.844  0.00  0.00    -0.248 OA
ATOM     16  C   UNL     1      39.230 -24.933 -13.858  0.00  0.00    +0.333 C 
BRANCH  16  17
ATOM     17  O   UNL     1      40.199 -25.778 -14.288  0.00  0.00    -0.479 OA
ATOM     18  H   UNL     1      40.589 -26.385 -13.691  0.00  0.00    +0.295 HD
ENDBRANCH  16  17
ENDBRANCH  10  16
ENDBRANCH   2  11
BRANCH   3  19
ATOM     19  CA  UNL     1      33.304 -23.087 -18.250  0.00  0.00    +0.036 C 
BRANCH  19  20
ATOM     20  C   UNL     1      33.806 -21.971 -19.143  0.00  0.00    -0.034 C 
ATOM     21  C   UNL     1      35.155 -21.899 -19.439  0.00  0.00    -0.006 C 
ATOM     22  C   UNL     1      32.903 -21.050 -19.642  0.00  0.00    -0.006 C 
ATOM     23  C   UNL     1      35.617 -20.871 -20.261  0.00  0.00    -0.000 C 
ATOM     24  C   UNL     1      33.364 -20.022 -20.464  0.00  0.00    -0.000 C 
ATOM     25  C   UNL     1      34.722 -19.933 -20.773  0.00  0.00    -0.000 C 
ENDBRANCH  19  20
BRANCH  19  26
ATOM     26  N   UNL     1      33.797 -24.402 -18.670  0.00  0.00    +0.390 N 
ATOM     27  H1  UNL     1      33.772 -25.044 -17.878  0.00  0.00    -0.088 HD
ATOM     28  H2  UNL     1      34.756 -24.315 -19.006  0.00  0.00    -0.088 HD
ATOM     29  H3  UNL     1      33.206 -24.764 -19.419  0.00  0.00    -0.088 HD
ENDBRANCH  19  26
ENDBRANCH   3  19
TORSDOF 6
ENDMDL
MODEL 6
REMARK VINA RESULT:      -7.5     13.213     14.523
REMARK  Name = 6249
REMARK  6 active torsions:
REMARK  status: ('A' for Active; 'I' for Inactive)
REMARK    1  A    between atoms: N_2  and  CA_11
REMARK    2  A    between atoms: C_3  and  CA_19
REMARK    3  A    between atoms: CA_10  and  C_16
REMARK    4  A    between atoms: C_16  and  O_17
REMARK    5  A    between atoms: CA_19  and  C_20
REMARK    6  A    between atoms: CA_19  and  N_26
REMARK                            x       y       z     vdW  Elec       q    Type
REMARK                         _______ _______ _______ _____ _____    ______ ____
ROOT
ATOM      1  O   UNL     1      33.467 -10.515 -23.594  0.00  0.00    -0.277 OA
ATOM      2  N   UNL     1      32.998 -12.712 -23.023  0.00  0.00    -0.298 N 
ATOM      3  C   UNL     1      32.832 -11.329 -22.926  0.00  0.00    +0.206 C 
ATOM      4  H   UNL     1      32.448 -13.293 -22.450  0.00  0.00    +0.150 HD
ENDROOT
BRANCH   2  11
ATOM      5  S   UNL     1      34.465 -15.063 -21.702  0.00  0.00    -0.118 S 
ATOM      6  O   UNL     1      32.418 -14.560 -25.570  0.00  0.00    -0.273 OA
ATOM      7  N   UNL     1      34.205 -15.378 -24.263  0.00  0.00    -0.260 N 
ATOM      8  C   UNL     1      34.876 -14.431 -23.370  0.00  0.00    +0.151 C 
ATOM      9  C   UNL     1      34.420 -16.815 -22.336  0.00  0.00    +0.068 C 
ATOM     10  CA  UNL     1      33.815 -16.675 -23.749  0.00  0.00    +0.184 C 
ATOM     11  CA  UNL     1      33.959 -13.341 -23.940  0.00  0.00    +0.178 C 
ATOM     12  C   UNL     1      33.355 -14.462 -24.810  0.00  0.00    +0.247 C 
ATOM     13  C   UNL     1      35.853 -17.364 -22.308  0.00  0.00    +0.013 C 
ATOM     14  C   UNL     1      33.521 -17.650 -21.424  0.00  0.00    +0.013 C 
BRANCH  10  16
ATOM     15  OXT UNL     1      34.072 -18.901 -24.648  0.00  0.00    -0.248 OA
ATOM     16  C   UNL     1      34.266 -17.698 -24.742  0.00  0.00    +0.333 C 
BRANCH  16  17
ATOM     17  O   UNL     1      34.926 -17.110 -25.770  0.00  0.00    -0.479 OA
ATOM     18  H   UNL     1      34.446 -16.668 -26.442  0.00  0.00    +0.295 HD
ENDBRANCH  16  17
ENDBRANCH  10  16
ENDBRANCH   2  11
BRANCH   3  19
ATOM     19  CA  UNL     1      31.791 -10.925 -21.887  0.00  0.00    +0.036 C 
BRANCH  19  20
ATOM     20  C   UNL     1      31.823  -9.430 -21.644  0.00  0.00    -0.034 C 
ATOM     21  C   UNL     1      31.385  -8.576 -22.639  0.00  0.00    -0.006 C 
ATOM     22  C   UNL     1      32.290  -8.955 -20.432  0.00  0.00    -0.006 C 
ATOM     23  C   UNL     1      31.415  -7.199 -22.416  0.00  0.00    -0.000 C 
ATOM     24  C   UNL     1      32.319  -7.578 -20.208  0.00  0.00    -0.000 C 
ATOM     25  C   UNL     1      31.882  -6.701 -21.201  0.00  0.00    -0.000 C 
ENDBRANCH  19  20
BRANCH  19  26
ATOM     26  N   UNL     1      30.483 -11.386 -22.362  0.00  0.00    +0.390 N 
ATOM     27  H1  UNL     1      30.556 -12.355 -22.672  0.00  0.00    -0.088 HD
ATOM     28  H2  UNL     1      30.180 -10.802 -23.141  0.00  0.00    -0.088 HD
ATOM     29  H3  UNL     1      29.804 -11.321 -21.604  0.00  0.00    -0.088 HD
ENDBRANCH  19  26
ENDBRANCH   3  19
TORSDOF 6
ENDMDL
MODEL 7
REMARK VINA RESULT:      -7.4      4.090      5.393
REMARK  Name = 6249
REMARK  6 active torsions:
REMARK  status: ('A' for Active; 'I' for Inactive)
REMARK    1  A    between atoms: N_2  and  CA_11
REMARK    2  A    between atoms: C_3  and  CA_19
REMARK    3  A    between atoms: CA_10  and  C_16
REMARK    4  A    between atoms: C_16  and  O_17
REMARK    5  A    between atoms: CA_19  and  C_20
REMARK    6  A    between atoms: CA_19  and  N_26
REMARK                            x       y       z     vdW  Elec       q    Type
REMARK                         _______ _______ _______ _____ _____    ______ ____
ROOT
ATOM      1  O   UNL     1      37.230 -20.147 -17.972  0.00  0.00    -0.277 OA
ATOM      2  N   UNL     1      36.960 -22.355 -17.318  0.00  0.00    -0.298 N 
ATOM      3  C   UNL     1      36.906 -21.303 -18.236  0.00  0.00    +0.206 C 
ATOM      4  H   UNL     1      36.681 -23.252 -17.614  0.00  0.00    +0.150 HD
ENDROOT
BRANCH   2  11
ATOM      5  S   UNL     1      34.750 -23.056 -15.305  0.00  0.00    -0.118 S 
ATOM      6  O   UNL     1      39.002 -24.159 -15.642  0.00  0.00    -0.273 OA
ATOM      7  N   UNL     1      37.123 -23.519 -14.365  0.00  0.00    -0.260 N 
ATOM      8  C   UNL     1      36.366 -22.349 -14.819  0.00  0.00    +0.151 C 
ATOM      9  C   UNL     1      34.899 -24.386 -14.009  0.00  0.00    +0.068 C 
ATOM     10  CA  UNL     1      36.405 -24.725 -14.005  0.00  0.00    +0.184 C 
ATOM     11  CA  UNL     1      37.411 -22.184 -15.930  0.00  0.00    +0.178 C 
ATOM     12  C   UNL     1      38.084 -23.435 -15.330  0.00  0.00    +0.247 C 
ATOM     13  C   UNL     1      34.371 -23.816 -12.685  0.00  0.00    +0.013 C 
ATOM     14  C   UNL     1      34.057 -25.590 -14.433  0.00  0.00    +0.013 C 
BRANCH  10  16
ATOM     15  OXT UNL     1      37.502 -24.476 -11.869  0.00  0.00    -0.248 OA
ATOM     16  C   UNL     1      36.953 -25.191 -12.694  0.00  0.00    +0.333 C 
BRANCH  16  17
ATOM     17  O   UNL     1      36.759 -26.524 -12.540  0.00  0.00    -0.479 OA
ATOM     18  H   UNL     1      36.034 -26.836 -12.036  0.00  0.00    +0.295 HD
ENDBRANCH  16  17
ENDBRANCH  10  16
ENDBRANCH   2  11
BRANCH   3  19
ATOM     19  CA  UNL     1      36.382 -21.732 -19.603  0.00  0.00    +0.036 C 
BRANCH  19  20
ATOM     20  C   UNL     1      35.073 -21.039 -19.921  0.00  0.00    -0.034 C 
ATOM     21  C   UNL     1      33.906 -21.511 -19.350  0.00  0.00    -0.006 C 
ATOM     22  C   UNL     1      35.077 -19.952 -20.775  0.00  0.00    -0.006 C 
ATOM     23  C   UNL     1      32.700 -20.873 -19.643  0.00  0.00    -0.000 C 
ATOM     24  C   UNL     1      33.871 -19.313 -21.067  0.00  0.00    -0.000 C 
ATOM     25  C   UNL     1      32.683 -19.775 -20.501  0.00  0.00    -0.000 C 
ENDBRANCH  19  20
BRANCH  19  26
ATOM     26  N   UNL     1      37.423 -21.440 -20.592  0.00  0.00    +0.390 N 
ATOM     27  H1  UNL     1      36.996 -21.316 -21.510  0.00  0.00    -0.088 HD
ATOM     28  H2  UNL     1      38.084 -22.216 -20.629  0.00  0.00    -0.088 HD
ATOM     29  H3  UNL     1      37.915 -20.587 -20.327  0.00  0.00    -0.088 HD
ENDBRANCH  19  26
ENDBRANCH   3  19
TORSDOF 6
ENDMDL
MODEL 8
REMARK VINA RESULT:      -7.3      9.075     11.077
REMARK  Name = 6249
REMARK  6 active torsions:
REMARK  status: ('A' for Active; 'I' for Inactive)
REMARK    1  A    between atoms: N_2  and  CA_11
REMARK    2  A    between atoms: C_3  and  CA_19
REMARK    3  A    between atoms: CA_10  and  C_16
REMARK    4  A    between atoms: C_16  and  O_17
REMARK    5  A    between atoms: CA_19  and  C_20
REMARK    6  A    between atoms: CA_19  and  N_26
REMARK                            x       y       z     vdW  Elec       q    Type
REMARK                         _______ _______ _______ _____ _____    ______ ____
ROOT
ATOM      1  O   UNL     1      36.244 -19.751 -20.462  0.00  0.00    -0.277 OA
ATOM      2  N   UNL     1      34.271 -18.595 -20.846  0.00  0.00    -0.298 N 
ATOM      3  C   UNL     1      35.020 -19.743 -20.577  0.00  0.00    +0.206 C 
ATOM      4  H   UNL     1      33.293 -18.679 -20.922  0.00  0.00    +0.150 HD
ENDROOT
BRANCH   2  11
ATOM      5  S   UNL     1      34.953 -18.033 -23.787  0.00  0.00    -0.118 S 
ATOM      6  O   UNL     1      32.877 -15.721 -20.663  0.00  0.00    -0.273 OA
ATOM      7  N   UNL     1      34.381 -15.869 -22.475  0.00  0.00    -0.260 N 
ATOM      8  C   UNL     1      35.410 -16.911 -22.415  0.00  0.00    +0.151 C 
ATOM      9  C   UNL     1      34.257 -16.611 -24.769  0.00  0.00    +0.068 C 
ATOM     10  CA  UNL     1      33.617 -15.705 -23.696  0.00  0.00    +0.184 C 
ATOM     11  CA  UNL     1      34.876 -17.268 -21.022  0.00  0.00    +0.178 C 
ATOM     12  C   UNL     1      33.853 -16.137 -21.247  0.00  0.00    +0.247 C 
ATOM     13  C   UNL     1      35.413 -15.963 -25.544  0.00  0.00    +0.013 C 
ATOM     14  C   UNL     1      33.208 -17.147 -25.744  0.00  0.00    +0.013 C 
BRANCH  10  16
ATOM     15  OXT UNL     1      32.928 -13.724 -24.891  0.00  0.00    -0.248 OA
ATOM     16  C   UNL     1      33.604 -14.245 -24.016  0.00  0.00    +0.333 C 
BRANCH  16  17
ATOM     17  O   UNL     1      34.449 -13.567 -23.201  0.00  0.00    -0.479 OA
ATOM     18  H   UNL     1      35.121 -14.027 -22.737  0.00  0.00    +0.295 HD
ENDBRANCH  16  17
ENDBRANCH  10  16
ENDBRANCH   2  11
BRANCH   3  19
ATOM     19  CA  UNL     1      34.163 -21.000 -20.460  0.00  0.00    +0.036 C 
BRANCH  19  20
ATOM     20  C   UNL     1      34.425 -21.711 -19.148  0.00  0.00    -0.034 C 
ATOM     21  C   UNL     1      33.394 -22.405 -18.541  0.00  0.00    -0.006 C 
ATOM     22  C   UNL     1      35.688 -21.650 -18.589  0.00  0.00    -0.006 C 
ATOM     23  C   UNL     1      33.635 -23.059 -17.332  0.00  0.00    -0.000 C 
ATOM     24  C   UNL     1      35.929 -22.305 -17.381  0.00  0.00    -0.000 C 
ATOM     25  C   UNL     1      34.902 -23.009 -16.753  0.00  0.00    -0.000 C 
ENDBRANCH  19  20
BRANCH  19  26
ATOM     26  N   UNL     1      32.761 -20.600 -20.608  0.00  0.00    +0.390 N 
ATOM     27  H1  UNL     1      32.330 -21.142 -21.358  0.00  0.00    -0.088 HD
ATOM     28  H2  UNL     1      32.712 -19.608 -20.837  0.00  0.00    -0.088 HD
ATOM     29  H3  UNL     1      32.263 -20.773 -19.735  0.00  0.00    -0.088 HD
ENDBRANCH  19  26
ENDBRANCH   3  19
TORSDOF 6
ENDMDL
MODEL 9
REMARK VINA RESULT:      -7.3     14.429     16.241
REMARK  Name = 6249
REMARK  6 active torsions:
REMARK  status: ('A' for Active; 'I' for Inactive)
REMARK    1  A    between atoms: N_2  and  CA_11
REMARK    2  A    between atoms: C_3  and  CA_19
REMARK    3  A    between atoms: CA_10  and  C_16
REMARK    4  A    between atoms: C_16  and  O_17
REMARK    5  A    between atoms: CA_19  and  C_20
REMARK    6  A    between atoms: CA_19  and  N_26
REMARK                            x       y       z     vdW  Elec       q    Type
REMARK                         _______ _______ _______ _____ _____    ______ ____
ROOT
ATOM      1  O   UNL     1      32.486 -14.026 -24.487  0.00  0.00    -0.277 OA
ATOM      2  N   UNL     1      33.964 -12.495 -23.570  0.00  0.00    -0.298 N 
ATOM      3  C   UNL     1      33.330 -13.737 -23.641  0.00  0.00    +0.206 C 
ATOM      4  H   UNL     1      34.629 -12.346 -22.858  0.00  0.00    +0.150 HD
ENDROOT
BRANCH   2  11
ATOM      5  S   UNL     1      31.910 -10.517 -22.431  0.00  0.00    -0.118 S 
ATOM      6  O   UNL     1      35.834 -10.026 -24.374  0.00  0.00    -0.273 OA
ATOM      7  N   UNL     1      33.590  -9.375 -24.045  0.00  0.00    -0.260 N 
ATOM      8  C   UNL     1      32.564 -10.417 -24.138  0.00  0.00    +0.151 C 
ATOM      9  C   UNL     1      32.243  -8.704 -22.158  0.00  0.00    +0.068 C 
ATOM     10  CA  UNL     1      33.558  -8.454 -22.926  0.00  0.00    +0.184 C 
ATOM     11  CA  UNL     1      33.685 -11.398 -24.507  0.00  0.00    +0.178 C 
ATOM     12  C   UNL     1      34.635 -10.192 -24.362  0.00  0.00    +0.247 C 
ATOM     13  C   UNL     1      31.036  -7.918 -22.687  0.00  0.00    +0.013 C 
ATOM     14  C   UNL     1      32.416  -8.451 -20.659  0.00  0.00    +0.013 C 
BRANCH  10  16
ATOM     15  OXT UNL     1      32.900  -6.177 -23.385  0.00  0.00    -0.248 OA
ATOM     16  C   UNL     1      33.722  -7.077 -23.482  0.00  0.00    +0.333 C 
BRANCH  16  17
ATOM     17  O   UNL     1      34.915  -6.954 -24.116  0.00  0.00    -0.479 OA
ATOM     18  H   UNL     1      34.954  -6.577 -24.972  0.00  0.00    +0.295 HD
ENDBRANCH  16  17
ENDBRANCH  10  16
ENDBRANCH   2  11
BRANCH   3  19
ATOM     19  CA  UNL     1      33.775 -14.698 -22.543  0.00  0.00    +0.036 C 
BRANCH  19  20
ATOM     20  C   UNL     1      34.223 -16.019 -23.133  0.00  0.00    -0.034 C 
ATOM     21  C   UNL     1      34.548 -17.061 -22.282  0.00  0.00    -0.006 C 
ATOM     22  C   UNL     1      34.296 -16.154 -24.507  0.00  0.00    -0.006 C 
ATOM     23  C   UNL     1      34.960 -18.278 -22.825  0.00  0.00    -0.000 C 
ATOM     24  C   UNL     1      34.708 -17.372 -25.050  0.00  0.00    -0.000 C 
ATOM     25  C   UNL     1      35.040 -18.433 -24.208  0.00  0.00    -0.000 C 
ENDBRANCH  19  20
BRANCH  19  26
ATOM     26  N   UNL     1      34.837 -14.040 -21.777  0.00  0.00    +0.390 N 
ATOM     27  H1  UNL     1      34.731 -13.027 -21.848  0.00  0.00    -0.088 HD
ATOM     28  H2  UNL     1      35.745 -14.312 -22.152  0.00  0.00    -0.088 HD
ATOM     29  H3  UNL     1      34.775 -14.321 -20.799  0.00  0.00    -0.088 HD
ENDBRANCH  19  26
ENDBRANCH   3  19
TORSDOF 6
ENDMDL
