MODEL 1
REMARK VINA RESULT:      -7.8      0.000      0.000
REMARK  Name = 3000540
REMARK  11 active torsions:
REMARK  status: ('A' for Active; 'I' for Inactive)
REMARK    1  A    between atoms: C_1  and  C_3
REMARK    2  A    between atoms: C_1  and  N_17
REMARK    3  A    between atoms: C_1  and  C_30
REMARK    4  A    between atoms: C_4  and  O_10
REMARK    5  A    between atoms: C_5  and  O_12
REMARK    6  A    between atoms: C_6  and  O_14
REMARK    7  A    between atoms: C_7  and  S_8
REMARK    8  A    between atoms: C_18  and  C_22
REMARK    9  A    between atoms: C_21  and  C_27
REMARK   10  A    between atoms: C_27  and  C_28
REMARK   11  A    between atoms: C_30  and  O_32
REMARK                            x       y       z     vdW  Elec       q    Type
REMARK                         _______ _______ _______ _____ _____    ______ ____
ROOT
ATOM      1  C   UNL     1      33.557 -14.242 -24.431  0.00  0.00    +0.128 C 
ENDROOT
BRANCH   1   3
ATOM      2  O   UNL     1      34.936 -16.113 -23.904  0.00  0.00    -0.341 OA
ATOM      3  C   UNL     1      33.773 -15.397 -23.457  0.00  0.00    +0.166 C 
ATOM      4  C   UNL     1      33.946 -14.915 -22.012  0.00  0.00    +0.168 C 
ATOM      5  C   UNL     1      34.277 -16.095 -21.096  0.00  0.00    +0.170 C 
ATOM      6  C   UNL     1      35.481 -16.864 -21.640  0.00  0.00    +0.177 C 
ATOM      7  C   UNL     1      35.284 -17.255 -23.112  0.00  0.00    +0.192 C 
BRANCH   7   8
ATOM      8  S   UNL     1      34.142 -18.666 -23.367  0.00  0.00    -0.109 S 
ATOM      9  C   UNL     1      34.465 -18.927 -25.123  0.00  0.00    +0.072 C 
ENDBRANCH   7   8
BRANCH   4  10
ATOM     10  O   UNL     1      35.009 -13.959 -21.966  0.00  0.00    -0.379 OA
ATOM     11  H   UNL     1      34.649 -13.088 -21.739  0.00  0.00    +0.211 HD
ENDBRANCH   4  10
BRANCH   5  12
ATOM     12  O   UNL     1      34.577 -15.622 -19.785  0.00  0.00    -0.379 OA
ATOM     13  H   UNL     1      35.167 -16.251 -19.341  0.00  0.00    +0.211 HD
ENDBRANCH   5  12
BRANCH   6  14
ATOM     14  O   UNL     1      35.751 -18.013 -20.844  0.00  0.00    -0.379 OA
ATOM     15  H   UNL     1      36.525 -17.844 -20.284  0.00  0.00    +0.211 HD
ENDBRANCH   6  14
ENDBRANCH   1   3
BRANCH   1  17
ATOM     16  O   UNL     1      34.208 -11.473 -23.850  0.00  0.00    -0.277 OA
ATOM     17  N   UNL     1      32.703 -13.248 -23.822  0.00  0.00    -0.303 N 
ATOM     18  C   UNL     1      33.106 -11.946 -23.585  0.00  0.00    +0.203 C 
ATOM     19  H   UNL     1      31.789 -13.511 -23.563  0.00  0.00    +0.149 HD
BRANCH  18  22
ATOM     20  N   UNL     1      32.282 -11.074 -21.527  0.00  0.00    +0.392 N 
ATOM     21  C   UNL     1      32.464  -8.869 -22.207  0.00  0.00    -0.022 C 
ATOM     22  C   UNL     1      32.022 -11.120 -22.971  0.00  0.00    +0.020 C 
ATOM     23  C   UNL     1      32.083  -9.669 -23.452  0.00  0.00    -0.014 C 
ATOM     24  C   UNL     1      31.913  -9.730 -21.080  0.00  0.00    -0.077 C 
ATOM     25  C   UNL     1      31.580 -12.114 -20.786  0.00  0.00    -0.100 C 
ATOM     26  H   UNL     1      33.268 -11.262 -21.345  0.00  0.00    -0.079 HD
BRANCH  21  27
ATOM     27  C   UNL     1      31.916  -7.452 -22.207  0.00  0.00    -0.002 C 
BRANCH  27  28
ATOM     28  C   UNL     1      31.024  -7.195 -23.421  0.00  0.00    -0.000 C 
ATOM     29  C   UNL     1      31.507  -5.998 -24.223  0.00  0.00    -0.000 C 
ENDBRANCH  27  28
ENDBRANCH  21  27
ENDBRANCH  18  22
ENDBRANCH   1  17
BRANCH   1  30
ATOM     30  C   UNL     1      33.000 -14.713 -25.787  0.00  0.00    +0.131 C 
ATOM     31  C   UNL     1      32.999 -13.608 -26.838  0.00  0.00    +0.034 C 
BRANCH  30  32
ATOM     32  O   UNL     1      33.756 -15.806 -26.300  0.00  0.00    -0.383 OA
ATOM     33  H   UNL     1      34.400 -16.095 -25.635  0.00  0.00    +0.210 HD
ENDBRANCH  30  32
ENDBRANCH   1  30
TORSDOF 11
ENDMDL
MODEL 2
REMARK VINA RESULT:      -7.7     11.669     13.890
REMARK  Name = 3000540
REMARK  11 active torsions:
REMARK  status: ('A' for Active; 'I' for Inactive)
REMARK    1  A    between atoms: C_1  and  C_3
REMARK    2  A    between atoms: C_1  and  N_17
REMARK    3  A    between atoms: C_1  and  C_30
REMARK    4  A    between atoms: C_4  and  O_10
REMARK    5  A    between atoms: C_5  and  O_12
REMARK    6  A    between atoms: C_6  and  O_14
REMARK    7  A    between atoms: C_7  and  S_8
REMARK    8  A    between atoms: C_18  and  C_22
REMARK    9  A    between atoms: C_21  and  C_27
REMARK   10  A    between atoms: C_27  and  C_28
REMARK   11  A    between atoms: C_30  and  O_32
REMARK                            x       y       z     vdW  Elec       q    Type
REMARK                         _______ _______ _______ _____ _____    ______ ____
ROOT
ATOM      1  C   UNL     1      34.967 -23.134 -15.439  0.00  0.00    +0.128 C 
ENDROOT
BRANCH   1   3
ATOM      2  O   UNL     1      37.082 -23.575 -14.435  0.00  0.00    -0.341 OA
ATOM      3  C   UNL     1      35.754 -24.108 -14.568  0.00  0.00    +0.166 C 
ATOM      4  C   UNL     1      35.105 -24.316 -13.194  0.00  0.00    +0.168 C 
ATOM      5  C   UNL     1      35.992 -25.203 -12.318  0.00  0.00    +0.170 C 
ATOM      6  C   UNL     1      37.409 -24.634 -12.253  0.00  0.00    +0.177 C 
ATOM      7  C   UNL     1      37.980 -24.376 -13.655  0.00  0.00    +0.192 C 
BRANCH   7   8
ATOM      8  S   UNL     1      38.521 -25.889 -14.535  0.00  0.00    -0.109 S 
ATOM      9  C   UNL     1      40.226 -25.391 -14.852  0.00  0.00    +0.072 C 
ENDBRANCH   7   8
BRANCH   4  10
ATOM     10  O   UNL     1      34.932 -23.043 -12.566  0.00  0.00    -0.379 OA
ATOM     11  H   UNL     1      35.622 -22.916 -11.897  0.00  0.00    +0.211 HD
ENDBRANCH   4  10
BRANCH   5  12
ATOM     12  O   UNL     1      35.455 -25.274 -10.999  0.00  0.00    -0.379 OA
ATOM     13  H   UNL     1      34.496 -25.412 -11.048  0.00  0.00    +0.211 HD
ENDBRANCH   5  12
BRANCH   6  14
ATOM     14  O   UNL     1      38.267 -25.492 -11.510  0.00  0.00    -0.379 OA
ATOM     15  H   UNL     1      37.974 -26.412 -11.614  0.00  0.00    +0.211 HD
ENDBRANCH   6  14
ENDBRANCH   1   3
BRANCH   1  17
ATOM     16  O   UNL     1      32.409 -22.343 -14.317  0.00  0.00    -0.277 OA
ATOM     17  N   UNL     1      33.668 -23.691 -15.736  0.00  0.00    -0.303 N 
ATOM     18  C   UNL     1      32.498 -23.245 -15.146  0.00  0.00    +0.203 C 
ATOM     19  H   UNL     1      33.611 -24.426 -16.391  0.00  0.00    +0.149 HD
BRANCH  18  22
ATOM     20  N   UNL     1      30.357 -24.084 -14.526  0.00  0.00    +0.392 N 
ATOM     21  C   UNL     1      29.227 -22.798 -16.084  0.00  0.00    -0.022 C 
ATOM     22  C   UNL     1      31.294 -23.974 -15.650  0.00  0.00    +0.020 C 
ATOM     23  C   UNL     1      30.563 -23.169 -16.726  0.00  0.00    -0.014 C 
ATOM     24  C   UNL     1      29.014 -23.927 -15.087  0.00  0.00    -0.077 C 
ATOM     25  C   UNL     1      30.501 -25.328 -13.781  0.00  0.00    -0.100 C 
ATOM     26  H   UNL     1      30.552 -23.358 -13.838  0.00  0.00    -0.079 HD
BRANCH  21  27
ATOM     27  C   UNL     1      28.093 -22.653 -17.084  0.00  0.00    -0.002 C 
BRANCH  27  28
ATOM     28  C   UNL     1      26.872 -21.985 -16.453  0.00  0.00    -0.000 C 
ATOM     29  C   UNL     1      26.051 -21.234 -17.489  0.00  0.00    -0.000 C 
ENDBRANCH  27  28
ENDBRANCH  21  27
ENDBRANCH  18  22
ENDBRANCH   1  17
BRANCH   1  30
ATOM     30  C   UNL     1      35.724 -22.749 -16.723  0.00  0.00    +0.131 C 
ATOM     31  C   UNL     1      34.789 -22.393 -17.874  0.00  0.00    +0.034 C 
BRANCH  30  32
ATOM     32  O   UNL     1      36.584 -21.635 -16.496  0.00  0.00    -0.383 OA
ATOM     33  H   UNL     1      36.615 -21.082 -17.292  0.00  0.00    +0.210 HD
ENDBRANCH  30  32
ENDBRANCH   1  30
TORSDOF 11
ENDMDL
MODEL 3
REMARK VINA RESULT:      -7.7      3.105      7.833
REMARK  Name = 3000540
REMARK  11 active torsions:
REMARK  status: ('A' for Active; 'I' for Inactive)
REMARK    1  A    between atoms: C_1  and  C_3
REMARK    2  A    between atoms: C_1  and  N_17
REMARK    3  A    between atoms: C_1  and  C_30
REMARK    4  A    between atoms: C_4  and  O_10
REMARK    5  A    between atoms: C_5  and  O_12
REMARK    6  A    between atoms: C_6  and  O_14
REMARK    7  A    between atoms: C_7  and  S_8
REMARK    8  A    between atoms: C_18  and  C_22
REMARK    9  A    between atoms: C_21  and  C_27
REMARK   10  A    between atoms: C_27  and  C_28
REMARK   11  A    between atoms: C_30  and  O_32
REMARK                            x       y       z     vdW  Elec       q    Type
REMARK                         _______ _______ _______ _____ _____    ______ ____
ROOT
ATOM      1  C   UNL     1      33.489 -12.196 -24.049  0.00  0.00    +0.128 C 
ENDROOT
BRANCH   1   3
ATOM      2  O   UNL     1      32.737  -9.938 -24.165  0.00  0.00    -0.341 OA
ATOM      3  C   UNL     1      33.317 -10.898 -23.267  0.00  0.00    +0.166 C 
ATOM      4  C   UNL     1      32.445 -11.081 -22.019  0.00  0.00    +0.168 C 
ATOM      5  C   UNL     1      32.205  -9.732 -21.337  0.00  0.00    +0.170 C 
ATOM      6  C   UNL     1      31.644  -8.726 -22.341  0.00  0.00    +0.177 C 
ATOM      7  C   UNL     1      32.517  -8.638 -23.602  0.00  0.00    +0.192 C 
BRANCH   7   8
ATOM      8  S   UNL     1      34.072  -7.696 -23.375  0.00  0.00    -0.109 S 
ATOM      9  C   UNL     1      33.857  -6.537 -24.741  0.00  0.00    +0.072 C 
ENDBRANCH   7   8
BRANCH   4  10
ATOM     10  O   UNL     1      31.193 -11.651 -22.409  0.00  0.00    -0.379 OA
ATOM     11  H   UNL     1      30.754 -11.063 -23.042  0.00  0.00    +0.211 HD
ENDBRANCH   4  10
BRANCH   5  12
ATOM     12  O   UNL     1      31.279  -9.890 -20.264  0.00  0.00    -0.379 OA
ATOM     13  H   UNL     1      30.775 -10.709 -20.390  0.00  0.00    +0.211 HD
ENDBRANCH   5  12
BRANCH   6  14
ATOM     14  O   UNL     1      31.493  -7.443 -21.743  0.00  0.00    -0.379 OA
ATOM     15  H   UNL     1      31.811  -6.761 -22.356  0.00  0.00    +0.211 HD
ENDBRANCH   6  14
ENDBRANCH   1   3
BRANCH   1  17
ATOM     16  O   UNL     1      33.376 -15.070 -24.439  0.00  0.00    -0.277 OA
ATOM     17  N   UNL     1      34.014 -13.221 -23.177  0.00  0.00    -0.303 N 
ATOM     18  C   UNL     1      33.911 -14.574 -23.451  0.00  0.00    +0.203 C 
ATOM     19  H   UNL     1      34.467 -12.945 -22.347  0.00  0.00    +0.149 HD
BRANCH  18  22
ATOM     20  N   UNL     1      33.483 -15.970 -21.569  0.00  0.00    +0.392 N 
ATOM     21  C   UNL     1      34.478 -17.829 -22.524  0.00  0.00    -0.022 C 
ATOM     22  C   UNL     1      34.559 -15.416 -22.400  0.00  0.00    +0.020 C 
ATOM     23  C   UNL     1      35.275 -16.621 -23.012  0.00  0.00    -0.014 C 
ATOM     24  C   UNL     1      33.890 -17.330 -21.212  0.00  0.00    -0.077 C 
ATOM     25  C   UNL     1      33.190 -15.157 -20.396  0.00  0.00    -0.100 C 
ATOM     26  H   UNL     1      32.608 -15.977 -22.092  0.00  0.00    -0.079 HD
BRANCH  21  27
ATOM     27  C   UNL     1      35.315 -19.087 -22.370  0.00  0.00    -0.002 C 
BRANCH  27  28
ATOM     28  C   UNL     1      36.085 -19.090 -21.050  0.00  0.00    -0.000 C 
ATOM     29  C   UNL     1      35.975 -20.431 -20.344  0.00  0.00    -0.000 C 
ENDBRANCH  27  28
ENDBRANCH  21  27
ENDBRANCH  18  22
ENDBRANCH   1  17
BRANCH   1  30
ATOM     30  C   UNL     1      34.367 -12.016 -25.302  0.00  0.00    +0.131 C 
ATOM     31  C   UNL     1      33.567 -12.090 -26.598  0.00  0.00    +0.034 C 
BRANCH  30  32
ATOM     32  O   UNL     1      35.046 -10.763 -25.276  0.00  0.00    -0.383 OA
ATOM     33  H   UNL     1      35.929 -10.865 -25.663  0.00  0.00    +0.210 HD
ENDBRANCH  30  32
ENDBRANCH   1  30
TORSDOF 11
ENDMDL
MODEL 4
REMARK VINA RESULT:      -7.6      9.669     13.220
REMARK  Name = 3000540
REMARK  11 active torsions:
REMARK  status: ('A' for Active; 'I' for Inactive)
REMARK    1  A    between atoms: C_1  and  C_3
REMARK    2  A    between atoms: C_1  and  N_17
REMARK    3  A    between atoms: C_1  and  C_30
REMARK    4  A    between atoms: C_4  and  O_10
REMARK    5  A    between atoms: C_5  and  O_12
REMARK    6  A    between atoms: C_6  and  O_14
REMARK    7  A    between atoms: C_7  and  S_8
REMARK    8  A    between atoms: C_18  and  C_22
REMARK    9  A    between atoms: C_21  and  C_27
REMARK   10  A    between atoms: C_27  and  C_28
REMARK   11  A    between atoms: C_30  and  O_32
REMARK                            x       y       z     vdW  Elec       q    Type
REMARK                         _______ _______ _______ _____ _____    ______ ____
ROOT
ATOM      1  C   UNL     1      34.032 -24.481 -14.978  0.00  0.00    +0.128 C 
ENDROOT
BRANCH   1   3
ATOM      2  O   UNL     1      36.305 -24.118 -14.362  0.00  0.00    -0.341 OA
ATOM      3  C   UNL     1      35.138 -24.877 -14.005  0.00  0.00    +0.166 C 
ATOM      4  C   UNL     1      34.746 -24.628 -12.544  0.00  0.00    +0.168 C 
ATOM      5  C   UNL     1      35.927 -24.928 -11.619  0.00  0.00    +0.170 C 
ATOM      6  C   UNL     1      37.161 -24.147 -12.069  0.00  0.00    +0.177 C 
ATOM      7  C   UNL     1      37.464 -24.376 -13.557  0.00  0.00    +0.192 C 
BRANCH   7   8
ATOM      8  S   UNL     1      38.232 -25.998 -13.927  0.00  0.00    -0.109 S 
ATOM      9  C   UNL     1      39.881 -25.397 -14.345  0.00  0.00    +0.072 C 
ENDBRANCH   7   8
BRANCH   4  10
ATOM     10  O   UNL     1      34.355 -23.260 -12.396  0.00  0.00    -0.379 OA
ATOM     11  H   UNL     1      35.143 -22.714 -12.255  0.00  0.00    +0.211 HD
ENDBRANCH   4  10
BRANCH   5  12
ATOM     12  O   UNL     1      35.601 -24.559 -10.281  0.00  0.00    -0.379 OA
ATOM     13  H   UNL     1      34.736 -24.120 -10.268  0.00  0.00    +0.211 HD
ENDBRANCH   5  12
BRANCH   6  14
ATOM     14  O   UNL     1      38.291 -24.479 -11.269  0.00  0.00    -0.379 OA
ATOM     15  H   UNL     1      38.812 -25.165 -11.714  0.00  0.00    +0.211 HD
ENDBRANCH   6  14
ENDBRANCH   1   3
BRANCH   1  17
ATOM     16  O   UNL     1      33.889 -24.093 -17.851  0.00  0.00    -0.277 OA
ATOM     17  N   UNL     1      34.441 -23.316 -15.728  0.00  0.00    -0.303 N 
ATOM     18  C   UNL     1      34.333 -23.224 -17.105  0.00  0.00    +0.203 C 
ATOM     19  H   UNL     1      34.816 -22.549 -15.236  0.00  0.00    +0.149 HD
BRANCH  18  22
ATOM     20  N   UNL     1      36.238 -22.037 -17.902  0.00  0.00    +0.392 N 
ATOM     21  C   UNL     1      35.296 -21.602 -19.971  0.00  0.00    -0.022 C 
ATOM     22  C   UNL     1      34.803 -21.904 -17.624  0.00  0.00    +0.020 C 
ATOM     23  C   UNL     1      34.148 -21.565 -18.964  0.00  0.00    -0.014 C 
ATOM     24  C   UNL     1      36.503 -21.256 -19.111  0.00  0.00    -0.077 C 
ATOM     25  C   UNL     1      37.078 -21.626 -16.785  0.00  0.00    -0.100 C 
ATOM     26  H   UNL     1      36.475 -23.019 -18.043  0.00  0.00    -0.079 HD
BRANCH  21  27
ATOM     27  C   UNL     1      35.103 -20.660 -21.147  0.00  0.00    -0.002 C 
BRANCH  27  28
ATOM     28  C   UNL     1      33.938 -19.699 -20.909  0.00  0.00    -0.000 C 
ATOM     29  C   UNL     1      34.306 -18.274 -21.289  0.00  0.00    -0.000 C 
ENDBRANCH  27  28
ENDBRANCH  21  27
ENDBRANCH  18  22
ENDBRANCH   1  17
BRANCH   1  30
ATOM     30  C   UNL     1      32.682 -24.254 -14.273  0.00  0.00    +0.131 C 
ATOM     31  C   UNL     1      31.786 -23.272 -15.019  0.00  0.00    +0.034 C 
BRANCH  30  32
ATOM     32  O   UNL     1      31.967 -25.478 -14.129  0.00  0.00    -0.383 OA
ATOM     33  H   UNL     1      31.300 -25.383 -13.432  0.00  0.00    +0.210 HD
ENDBRANCH  30  32
ENDBRANCH   1  30
TORSDOF 11
ENDMDL
MODEL 5
REMARK VINA RESULT:      -7.5      9.555     13.181
REMARK  Name = 3000540
REMARK  11 active torsions:
REMARK  status: ('A' for Active; 'I' for Inactive)
REMARK    1  A    between atoms: C_1  and  C_3
REMARK    2  A    between atoms: C_1  and  N_17
REMARK    3  A    between atoms: C_1  and  C_30
REMARK    4  A    between atoms: C_4  and  O_10
REMARK    5  A    between atoms: C_5  and  O_12
REMARK    6  A    between atoms: C_6  and  O_14
REMARK    7  A    between atoms: C_7  and  S_8
REMARK    8  A    between atoms: C_18  and  C_22
REMARK    9  A    between atoms: C_21  and  C_27
REMARK   10  A    between atoms: C_27  and  C_28
REMARK   11  A    between atoms: C_30  and  O_32
REMARK                            x       y       z     vdW  Elec       q    Type
REMARK                         _______ _______ _______ _____ _____    ______ ____
ROOT
ATOM      1  C   UNL     1      34.363 -24.274 -15.408  0.00  0.00    +0.128 C 
ENDROOT
BRANCH   1   3
ATOM      2  O   UNL     1      35.239 -24.786 -13.252  0.00  0.00    -0.341 OA
ATOM      3  C   UNL     1      35.637 -24.525 -14.608  0.00  0.00    +0.166 C 
ATOM      4  C   UNL     1      36.459 -25.690 -15.174  0.00  0.00    +0.168 C 
ATOM      5  C   UNL     1      37.660 -25.979 -14.271  0.00  0.00    +0.170 C 
ATOM      6  C   UNL     1      37.199 -26.191 -12.830  0.00  0.00    +0.177 C 
ATOM      7  C   UNL     1      36.319 -25.030 -12.341  0.00  0.00    +0.192 C 
BRANCH   7   8
ATOM      8  S   UNL     1      37.249 -23.506 -11.925  0.00  0.00    -0.109 S 
ATOM      9  C   UNL     1      36.491 -23.189 -10.319  0.00  0.00    +0.072 C 
ENDBRANCH   7   8
BRANCH   4  10
ATOM     10  O   UNL     1      35.627 -26.850 -15.250  0.00  0.00    -0.379 OA
ATOM     11  H   UNL     1      35.661 -27.328 -14.408  0.00  0.00    +0.211 HD
ENDBRANCH   4  10
BRANCH   5  12
ATOM     12  O   UNL     1      38.336 -27.149 -14.724  0.00  0.00    -0.379 OA
ATOM     13  H   UNL     1      38.202 -27.251 -15.679  0.00  0.00    +0.211 HD
ENDBRANCH   5  12
BRANCH   6  14
ATOM     14  O   UNL     1      38.312 -26.378 -11.963  0.00  0.00    -0.379 OA
ATOM     15  H   UNL     1      38.306 -27.285 -11.619  0.00  0.00    +0.211 HD
ENDBRANCH   6  14
ENDBRANCH   1   3
BRANCH   1  17
ATOM     16  O   UNL     1      33.751 -23.943 -18.226  0.00  0.00    -0.277 OA
ATOM     17  N   UNL     1      34.519 -23.080 -16.206  0.00  0.00    -0.303 N 
ATOM     18  C   UNL     1      34.198 -23.020 -17.551  0.00  0.00    +0.203 C 
ATOM     19  H   UNL     1      34.872 -22.268 -15.772  0.00  0.00    +0.149 HD
BRANCH  18  22
ATOM     20  N   UNL     1      35.605 -21.762 -19.005  0.00  0.00    +0.392 N 
ATOM     21  C   UNL     1      33.877 -21.187 -20.434  0.00  0.00    -0.022 C 
ATOM     22  C   UNL     1      34.431 -21.661 -18.129  0.00  0.00    +0.020 C 
ATOM     23  C   UNL     1      33.273 -21.232 -19.032  0.00  0.00    -0.014 C 
ATOM     24  C   UNL     1      35.344 -20.894 -20.154  0.00  0.00    -0.077 C 
ATOM     25  C   UNL     1      36.852 -21.426 -18.331  0.00  0.00    -0.100 C 
ATOM     26  H   UNL     1      35.736 -22.729 -19.301  0.00  0.00    -0.079 HD
BRANCH  21  27
ATOM     27  C   UNL     1      33.221 -20.164 -21.345  0.00  0.00    -0.002 C 
BRANCH  27  28
ATOM     28  C   UNL     1      34.166 -19.006 -21.661  0.00  0.00    -0.000 C 
ATOM     29  C   UNL     1      34.578 -19.005 -23.124  0.00  0.00    -0.000 C 
ENDBRANCH  27  28
ENDBRANCH  21  27
ENDBRANCH  18  22
ENDBRANCH   1  17
BRANCH   1  30
ATOM     30  C   UNL     1      33.112 -24.195 -14.512  0.00  0.00    +0.131 C 
ATOM     31  C   UNL     1      31.931 -23.526 -15.207  0.00  0.00    +0.034 C 
BRANCH  30  32
ATOM     32  O   UNL     1      32.699 -25.493 -14.094  0.00  0.00    -0.383 OA
ATOM     33  H   UNL     1      33.005 -26.152 -14.736  0.00  0.00    +0.210 HD
ENDBRANCH  30  32
ENDBRANCH   1  30
TORSDOF 11
ENDMDL
MODEL 6
REMARK VINA RESULT:      -7.1      1.645      2.022
REMARK  Name = 3000540
REMARK  11 active torsions:
REMARK  status: ('A' for Active; 'I' for Inactive)
REMARK    1  A    between atoms: C_1  and  C_3
REMARK    2  A    between atoms: C_1  and  N_17
REMARK    3  A    between atoms: C_1  and  C_30
REMARK    4  A    between atoms: C_4  and  O_10
REMARK    5  A    between atoms: C_5  and  O_12
REMARK    6  A    between atoms: C_6  and  O_14
REMARK    7  A    between atoms: C_7  and  S_8
REMARK    8  A    between atoms: C_18  and  C_22
REMARK    9  A    between atoms: C_21  and  C_27
REMARK   10  A    between atoms: C_27  and  C_28
REMARK   11  A    between atoms: C_30  and  O_32
REMARK                            x       y       z     vdW  Elec       q    Type
REMARK                         _______ _______ _______ _____ _____    ______ ____
ROOT
ATOM      1  C   UNL     1      33.640 -12.371 -23.942  0.00  0.00    +0.128 C 
ENDROOT
BRANCH   1   3
ATOM      2  O   UNL     1      34.759 -14.380 -23.317  0.00  0.00    -0.341 OA
ATOM      3  C   UNL     1      33.450 -13.801 -23.444  0.00  0.00    +0.166 C 
ATOM      4  C   UNL     1      32.691 -13.858 -22.113  0.00  0.00    +0.168 C 
ATOM      5  C   UNL     1      32.631 -15.298 -21.599  0.00  0.00    +0.170 C 
ATOM      6  C   UNL     1      34.037 -15.895 -21.535  0.00  0.00    +0.177 C 
ATOM      7  C   UNL     1      34.777 -15.743 -22.873  0.00  0.00    +0.192 C 
BRANCH   7   8
ATOM      8  S   UNL     1      34.229 -16.915 -24.171  0.00  0.00    -0.109 S 
ATOM      9  C   UNL     1      35.366 -18.261 -23.780  0.00  0.00    +0.072 C 
ENDBRANCH   7   8
BRANCH   4  10
ATOM     10  O   UNL     1      33.367 -13.036 -21.158  0.00  0.00    -0.379 OA
ATOM     11  H   UNL     1      32.747 -12.383 -20.799  0.00  0.00    +0.211 HD
ENDBRANCH   4  10
BRANCH   5  12
ATOM     12  O   UNL     1      32.052 -15.324 -20.296  0.00  0.00    -0.379 OA
ATOM     13  H   UNL     1      32.305 -16.145 -19.846  0.00  0.00    +0.211 HD
ENDBRANCH   5  12
BRANCH   6  14
ATOM     14  O   UNL     1      33.990 -17.261 -21.138  0.00  0.00    -0.379 OA
ATOM     15  H   UNL     1      33.623 -17.324 -20.241  0.00  0.00    +0.211 HD
ENDBRANCH   6  14
ENDBRANCH   1   3
BRANCH   1  17
ATOM     16  O   UNL     1      33.930  -9.523 -23.463  0.00  0.00    -0.277 OA
ATOM     17  N   UNL     1      32.711 -11.496 -23.266  0.00  0.00    -0.303 N 
ATOM     18  C   UNL     1      32.939 -10.142 -23.086  0.00  0.00    +0.203 C 
ATOM     19  H   UNL     1      31.874 -11.880 -22.915  0.00  0.00    +0.149 HD
BRANCH  18  22
ATOM     20  N   UNL     1      32.341  -8.949 -21.113  0.00  0.00    +0.392 N 
ATOM     21  C   UNL     1      31.686  -7.054 -22.270  0.00  0.00    -0.022 C 
ATOM     22  C   UNL     1      31.809  -9.466 -22.380  0.00  0.00    +0.020 C 
ATOM     23  C   UNL     1      31.317  -8.242 -23.155  0.00  0.00    -0.014 C 
ATOM     24  C   UNL     1      31.679  -7.665 -20.876  0.00  0.00    -0.077 C 
ATOM     25  C   UNL     1      32.167  -9.873 -20.000  0.00  0.00    -0.100 C 
ATOM     26  H   UNL     1      33.352  -8.831 -21.182  0.00  0.00    -0.079 HD
BRANCH  21  27
ATOM     27  C   UNL     1      30.742  -5.873 -22.415  0.00  0.00    -0.002 C 
BRANCH  27  28
ATOM     28  C   UNL     1      31.383  -4.738 -23.213  0.00  0.00    -0.000 C 
ATOM     29  C   UNL     1      30.989  -4.797 -24.680  0.00  0.00    -0.000 C 
ENDBRANCH  27  28
ENDBRANCH  21  27
ENDBRANCH  18  22
ENDBRANCH   1  17
BRANCH   1  30
ATOM     30  C   UNL     1      33.512 -12.259 -25.472  0.00  0.00    +0.131 C 
ATOM     31  C   UNL     1      34.659 -11.479 -26.104  0.00  0.00    +0.034 C 
BRANCH  30  32
ATOM     32  O   UNL     1      33.470 -13.548 -26.079  0.00  0.00    -0.383 OA
ATOM     33  H   UNL     1      32.948 -14.149 -25.526  0.00  0.00    +0.210 HD
ENDBRANCH  30  32
ENDBRANCH   1  30
TORSDOF 11
ENDMDL
MODEL 7
REMARK VINA RESULT:      -7.1      3.551      8.535
REMARK  Name = 3000540
REMARK  11 active torsions:
REMARK  status: ('A' for Active; 'I' for Inactive)
REMARK    1  A    between atoms: C_1  and  C_3
REMARK    2  A    between atoms: C_1  and  N_17
REMARK    3  A    between atoms: C_1  and  C_30
REMARK    4  A    between atoms: C_4  and  O_10
REMARK    5  A    between atoms: C_5  and  O_12
REMARK    6  A    between atoms: C_6  and  O_14
REMARK    7  A    between atoms: C_7  and  S_8
REMARK    8  A    between atoms: C_18  and  C_22
REMARK    9  A    between atoms: C_21  and  C_27
REMARK   10  A    between atoms: C_27  and  C_28
REMARK   11  A    between atoms: C_30  and  O_32
REMARK                            x       y       z     vdW  Elec       q    Type
REMARK                         _______ _______ _______ _____ _____    ______ ____
ROOT
ATOM      1  C   UNL     1      33.905 -14.836 -21.715  0.00  0.00    +0.128 C 
ENDROOT
BRANCH   1   3
ATOM      2  O   UNL     1      34.308 -13.073 -23.267  0.00  0.00    -0.341 OA
ATOM      3  C   UNL     1      33.430 -14.181 -23.008  0.00  0.00    +0.166 C 
ATOM      4  C   UNL     1      33.420 -15.161 -24.187  0.00  0.00    +0.168 C 
ATOM      5  C   UNL     1      33.053 -14.431 -25.481  0.00  0.00    +0.170 C 
ATOM      6  C   UNL     1      33.971 -13.226 -25.686  0.00  0.00    +0.177 C 
ATOM      7  C   UNL     1      34.000 -12.320 -24.446  0.00  0.00    +0.192 C 
BRANCH   7   8
ATOM      8  S   UNL     1      32.509 -11.274 -24.246  0.00  0.00    -0.109 S 
ATOM      9  C   UNL     1      33.329  -9.798 -23.611  0.00  0.00    +0.072 C 
ENDBRANCH   7   8
BRANCH   4  10
ATOM     10  O   UNL     1      34.720 -15.743 -24.318  0.00  0.00    -0.379 OA
ATOM     11  H   UNL     1      35.091 -15.905 -23.437  0.00  0.00    +0.211 HD
ENDBRANCH   4  10
BRANCH   5  12
ATOM     12  O   UNL     1      33.184 -15.315 -26.591  0.00  0.00    -0.379 OA
ATOM     13  H   UNL     1      32.507 -16.007 -26.536  0.00  0.00    +0.211 HD
ENDBRANCH   5  12
BRANCH   6  14
ATOM     14  O   UNL     1      33.589 -12.488 -26.841  0.00  0.00    -0.379 OA
ATOM     15  H   UNL     1      32.673 -12.183 -26.742  0.00  0.00    +0.211 HD
ENDBRANCH   6  14
ENDBRANCH   1   3
BRANCH   1  17
ATOM     16  O   UNL     1      35.379 -16.679 -20.024  0.00  0.00    -0.277 OA
ATOM     17  N   UNL     1      34.130 -16.245 -21.940  0.00  0.00    -0.303 N 
ATOM     18  C   UNL     1      34.850 -17.046 -21.070  0.00  0.00    +0.203 C 
ATOM     19  H   UNL     1      33.753 -16.657 -22.751  0.00  0.00    +0.149 HD
BRANCH  18  22
ATOM     20  N   UNL     1      36.067 -19.083 -20.867  0.00  0.00    +0.392 N 
ATOM     21  C   UNL     1      34.254 -20.268 -20.050  0.00  0.00    -0.022 C 
ATOM     22  C   UNL     1      34.909 -18.468 -21.526  0.00  0.00    +0.020 C 
ATOM     23  C   UNL     1      33.689 -19.259 -21.049  0.00  0.00    -0.014 C 
ATOM     24  C   UNL     1      35.681 -20.458 -20.542  0.00  0.00    -0.077 C 
ATOM     25  C   UNL     1      37.280 -19.027 -21.672  0.00  0.00    -0.100 C 
ATOM     26  H   UNL     1      36.305 -18.562 -20.023  0.00  0.00    -0.079 HD
BRANCH  21  27
ATOM     27  C   UNL     1      33.462 -21.562 -19.982  0.00  0.00    -0.002 C 
BRANCH  27  28
ATOM     28  C   UNL     1      34.048 -22.524 -18.949  0.00  0.00    -0.000 C 
ATOM     29  C   UNL     1      33.055 -22.820 -17.837  0.00  0.00    -0.000 C 
ENDBRANCH  27  28
ENDBRANCH  21  27
ENDBRANCH  18  22
ENDBRANCH   1  17
BRANCH   1  30
ATOM     30  C   UNL     1      32.934 -14.598 -20.544  0.00  0.00    +0.131 C 
ATOM     31  C   UNL     1      32.213 -13.258 -20.639  0.00  0.00    +0.034 C 
BRANCH  30  32
ATOM     32  O   UNL     1      31.947 -15.624 -20.481  0.00  0.00    -0.383 OA
ATOM     33  H   UNL     1      31.237 -15.429 -21.112  0.00  0.00    +0.210 HD
ENDBRANCH  30  32
ENDBRANCH   1  30
TORSDOF 11
ENDMDL
MODEL 8
REMARK VINA RESULT:      -7.0     11.627     14.032
REMARK  Name = 3000540
REMARK  11 active torsions:
REMARK  status: ('A' for Active; 'I' for Inactive)
REMARK    1  A    between atoms: C_1  and  C_3
REMARK    2  A    between atoms: C_1  and  N_17
REMARK    3  A    between atoms: C_1  and  C_30
REMARK    4  A    between atoms: C_4  and  O_10
REMARK    5  A    between atoms: C_5  and  O_12
REMARK    6  A    between atoms: C_6  and  O_14
REMARK    7  A    between atoms: C_7  and  S_8
REMARK    8  A    between atoms: C_18  and  C_22
REMARK    9  A    between atoms: C_21  and  C_27
REMARK   10  A    between atoms: C_27  and  C_28
REMARK   11  A    between atoms: C_30  and  O_32
REMARK                            x       y       z     vdW  Elec       q    Type
REMARK                         _______ _______ _______ _____ _____    ______ ____
ROOT
ATOM      1  C   UNL     1      35.445 -22.666 -15.468  0.00  0.00    +0.128 C 
ENDROOT
BRANCH   1   3
ATOM      2  O   UNL     1      35.267 -24.021 -13.516  0.00  0.00    -0.341 OA
ATOM      3  C   UNL     1      36.227 -23.453 -14.422  0.00  0.00    +0.166 C 
ATOM      4  C   UNL     1      37.103 -24.545 -15.049  0.00  0.00    +0.168 C 
ATOM      5  C   UNL     1      37.772 -25.381 -13.955  0.00  0.00    +0.170 C 
ATOM      6  C   UNL     1      36.722 -25.915 -12.982  0.00  0.00    +0.177 C 
ATOM      7  C   UNL     1      35.826 -24.789 -12.443  0.00  0.00    +0.192 C 
BRANCH   7   8
ATOM      8  S   UNL     1      36.622 -23.742 -11.167  0.00  0.00    -0.109 S 
ATOM      9  C   UNL     1      35.591 -24.233  -9.770  0.00  0.00    +0.072 C 
ENDBRANCH   7   8
BRANCH   4  10
ATOM     10  O   UNL     1      36.283 -25.387 -15.862  0.00  0.00    -0.379 OA
ATOM     11  H   UNL     1      35.402 -25.463 -15.463  0.00  0.00    +0.211 HD
ENDBRANCH   4  10
BRANCH   5  12
ATOM     12  O   UNL     1      38.468 -26.478 -14.542  0.00  0.00    -0.379 OA
ATOM     13  H   UNL     1      38.964 -26.170 -15.316  0.00  0.00    +0.211 HD
ENDBRANCH   5  12
BRANCH   6  14
ATOM     14  O   UNL     1      37.336 -26.625 -11.912  0.00  0.00    -0.379 OA
ATOM     15  H   UNL     1      37.480 -26.023 -11.165  0.00  0.00    +0.211 HD
ENDBRANCH   6  14
ENDBRANCH   1   3
BRANCH   1  17
ATOM     16  O   UNL     1      32.824 -22.088 -14.364  0.00  0.00    -0.277 OA
ATOM     17  N   UNL     1      34.203 -23.344 -15.756  0.00  0.00    -0.303 N 
ATOM     18  C   UNL     1      32.996 -22.993 -15.176  0.00  0.00    +0.203 C 
ATOM     19  H   UNL     1      34.214 -24.093 -16.396  0.00  0.00    +0.149 HD
BRANCH  18  22
ATOM     20  N   UNL     1      30.992 -24.099 -14.516  0.00  0.00    +0.392 N 
ATOM     21  C   UNL     1      29.661 -22.894 -15.976  0.00  0.00    -0.022 C 
ATOM     22  C   UNL     1      31.865 -23.838 -15.667  0.00  0.00    +0.020 C 
ATOM     23  C   UNL     1      31.002 -23.083 -16.681  0.00  0.00    -0.014 C 
ATOM     24  C   UNL     1      29.618 -24.078 -15.021  0.00  0.00    -0.077 C 
ATOM     25  C   UNL     1      31.308 -25.345 -13.830  0.00  0.00    -0.100 C 
ATOM     26  H   UNL     1      31.131 -23.382 -13.804  0.00  0.00    -0.079 HD
BRANCH  21  27
ATOM     27  C   UNL     1      28.477 -22.844 -16.928  0.00  0.00    -0.002 C 
BRANCH  27  28
ATOM     28  C   UNL     1      27.231 -22.283 -16.244  0.00  0.00    -0.000 C 
ATOM     29  C   UNL     1      26.347 -21.533 -17.226  0.00  0.00    -0.000 C 
ENDBRANCH  27  28
ENDBRANCH  21  27
ENDBRANCH  18  22
ENDBRANCH   1  17
BRANCH   1  30
ATOM     30  C   UNL     1      36.263 -22.416 -16.749  0.00  0.00    +0.131 C 
ATOM     31  C   UNL     1      35.385 -22.165 -17.969  0.00  0.00    +0.034 C 
BRANCH  30  32
ATOM     32  O   UNL     1      37.130 -21.296 -16.593  0.00  0.00    -0.383 OA
ATOM     33  H   UNL     1      37.461 -21.267 -15.682  0.00  0.00    +0.210 HD
ENDBRANCH  30  32
ENDBRANCH   1  30
TORSDOF 11
ENDMDL
MODEL 9
REMARK VINA RESULT:      -7.0      1.473      2.482
REMARK  Name = 3000540
REMARK  11 active torsions:
REMARK  status: ('A' for Active; 'I' for Inactive)
REMARK    1  A    between atoms: C_1  and  C_3
REMARK    2  A    between atoms: C_1  and  N_17
REMARK    3  A    between atoms: C_1  and  C_30
REMARK    4  A    between atoms: C_4  and  O_10
REMARK    5  A    between atoms: C_5  and  O_12
REMARK    6  A    between atoms: C_6  and  O_14
REMARK    7  A    between atoms: C_7  and  S_8
REMARK    8  A    between atoms: C_18  and  C_22
REMARK    9  A    between atoms: C_21  and  C_27
REMARK   10  A    between atoms: C_27  and  C_28
REMARK   11  A    between atoms: C_30  and  O_32
REMARK                            x       y       z     vdW  Elec       q    Type
REMARK                         _______ _______ _______ _____ _____    ______ ____
ROOT
ATOM      1  C   UNL     1      33.730 -14.187 -25.023  0.00  0.00    +0.128 C 
ENDROOT
BRANCH   1   3
ATOM      2  O   UNL     1      34.930 -16.239 -24.860  0.00  0.00    -0.341 OA
ATOM      3  C   UNL     1      33.821 -15.523 -24.292  0.00  0.00    +0.166 C 
ATOM      4  C   UNL     1      33.995 -15.348 -22.779  0.00  0.00    +0.168 C 
ATOM      5  C   UNL     1      34.200 -16.708 -22.108  0.00  0.00    +0.170 C 
ATOM      6  C   UNL     1      35.349 -17.460 -22.780  0.00  0.00    +0.177 C 
ATOM      7  C   UNL     1      35.159 -17.540 -24.303  0.00  0.00    +0.192 C 
BRANCH   7   8
ATOM      8  S   UNL     1      33.908 -18.767 -24.840  0.00  0.00    -0.109 S 
ATOM      9  C   UNL     1      35.034 -20.142 -25.152  0.00  0.00    +0.072 C 
ENDBRANCH   7   8
BRANCH   4  10
ATOM     10  O   UNL     1      35.134 -14.517 -22.537  0.00  0.00    -0.379 OA
ATOM     11  H   UNL     1      35.084 -13.730 -23.100  0.00  0.00    +0.211 HD
ENDBRANCH   4  10
BRANCH   5  12
ATOM     12  O   UNL     1      34.504 -16.527 -20.727  0.00  0.00    -0.379 OA
ATOM     13  H   UNL     1      35.169 -17.177 -20.454  0.00  0.00    +0.211 HD
ENDBRANCH   5  12
BRANCH   6  14
ATOM     14  O   UNL     1      35.498 -18.761 -22.222  0.00  0.00    -0.379 OA
ATOM     15  H   UNL     1      35.510 -18.698 -21.254  0.00  0.00    +0.211 HD
ENDBRANCH   6  14
ENDBRANCH   1   3
BRANCH   1  17
ATOM     16  O   UNL     1      34.438 -11.381 -25.251  0.00  0.00    -0.277 OA
ATOM     17  N   UNL     1      33.457 -13.133 -24.074  0.00  0.00    -0.303 N 
ATOM     18  C   UNL     1      33.836 -11.817 -24.273  0.00  0.00    +0.203 C 
ATOM     19  H   UNL     1      32.977 -13.362 -23.244  0.00  0.00    +0.149 HD
BRANCH  18  22
ATOM     20  N   UNL     1      32.497  -9.927 -23.718  0.00  0.00    +0.392 N 
ATOM     21  C   UNL     1      31.186 -11.101 -22.215  0.00  0.00    -0.022 C 
ATOM     22  C   UNL     1      33.408 -10.928 -23.150  0.00  0.00    +0.020 C 
ATOM     23  C   UNL     1      32.589 -11.695 -22.111  0.00  0.00    -0.014 C 
ATOM     24  C   UNL     1      31.459  -9.689 -22.713  0.00  0.00    -0.077 C 
ATOM     25  C   UNL     1      33.172  -8.698 -24.115  0.00  0.00    -0.100 C 
ATOM     26  H   UNL     1      32.090 -10.278 -24.585  0.00  0.00    -0.079 HD
BRANCH  21  27
ATOM     27  C   UNL     1      30.412 -11.140 -20.908  0.00  0.00    -0.002 C 
BRANCH  27  28
ATOM     28  C   UNL     1      31.335 -11.407 -19.719  0.00  0.00    -0.000 C 
ATOM     29  C   UNL     1      31.583 -10.144 -18.911  0.00  0.00    -0.000 C 
ENDBRANCH  27  28
ENDBRANCH  21  27
ENDBRANCH  18  22
ENDBRANCH   1  17
BRANCH   1  30
ATOM     30  C   UNL     1      32.691 -14.208 -26.160  0.00  0.00    +0.131 C 
ATOM     31  C   UNL     1      33.135 -13.407 -27.379  0.00  0.00    +0.034 C 
BRANCH  30  32
ATOM     32  O   UNL     1      32.422 -15.541 -26.584  0.00  0.00    -0.383 OA
ATOM     33  H   UNL     1      32.863 -15.706 -27.432  0.00  0.00    +0.210 HD
ENDBRANCH  30  32
ENDBRANCH   1  30
TORSDOF 11
ENDMDL
