MODEL 1
REMARK VINA RESULT:      -8.7      0.000      0.000
REMARK  Name = 5336
REMARK  3 active torsions:
REMARK  status: ('A' for Active; 'I' for Inactive)
REMARK    1  A    between atoms: S_1  and  C_4
REMARK    2  A    between atoms: S_1  and  N_13
REMARK    3  A    between atoms: C_7  and  N_10
REMARK                            x       y       z     vdW  Elec       q    Type
REMARK                         _______ _______ _______ _____ _____    ______ ____
ROOT
ATOM      1  S   UNL     1      35.344 -18.495 -22.832  0.00  0.00    +0.075 S 
ATOM      2  O   UNL     1      36.774 -18.296 -22.636  0.00  0.00    -0.150 OA
ATOM      3  O   UNL     1      34.895 -19.653 -23.597  0.00  0.00    -0.150 OA
ENDROOT
BRANCH   1   4
ATOM      4  N   UNL     1      34.587 -18.499 -21.285  0.00  0.00    -0.199 N 
ATOM      5  H   UNL     1      34.203 -17.675 -20.907  0.00  0.00    +0.175 HD
ATOM      6  N   UNL     1      35.714 -20.221 -20.133  0.00  0.00    -0.228 NA
ATOM      7  C   UNL     1      34.531 -19.741 -20.562  0.00  0.00    +0.147 C 
ATOM      8  C   UNL     1      33.310 -20.352 -20.352  0.00  0.00    +0.036 C 
ATOM      9  C   UNL     1      33.304 -21.551 -19.648  0.00  0.00    +0.005 C 
ATOM     10  C   UNL     1      34.502 -22.085 -19.186  0.00  0.00    +0.021 C 
ATOM     11  C   UNL     1      35.669 -21.388 -19.453  0.00  0.00    +0.100 C 
ENDBRANCH   1   4
BRANCH   1  12
ATOM     12  C   UNL     1      34.702 -17.052 -23.574  0.00  0.00    +0.125 C 
ATOM     13  C   UNL     1      34.562 -15.884 -22.823  0.00  0.00    +0.021 C 
ATOM     14  C   UNL     1      34.327 -17.065 -24.918  0.00  0.00    +0.021 C 
ATOM     15  C   UNL     1      33.674 -14.744 -24.759  0.00  0.00    +0.042 C 
ATOM     16  C   UNL     1      34.049 -14.731 -23.415  0.00  0.00    +0.015 C 
ATOM     17  C   UNL     1      33.814 -15.912 -25.510  0.00  0.00    +0.015 C 
BRANCH  15  18
ATOM     18  N   UNL     1      33.156 -13.578 -25.359  0.00  0.00    -0.357 N 
ATOM     19  H   UNL     1      32.206 -13.345 -25.243  0.00  0.00    +0.142 HD
ATOM     20  H   UNL     1      33.743 -12.996 -25.893  0.00  0.00    +0.142 HD
ENDBRANCH  15  18
ENDBRANCH   1  12
TORSDOF 3
ENDMDL
MODEL 2
REMARK VINA RESULT:      -8.4      4.236      7.538
REMARK  Name = 5336
REMARK  3 active torsions:
REMARK  status: ('A' for Active; 'I' for Inactive)
REMARK    1  A    between atoms: S_1  and  C_4
REMARK    2  A    between atoms: S_1  and  N_13
REMARK    3  A    between atoms: C_7  and  N_10
REMARK                            x       y       z     vdW  Elec       q    Type
REMARK                         _______ _______ _______ _____ _____    ______ ____
ROOT
ATOM      1  S   UNL     1      33.153 -13.418 -23.540  0.00  0.00    +0.075 S 
ATOM      2  O   UNL     1      32.721 -13.869 -24.857  0.00  0.00    -0.150 OA
ATOM      3  O   UNL     1      34.051 -12.272 -23.449  0.00  0.00    -0.150 OA
ENDROOT
BRANCH   1   4
ATOM      4  N   UNL     1      31.747 -13.125 -22.588  0.00  0.00    -0.199 N 
ATOM      5  H   UNL     1      30.971 -13.728 -22.632  0.00  0.00    +0.175 HD
ATOM      6  N   UNL     1      31.735 -10.779 -22.346  0.00  0.00    -0.228 NA
ATOM      7  C   UNL     1      31.742 -11.974 -21.725  0.00  0.00    +0.147 C 
ATOM      8  C   UNL     1      31.742 -12.150 -20.356  0.00  0.00    +0.036 C 
ATOM      9  C   UNL     1      31.737 -11.010 -19.561  0.00  0.00    +0.005 C 
ATOM     10  C   UNL     1      31.730  -9.753 -20.157  0.00  0.00    +0.021 C 
ATOM     11  C   UNL     1      31.730  -9.693 -21.541  0.00  0.00    +0.100 C 
ENDBRANCH   1   4
BRANCH   1  12
ATOM     12  C   UNL     1      33.894 -14.774 -22.729  0.00  0.00    +0.125 C 
ATOM     13  C   UNL     1      34.406 -15.837 -23.474  0.00  0.00    +0.021 C 
ATOM     14  C   UNL     1      33.973 -14.797 -21.336  0.00  0.00    +0.021 C 
ATOM     15  C   UNL     1      35.078 -16.944 -21.434  0.00  0.00    +0.042 C 
ATOM     16  C   UNL     1      34.999 -16.921 -22.827  0.00  0.00    +0.015 C 
ATOM     17  C   UNL     1      34.566 -15.881 -20.689  0.00  0.00    +0.015 C 
BRANCH  15  18
ATOM     18  N   UNL     1      35.678 -18.039 -20.779  0.00  0.00    -0.357 N 
ATOM     19  H   UNL     1      36.382 -18.558 -21.232  0.00  0.00    +0.142 HD
ATOM     20  H   UNL     1      35.393 -18.285 -19.869  0.00  0.00    +0.142 HD
ENDBRANCH  15  18
ENDBRANCH   1  12
TORSDOF 3
ENDMDL
MODEL 3
REMARK VINA RESULT:      -8.3      4.808      6.684
REMARK  Name = 5336
REMARK  3 active torsions:
REMARK  status: ('A' for Active; 'I' for Inactive)
REMARK    1  A    between atoms: S_1  and  C_4
REMARK    2  A    between atoms: S_1  and  N_13
REMARK    3  A    between atoms: C_7  and  N_10
REMARK                            x       y       z     vdW  Elec       q    Type
REMARK                         _______ _______ _______ _____ _____    ______ ____
ROOT
ATOM      1  S   UNL     1      33.724 -23.135 -17.989  0.00  0.00    +0.075 S 
ATOM      2  O   UNL     1      34.693 -23.073 -16.902  0.00  0.00    -0.150 OA
ATOM      3  O   UNL     1      33.583 -24.381 -18.734  0.00  0.00    -0.150 OA
ENDROOT
BRANCH   1   4
ATOM      4  N   UNL     1      32.189 -22.662 -17.364  0.00  0.00    -0.199 N 
ATOM      5  H   UNL     1      31.637 -21.993 -17.831  0.00  0.00    +0.175 HD
ATOM      6  N   UNL     1      32.437 -22.952 -15.037  0.00  0.00    -0.228 NA
ATOM      7  C   UNL     1      31.738 -23.272 -16.143  0.00  0.00    +0.147 C 
ATOM      8  C   UNL     1      30.650 -24.122 -16.169  0.00  0.00    +0.036 C 
ATOM      9  C   UNL     1      30.248 -24.689 -14.965  0.00  0.00    +0.005 C 
ATOM     10  C   UNL     1      30.940 -24.388 -13.796  0.00  0.00    +0.021 C 
ATOM     11  C   UNL     1      32.019 -23.523 -13.885  0.00  0.00    +0.100 C 
ENDBRANCH   1   4
BRANCH   1  12
ATOM     12  C   UNL     1      34.098 -21.852 -19.111  0.00  0.00    +0.125 C 
ATOM     13  C   UNL     1      35.425 -21.591 -19.454  0.00  0.00    +0.021 C 
ATOM     14  C   UNL     1      33.072 -21.086 -19.664  0.00  0.00    +0.021 C 
ATOM     15  C   UNL     1      34.698 -19.800 -20.904  0.00  0.00    +0.042 C 
ATOM     16  C   UNL     1      35.725 -20.566 -20.350  0.00  0.00    +0.015 C 
ATOM     17  C   UNL     1      33.371 -20.061 -20.561  0.00  0.00    +0.015 C 
BRANCH  15  18
ATOM     18  N   UNL     1      35.001 -18.763 -21.811  0.00  0.00    -0.357 N 
ATOM     19  H   UNL     1      34.790 -18.870 -22.768  0.00  0.00    +0.142 HD
ATOM     20  H   UNL     1      35.421 -17.934 -21.489  0.00  0.00    +0.142 HD
ENDBRANCH  15  18
ENDBRANCH   1  12
TORSDOF 3
ENDMDL
MODEL 4
REMARK VINA RESULT:      -8.3      1.684      6.728
REMARK  Name = 5336
REMARK  3 active torsions:
REMARK  status: ('A' for Active; 'I' for Inactive)
REMARK    1  A    between atoms: S_1  and  C_4
REMARK    2  A    between atoms: S_1  and  N_13
REMARK    3  A    between atoms: C_7  and  N_10
REMARK                            x       y       z     vdW  Elec       q    Type
REMARK                         _______ _______ _______ _____ _____    ______ ____
ROOT
ATOM      1  S   UNL     1      35.082 -19.047 -21.574  0.00  0.00    +0.075 S 
ATOM      2  O   UNL     1      34.879 -19.588 -22.912  0.00  0.00    -0.150 OA
ATOM      3  O   UNL     1      36.379 -18.472 -21.238  0.00  0.00    -0.150 OA
ENDROOT
BRANCH   1   4
ATOM      4  N   UNL     1      33.843 -17.889 -21.271  0.00  0.00    -0.199 N 
ATOM      5  H   UNL     1      33.029 -18.136 -20.774  0.00  0.00    +0.175 HD
ATOM      6  N   UNL     1      34.018 -16.414 -23.103  0.00  0.00    -0.228 NA
ATOM      7  C   UNL     1      34.032 -16.551 -21.763  0.00  0.00    +0.147 C 
ATOM      8  C   UNL     1      34.209 -15.515 -20.867  0.00  0.00    +0.036 C 
ATOM      9  C   UNL     1      34.388 -14.239 -21.387  0.00  0.00    +0.005 C 
ATOM     10  C   UNL     1      34.382 -14.049 -22.765  0.00  0.00    +0.021 C 
ATOM     11  C   UNL     1      34.195 -15.160 -23.573  0.00  0.00    +0.100 C 
ENDBRANCH   1   4
BRANCH   1  12
ATOM     12  C   UNL     1      34.718 -20.313 -20.428  0.00  0.00    +0.125 C 
ATOM     13  C   UNL     1      33.391 -20.642 -20.151  0.00  0.00    +0.021 C 
ATOM     14  C   UNL     1      35.753 -20.995 -19.789  0.00  0.00    +0.021 C 
ATOM     15  C   UNL     1      34.135 -22.335 -18.596  0.00  0.00    +0.042 C 
ATOM     16  C   UNL     1      33.100 -21.653 -19.236  0.00  0.00    +0.015 C 
ATOM     17  C   UNL     1      35.462 -22.006 -18.874  0.00  0.00    +0.015 C 
BRANCH  15  18
ATOM     18  N   UNL     1      33.841 -23.358 -17.671  0.00  0.00    -0.357 N 
ATOM     19  H   UNL     1      34.279 -24.237 -17.754  0.00  0.00    +0.142 HD
ATOM     20  H   UNL     1      33.200 -23.195 -16.943  0.00  0.00    +0.142 HD
ENDBRANCH  15  18
ENDBRANCH   1  12
TORSDOF 3
ENDMDL
MODEL 5
REMARK VINA RESULT:      -8.2      1.900      6.530
REMARK  Name = 5336
REMARK  3 active torsions:
REMARK  status: ('A' for Active; 'I' for Inactive)
REMARK    1  A    between atoms: S_1  and  C_4
REMARK    2  A    between atoms: S_1  and  N_13
REMARK    3  A    between atoms: C_7  and  N_10
REMARK                            x       y       z     vdW  Elec       q    Type
REMARK                         _______ _______ _______ _____ _____    ______ ____
ROOT
ATOM      1  S   UNL     1      35.220 -17.898 -21.459  0.00  0.00    +0.075 S 
ATOM      2  O   UNL     1      36.165 -18.172 -22.534  0.00  0.00    -0.150 OA
ATOM      3  O   UNL     1      35.617 -16.988 -20.390  0.00  0.00    -0.150 OA
ENDROOT
BRANCH   1   4
ATOM      4  N   UNL     1      33.749 -17.347 -22.167  0.00  0.00    -0.199 N 
ATOM      5  H   UNL     1      33.060 -17.984 -22.464  0.00  0.00    +0.175 HD
ATOM      6  N   UNL     1      34.368 -15.315 -23.192  0.00  0.00    -0.228 NA
ATOM      7  C   UNL     1      33.556 -15.929 -22.310  0.00  0.00    +0.147 C 
ATOM      8  C   UNL     1      32.583 -15.296 -21.562  0.00  0.00    +0.036 C 
ATOM      9  C   UNL     1      32.431 -13.924 -21.733  0.00  0.00    +0.005 C 
ATOM     10  C   UNL     1      33.247 -13.248 -22.633  0.00  0.00    +0.021 C 
ATOM     11  C   UNL     1      34.192 -13.982 -23.332  0.00  0.00    +0.100 C 
ENDBRANCH   1   4
BRANCH   1  12
ATOM     12  C   UNL     1      34.761 -19.425 -20.751  0.00  0.00    +0.125 C 
ATOM     13  C   UNL     1      35.743 -20.320 -20.324  0.00  0.00    +0.021 C 
ATOM     14  C   UNL     1      33.412 -19.754 -20.612  0.00  0.00    +0.021 C 
ATOM     15  C   UNL     1      34.028 -21.869 -19.619  0.00  0.00    +0.042 C 
ATOM     16  C   UNL     1      35.377 -21.540 -19.758  0.00  0.00    +0.015 C 
ATOM     17  C   UNL     1      33.046 -20.974 -20.046  0.00  0.00    +0.015 C 
BRANCH  15  18
ATOM     18  N   UNL     1      33.656 -23.103 -19.047  0.00  0.00    -0.357 N 
ATOM     19  H   UNL     1      33.982 -23.346 -18.149  0.00  0.00    +0.142 HD
ATOM     20  H   UNL     1      33.073 -23.720 -19.543  0.00  0.00    +0.142 HD
ENDBRANCH  15  18
ENDBRANCH   1  12
TORSDOF 3
ENDMDL
MODEL 6
REMARK VINA RESULT:      -8.1      2.176      6.626
REMARK  Name = 5336
REMARK  3 active torsions:
REMARK  status: ('A' for Active; 'I' for Inactive)
REMARK    1  A    between atoms: S_1  and  C_4
REMARK    2  A    between atoms: S_1  and  N_13
REMARK    3  A    between atoms: C_7  and  N_10
REMARK                            x       y       z     vdW  Elec       q    Type
REMARK                         _______ _______ _______ _____ _____    ______ ____
ROOT
ATOM      1  S   UNL     1      34.286 -16.283 -21.439  0.00  0.00    +0.075 S 
ATOM      2  O   UNL     1      34.967 -15.441 -20.464  0.00  0.00    -0.150 OA
ATOM      3  O   UNL     1      32.842 -16.149 -21.596  0.00  0.00    -0.150 OA
ENDROOT
BRANCH   1   4
ATOM      4  N   UNL     1      35.054 -16.062 -22.966  0.00  0.00    -0.199 N 
ATOM      5  H   UNL     1      35.965 -16.397 -23.127  0.00  0.00    +0.175 HD
ATOM      6  N   UNL     1      34.087 -14.070 -23.777  0.00  0.00    -0.228 NA
ATOM      7  C   UNL     1      34.323 -15.377 -23.998  0.00  0.00    +0.147 C 
ATOM      8  C   UNL     1      33.920 -16.072 -25.121  0.00  0.00    +0.036 C 
ATOM      9  C   UNL     1      33.217 -15.370 -26.094  0.00  0.00    +0.005 C 
ATOM     10  C   UNL     1      32.949 -14.018 -25.909  0.00  0.00    +0.021 C 
ATOM     11  C   UNL     1      33.401 -13.420 -24.743  0.00  0.00    +0.100 C 
ENDBRANCH   1   4
BRANCH   1  12
ATOM     12  C   UNL     1      34.654 -17.946 -21.057  0.00  0.00    +0.125 C 
ATOM     13  C   UNL     1      35.982 -18.365 -20.976  0.00  0.00    +0.021 C 
ATOM     14  C   UNL     1      33.621 -18.856 -20.833  0.00  0.00    +0.021 C 
ATOM     15  C   UNL     1      35.244 -20.604 -20.447  0.00  0.00    +0.042 C 
ATOM     16  C   UNL     1      36.277 -19.693 -20.670  0.00  0.00    +0.015 C 
ATOM     17  C   UNL     1      33.915 -20.184 -20.528  0.00  0.00    +0.015 C 
BRANCH  15  18
ATOM     18  N   UNL     1      35.541 -21.947 -20.137  0.00  0.00    -0.357 N 
ATOM     19  H   UNL     1      36.394 -22.342 -20.430  0.00  0.00    +0.142 HD
ATOM     20  H   UNL     1      34.896 -22.490 -19.628  0.00  0.00    +0.142 HD
ENDBRANCH  15  18
ENDBRANCH   1  12
TORSDOF 3
ENDMDL
MODEL 7
REMARK VINA RESULT:      -7.8      2.037      2.781
REMARK  Name = 5336
REMARK  3 active torsions:
REMARK  status: ('A' for Active; 'I' for Inactive)
REMARK    1  A    between atoms: S_1  and  C_4
REMARK    2  A    between atoms: S_1  and  N_13
REMARK    3  A    between atoms: C_7  and  N_10
REMARK                            x       y       z     vdW  Elec       q    Type
REMARK                         _______ _______ _______ _____ _____    ______ ____
ROOT
ATOM      1  S   UNL     1      33.937 -16.277 -21.341  0.00  0.00    +0.075 S 
ATOM      2  O   UNL     1      32.600 -16.483 -20.799  0.00  0.00    -0.150 OA
ATOM      3  O   UNL     1      34.986 -15.783 -20.456  0.00  0.00    -0.150 OA
ENDROOT
BRANCH   1   4
ATOM      4  N   UNL     1      34.450 -17.749 -22.075  0.00  0.00    -0.199 N 
ATOM      5  H   UNL     1      34.736 -17.772 -23.017  0.00  0.00    +0.175 HD
ATOM      6  N   UNL     1      33.237 -19.394 -20.899  0.00  0.00    -0.228 NA
ATOM      7  C   UNL     1      34.450 -18.942 -21.272  0.00  0.00    +0.147 C 
ATOM      8  C   UNL     1      35.650 -19.539 -20.941  0.00  0.00    +0.036 C 
ATOM      9  C   UNL     1      35.602 -20.690 -20.163  0.00  0.00    +0.005 C 
ATOM     10  C   UNL     1      34.372 -21.194 -19.753  0.00  0.00    +0.021 C 
ATOM     11  C   UNL     1      33.229 -20.515 -20.144  0.00  0.00    +0.100 C 
ENDBRANCH   1   4
BRANCH   1  12
ATOM     12  C   UNL     1      33.799 -15.193 -22.702  0.00  0.00    +0.125 C 
ATOM     13  C   UNL     1      33.736 -15.705 -23.999  0.00  0.00    +0.021 C 
ATOM     14  C   UNL     1      33.752 -13.814 -22.495  0.00  0.00    +0.021 C 
ATOM     15  C   UNL     1      33.579 -13.461 -24.879  0.00  0.00    +0.042 C 
ATOM     16  C   UNL     1      33.625 -14.840 -25.086  0.00  0.00    +0.015 C 
ATOM     17  C   UNL     1      33.642 -12.948 -23.582  0.00  0.00    +0.015 C 
BRANCH  15  18
ATOM     18  N   UNL     1      33.466 -12.584 -25.978  0.00  0.00    -0.357 N 
ATOM     19  H   UNL     1      34.027 -12.722 -26.776  0.00  0.00    +0.142 HD
ATOM     20  H   UNL     1      32.827 -11.836 -25.948  0.00  0.00    +0.142 HD
ENDBRANCH  15  18
ENDBRANCH   1  12
TORSDOF 3
ENDMDL
MODEL 8
REMARK VINA RESULT:      -7.8      8.537      9.967
REMARK  Name = 5336
REMARK  3 active torsions:
REMARK  status: ('A' for Active; 'I' for Inactive)
REMARK    1  A    between atoms: S_1  and  C_4
REMARK    2  A    between atoms: S_1  and  N_13
REMARK    3  A    between atoms: C_7  and  N_10
REMARK                            x       y       z     vdW  Elec       q    Type
REMARK                         _______ _______ _______ _____ _____    ______ ____
ROOT
ATOM      1  S   UNL     1      34.913 -23.529 -15.925  0.00  0.00    +0.075 S 
ATOM      2  O   UNL     1      35.308 -22.870 -17.163  0.00  0.00    -0.150 OA
ATOM      3  O   UNL     1      35.213 -24.946 -15.757  0.00  0.00    -0.150 OA
ENDROOT
BRANCH   1   4
ATOM      4  N   UNL     1      35.580 -22.639 -14.609  0.00  0.00    -0.199 N 
ATOM      5  H   UNL     1      35.391 -21.679 -14.499  0.00  0.00    +0.175 HD
ATOM      6  N   UNL     1      37.601 -23.768 -14.159  0.00  0.00    -0.228 NA
ATOM      7  C   UNL     1      36.420 -23.340 -13.675  0.00  0.00    +0.147 C 
ATOM      8  C   UNL     1      35.986 -23.527 -12.377  0.00  0.00    +0.036 C 
ATOM      9  C   UNL     1      36.830 -24.209 -11.509  0.00  0.00    +0.005 C 
ATOM     10  C   UNL     1      38.060 -24.671 -11.965  0.00  0.00    +0.021 C 
ATOM     11  C   UNL     1      38.396 -24.428 -13.287  0.00  0.00    +0.100 C 
ENDBRANCH   1   4
BRANCH   1  12
ATOM     12  C   UNL     1      33.195 -23.293 -15.721  0.00  0.00    +0.125 C 
ATOM     13  C   UNL     1      32.638 -23.296 -14.441  0.00  0.00    +0.021 C 
ATOM     14  C   UNL     1      32.379 -23.102 -16.836  0.00  0.00    +0.021 C 
ATOM     15  C   UNL     1      30.450 -22.917 -15.393  0.00  0.00    +0.042 C 
ATOM     16  C   UNL     1      31.266 -23.108 -14.278  0.00  0.00    +0.015 C 
ATOM     17  C   UNL     1      31.007 -22.914 -16.672  0.00  0.00    +0.015 C 
BRANCH  15  18
ATOM     18  N   UNL     1      29.062 -22.726 -15.228  0.00  0.00    -0.357 N 
ATOM     19  H   UNL     1      28.508 -22.462 -15.998  0.00  0.00    +0.142 HD
ATOM     20  H   UNL     1      28.649 -22.856 -14.345  0.00  0.00    +0.142 HD
ENDBRANCH  15  18
ENDBRANCH   1  12
TORSDOF 3
ENDMDL
MODEL 9
REMARK VINA RESULT:      -7.8      6.435      8.349
REMARK  Name = 5336
REMARK  3 active torsions:
REMARK  status: ('A' for Active; 'I' for Inactive)
REMARK    1  A    between atoms: S_1  and  C_4
REMARK    2  A    between atoms: S_1  and  N_13
REMARK    3  A    between atoms: C_7  and  N_10
REMARK                            x       y       z     vdW  Elec       q    Type
REMARK                         _______ _______ _______ _____ _____    ______ ____
ROOT
ATOM      1  S   UNL     1      35.336 -23.495 -15.364  0.00  0.00    +0.075 S 
ATOM      2  O   UNL     1      36.536 -23.164 -14.606  0.00  0.00    -0.150 OA
ATOM      3  O   UNL     1      35.015 -24.899 -15.594  0.00  0.00    -0.150 OA
ENDROOT
BRANCH   1   4
ATOM      4  N   UNL     1      33.996 -22.715 -14.612  0.00  0.00    -0.199 N 
ATOM      5  H   UNL     1      34.071 -21.793 -14.274  0.00  0.00    +0.175 HD
ATOM      6  N   UNL     1      32.791 -24.503 -13.658  0.00  0.00    -0.228 NA
ATOM      7  C   UNL     1      32.764 -23.448 -14.495  0.00  0.00    +0.147 C 
ATOM      8  C   UNL     1      31.660 -23.043 -15.218  0.00  0.00    +0.036 C 
ATOM      9  C   UNL     1      30.491 -23.782 -15.074  0.00  0.00    +0.005 C 
ATOM     10  C   UNL     1      30.471 -24.881 -14.221  0.00  0.00    +0.021 C 
ATOM     11  C   UNL     1      31.637 -25.198 -13.543  0.00  0.00    +0.100 C 
ENDBRANCH   1   4
BRANCH   1  12
ATOM     12  C   UNL     1      35.440 -22.685 -16.906  0.00  0.00    +0.125 C 
ATOM     13  C   UNL     1      34.363 -22.731 -17.793  0.00  0.00    +0.021 C 
ATOM     14  C   UNL     1      36.600 -21.993 -17.255  0.00  0.00    +0.021 C 
ATOM     15  C   UNL     1      35.606 -21.392 -19.373  0.00  0.00    +0.042 C 
ATOM     16  C   UNL     1      34.446 -22.084 -19.025  0.00  0.00    +0.015 C 
ATOM     17  C   UNL     1      36.683 -21.346 -18.487  0.00  0.00    +0.015 C 
BRANCH  15  18
ATOM     18  N   UNL     1      35.691 -20.737 -20.620  0.00  0.00    -0.357 N 
ATOM     19  H   UNL     1      36.247 -21.116 -21.338  0.00  0.00    +0.142 HD
ATOM     20  H   UNL     1      35.194 -19.901 -20.771  0.00  0.00    +0.142 HD
ENDBRANCH  15  18
ENDBRANCH   1  12
TORSDOF 3
ENDMDL
