MODEL 1
REMARK VINA RESULT:      -7.6      0.000      0.000
REMARK  Name = 60877
REMARK  3 active torsions:
REMARK  status: ('A' for Active; 'I' for Inactive)
REMARK    1  A    between atoms: N_3  and  C_14
REMARK    2  A    between atoms: C_16  and  C_17
REMARK    3  A    between atoms: C_17  and  O_18
REMARK                            x       y       z     vdW  Elec       q    Type
REMARK                         _______ _______ _______ _____ _____    ______ ____
ROOT
ATOM      1  F   UNL     1      35.601 -21.373 -19.673  0.00  0.00    -0.199 F 
ATOM      2  O   UNL     1      32.354 -23.695 -16.106  0.00  0.00    -0.193 OA
ATOM      3  N   UNL     1      34.501 -23.093 -16.701  0.00  0.00    -0.177 N 
ATOM      4  N   UNL     1      32.600 -22.615 -18.090  0.00  0.00    -0.304 NA
ATOM      5  N   UNL     1      32.865 -21.507 -20.122  0.00  0.00    -0.330 N 
ATOM      6  C   UNL     1      35.332 -22.495 -17.620  0.00  0.00    +0.113 C 
ATOM      7  C   UNL     1      33.110 -23.164 -16.921  0.00  0.00    +0.276 C 
ATOM      8  C   UNL     1      34.843 -21.970 -18.738  0.00  0.00    +0.200 C 
ATOM      9  C   UNL     1      33.385 -22.045 -18.967  0.00  0.00    +0.220 C 
ATOM     10  H   UNL     1      31.896 -21.548 -20.290  0.00  0.00    +0.145 HD
ATOM     11  H   UNL     1      33.462 -21.080 -20.777  0.00  0.00    +0.145 HD
ENDROOT
BRANCH   3  14
ATOM     12  S   UNL     1      37.069 -24.020 -13.895  0.00  0.00    -0.105 S 
ATOM     13  O   UNL     1      35.468 -24.998 -15.768  0.00  0.00    -0.325 OA
ATOM     14  C   UNL     1      35.057 -23.653 -15.502  0.00  0.00    +0.218 C 
ATOM     15  C   UNL     1      36.278 -22.874 -15.034  0.00  0.00    +0.112 C 
ATOM     16  C   UNL     1      36.253 -25.449 -14.655  0.00  0.00    +0.194 C 
BRANCH  16  17
ATOM     17  C   UNL     1      37.266 -26.465 -15.150  0.00  0.00    +0.178 C 
BRANCH  17  18
ATOM     18  O   UNL     1      36.703 -27.180 -16.238  0.00  0.00    -0.379 OA
ATOM     19  H   UNL     1      37.413 -27.577 -16.767  0.00  0.00    +0.211 HD
ENDBRANCH  17  18
ENDBRANCH  16  17
ENDBRANCH   3  14
TORSDOF 3
ENDMDL
MODEL 2
REMARK VINA RESULT:      -7.5      8.570     10.711
REMARK  Name = 60877
REMARK  3 active torsions:
REMARK  status: ('A' for Active; 'I' for Inactive)
REMARK    1  A    between atoms: N_3  and  C_14
REMARK    2  A    between atoms: C_16  and  C_17
REMARK    3  A    between atoms: C_17  and  O_18
REMARK                            x       y       z     vdW  Elec       q    Type
REMARK                         _______ _______ _______ _____ _____    ______ ____
ROOT
ATOM      1  F   UNL     1      34.959 -19.821 -23.666  0.00  0.00    -0.199 F 
ATOM      2  O   UNL     1      34.984 -15.717 -20.229  0.00  0.00    -0.193 OA
ATOM      3  N   UNL     1      34.628 -16.468 -22.381  0.00  0.00    -0.177 N 
ATOM      4  N   UNL     1      35.314 -17.932 -20.606  0.00  0.00    -0.304 NA
ATOM      5  N   UNL     1      35.649 -20.203 -21.005  0.00  0.00    -0.330 N 
ATOM      6  C   UNL     1      34.622 -17.525 -23.262  0.00  0.00    +0.113 C 
ATOM      7  C   UNL     1      34.976 -16.655 -21.028  0.00  0.00    +0.276 C 
ATOM      8  C   UNL     1      34.946 -18.748 -22.857  0.00  0.00    +0.200 C 
ATOM      9  C   UNL     1      35.311 -18.942 -21.437  0.00  0.00    +0.220 C 
ATOM     10  H   UNL     1      35.894 -20.351 -20.063  0.00  0.00    +0.145 HD
ATOM     11  H   UNL     1      35.644 -20.958 -21.637  0.00  0.00    +0.145 HD
ENDROOT
BRANCH   3  14
ATOM     12  S   UNL     1      32.481 -13.358 -23.408  0.00  0.00    -0.105 S 
ATOM     13  O   UNL     1      34.202 -15.179 -24.277  0.00  0.00    -0.325 OA
ATOM     14  C   UNL     1      34.275 -15.156 -22.847  0.00  0.00    +0.218 C 
ATOM     15  C   UNL     1      32.918 -14.719 -22.315  0.00  0.00    +0.112 C 
ATOM     16  C   UNL     1      33.597 -13.951 -24.707  0.00  0.00    +0.194 C 
BRANCH  16  17
ATOM     17  C   UNL     1      32.851 -14.203 -26.004  0.00  0.00    +0.178 C 
BRANCH  17  18
ATOM     18  O   UNL     1      33.415 -15.335 -26.646  0.00  0.00    -0.379 OA
ATOM     19  H   UNL     1      34.178 -15.649 -26.136  0.00  0.00    +0.211 HD
ENDBRANCH  17  18
ENDBRANCH  16  17
ENDBRANCH   3  14
TORSDOF 3
ENDMDL
MODEL 3
REMARK VINA RESULT:      -7.5      6.921      8.950
REMARK  Name = 60877
REMARK  3 active torsions:
REMARK  status: ('A' for Active; 'I' for Inactive)
REMARK    1  A    between atoms: N_3  and  C_14
REMARK    2  A    between atoms: C_16  and  C_17
REMARK    3  A    between atoms: C_17  and  O_18
REMARK                            x       y       z     vdW  Elec       q    Type
REMARK                         _______ _______ _______ _____ _____    ______ ____
ROOT
ATOM      1  F   UNL     1      32.604 -20.795 -20.032  0.00  0.00    -0.199 F 
ATOM      2  O   UNL     1      37.574 -19.077 -21.037  0.00  0.00    -0.193 OA
ATOM      3  N   UNL     1      35.306 -18.819 -21.374  0.00  0.00    -0.177 N 
ATOM      4  N   UNL     1      36.209 -20.562 -19.991  0.00  0.00    -0.304 NA
ATOM      5  N   UNL     1      34.800 -22.079 -18.923  0.00  0.00    -0.330 N 
ATOM      6  C   UNL     1      34.030 -19.262 -21.113  0.00  0.00    +0.113 C 
ATOM      7  C   UNL     1      36.426 -19.465 -20.813  0.00  0.00    +0.276 C 
ATOM      8  C   UNL     1      33.824 -20.313 -20.326  0.00  0.00    +0.200 C 
ATOM      9  C   UNL     1      35.000 -20.990 -19.739  0.00  0.00    +0.220 C 
ATOM     10  H   UNL     1      35.572 -22.542 -18.523  0.00  0.00    +0.145 HD
ATOM     11  H   UNL     1      33.887 -22.395 -18.738  0.00  0.00    +0.145 HD
ENDROOT
BRANCH   3  14
ATOM     12  S   UNL     1      34.651 -15.444 -23.248  0.00  0.00    -0.105 S 
ATOM     13  O   UNL     1      35.114 -18.036 -23.562  0.00  0.00    -0.325 OA
ATOM     14  C   UNL     1      35.499 -17.682 -22.229  0.00  0.00    +0.218 C 
ATOM     15  C   UNL     1      34.645 -16.501 -21.792  0.00  0.00    +0.112 C 
ATOM     16  C   UNL     1      35.060 -16.832 -24.340  0.00  0.00    +0.194 C 
BRANCH  16  17
ATOM     17  C   UNL     1      34.018 -17.002 -25.431  0.00  0.00    +0.178 C 
BRANCH  17  18
ATOM     18  O   UNL     1      33.957 -15.810 -26.197  0.00  0.00    -0.379 OA
ATOM     19  H   UNL     1      33.244 -15.245 -25.860  0.00  0.00    +0.211 HD
ENDBRANCH  17  18
ENDBRANCH  16  17
ENDBRANCH   3  14
TORSDOF 3
ENDMDL
MODEL 4
REMARK VINA RESULT:      -7.3      5.821      7.200
REMARK  Name = 60877
REMARK  3 active torsions:
REMARK  status: ('A' for Active; 'I' for Inactive)
REMARK    1  A    between atoms: N_3  and  C_14
REMARK    2  A    between atoms: C_16  and  C_17
REMARK    3  A    between atoms: C_17  and  O_18
REMARK                            x       y       z     vdW  Elec       q    Type
REMARK                         _______ _______ _______ _____ _____    ______ ____
ROOT
ATOM      1  F   UNL     1      34.596 -15.042 -20.443  0.00  0.00    -0.199 F 
ATOM      2  O   UNL     1      34.707 -18.959 -24.090  0.00  0.00    -0.193 OA
ATOM      3  N   UNL     1      34.633 -18.356 -21.864  0.00  0.00    -0.177 N 
ATOM      4  N   UNL     1      34.702 -16.733 -23.634  0.00  0.00    -0.304 NA
ATOM      5  N   UNL     1      34.697 -14.454 -23.153  0.00  0.00    -0.330 N 
ATOM      6  C   UNL     1      34.604 -17.346 -20.930  0.00  0.00    +0.113 C 
ATOM      7  C   UNL     1      34.682 -18.065 -23.242  0.00  0.00    +0.276 C 
ATOM      8  C   UNL     1      34.623 -16.072 -21.305  0.00  0.00    +0.200 C 
ATOM      9  C   UNL     1      34.675 -15.769 -22.751  0.00  0.00    +0.220 C 
ATOM     10  H   UNL     1      34.731 -14.233 -24.113  0.00  0.00    +0.145 HD
ATOM     11  H   UNL     1      34.676 -13.734 -22.483  0.00  0.00    +0.145 HD
ENDROOT
BRANCH   3  14
ATOM     12  S   UNL     1      33.898 -21.545 -19.716  0.00  0.00    -0.105 S 
ATOM     13  O   UNL     1      35.811 -19.992 -20.695  0.00  0.00    -0.325 OA
ATOM     14  C   UNL     1      34.612 -19.724 -21.430  0.00  0.00    +0.218 C 
ATOM     15  C   UNL     1      33.429 -20.003 -20.515  0.00  0.00    +0.112 C 
ATOM     16  C   UNL     1      35.657 -21.264 -20.049  0.00  0.00    +0.194 C 
BRANCH  16  17
ATOM     17  C   UNL     1      36.469 -21.262 -18.767  0.00  0.00    +0.178 C 
BRANCH  17  18
ATOM     18  O   UNL     1      35.977 -22.281 -17.911  0.00  0.00    -0.379 OA
ATOM     19  H   UNL     1      36.097 -22.013 -16.987  0.00  0.00    +0.211 HD
ENDBRANCH  17  18
ENDBRANCH  16  17
ENDBRANCH   3  14
TORSDOF 3
ENDMDL
MODEL 5
REMARK VINA RESULT:      -7.3      2.060      2.315
REMARK  Name = 60877
REMARK  3 active torsions:
REMARK  status: ('A' for Active; 'I' for Inactive)
REMARK    1  A    between atoms: N_3  and  C_14
REMARK    2  A    between atoms: C_16  and  C_17
REMARK    3  A    between atoms: C_17  and  O_18
REMARK                            x       y       z     vdW  Elec       q    Type
REMARK                         _______ _______ _______ _____ _____    ______ ____
ROOT
ATOM      1  F   UNL     1      32.802 -22.747 -18.417  0.00  0.00    -0.199 F 
ATOM      2  O   UNL     1      32.981 -23.905 -13.193  0.00  0.00    -0.193 OA
ATOM      3  N   UNL     1      34.121 -23.639 -15.182  0.00  0.00    -0.177 N 
ATOM      4  N   UNL     1      31.745 -23.335 -15.012  0.00  0.00    -0.304 NA
ATOM      5  N   UNL     1      30.488 -22.749 -16.885  0.00  0.00    -0.330 N 
ATOM      6  C   UNL     1      34.072 -23.341 -16.524  0.00  0.00    +0.113 C 
ATOM      7  C   UNL     1      32.950 -23.641 -14.397  0.00  0.00    +0.276 C 
ATOM      8  C   UNL     1      32.917 -23.048 -17.112  0.00  0.00    +0.200 C 
ATOM      9  C   UNL     1      31.690 -23.050 -16.288  0.00  0.00    +0.220 C 
ATOM     10  H   UNL     1      29.661 -22.746 -16.350  0.00  0.00    +0.145 HD
ATOM     11  H   UNL     1      30.455 -22.536 -17.845  0.00  0.00    +0.145 HD
ENDROOT
BRANCH   3  14
ATOM     12  S   UNL     1      37.958 -24.280 -14.735  0.00  0.00    -0.105 S 
ATOM     13  O   UNL     1      35.549 -25.375 -14.564  0.00  0.00    -0.325 OA
ATOM     14  C   UNL     1      35.383 -23.953 -14.573  0.00  0.00    +0.218 C 
ATOM     15  C   UNL     1      36.545 -23.349 -15.348  0.00  0.00    +0.112 C 
ATOM     16  C   UNL     1      36.909 -25.658 -14.202  0.00  0.00    +0.194 C 
BRANCH  16  17
ATOM     17  C   UNL     1      37.329 -26.959 -14.860  0.00  0.00    +0.178 C 
BRANCH  17  18
ATOM     18  O   UNL     1      36.709 -27.051 -16.132  0.00  0.00    -0.379 OA
ATOM     19  H   UNL     1      36.825 -26.215 -16.610  0.00  0.00    +0.211 HD
ENDBRANCH  17  18
ENDBRANCH  16  17
ENDBRANCH   3  14
TORSDOF 3
ENDMDL
MODEL 6
REMARK VINA RESULT:      -7.3      2.948      3.716
REMARK  Name = 60877
REMARK  3 active torsions:
REMARK  status: ('A' for Active; 'I' for Inactive)
REMARK    1  A    between atoms: N_3  and  C_14
REMARK    2  A    between atoms: C_16  and  C_17
REMARK    3  A    between atoms: C_17  and  O_18
REMARK                            x       y       z     vdW  Elec       q    Type
REMARK                         _______ _______ _______ _____ _____    ______ ____
ROOT
ATOM      1  F   UNL     1      30.824 -23.438 -14.194  0.00  0.00    -0.199 F 
ATOM      2  O   UNL     1      34.729 -23.070 -17.836  0.00  0.00    -0.193 OA
ATOM      3  N   UNL     1      34.121 -23.500 -15.653  0.00  0.00    -0.177 N 
ATOM      4  N   UNL     1      32.517 -22.914 -17.342  0.00  0.00    -0.304 NA
ATOM      5  N   UNL     1      30.252 -22.757 -16.823  0.00  0.00    -0.330 N 
ATOM      6  C   UNL     1      33.114 -23.594 -14.719  0.00  0.00    +0.113 C 
ATOM      7  C   UNL     1      33.838 -23.156 -16.990  0.00  0.00    +0.276 C 
ATOM      8  C   UNL     1      31.851 -23.362 -15.057  0.00  0.00    +0.200 C 
ATOM      9  C   UNL     1      31.556 -23.001 -16.460  0.00  0.00    +0.220 C 
ATOM     10  H   UNL     1      30.037 -22.516 -17.753  0.00  0.00    +0.145 HD
ATOM     11  H   UNL     1      29.534 -22.825 -16.153  0.00  0.00    +0.145 HD
ENDROOT
BRANCH   3  14
ATOM     12  S   UNL     1      37.235 -25.187 -13.983  0.00  0.00    -0.105 S 
ATOM     13  O   UNL     1      35.774 -22.977 -14.095  0.00  0.00    -0.325 OA
ATOM     14  C   UNL     1      35.477 -23.755 -15.259  0.00  0.00    +0.218 C 
ATOM     15  C   UNL     1      35.693 -25.221 -14.911  0.00  0.00    +0.112 C 
ATOM     16  C   UNL     1      37.026 -23.437 -13.564  0.00  0.00    +0.194 C 
BRANCH  16  17
ATOM     17  C   UNL     1      37.026 -23.225 -12.061  0.00  0.00    +0.178 C 
BRANCH  17  18
ATOM     18  O   UNL     1      38.308 -22.766 -11.663  0.00  0.00    -0.379 OA
ATOM     19  H   UNL     1      38.481 -23.042 -10.749  0.00  0.00    +0.211 HD
ENDBRANCH  17  18
ENDBRANCH  16  17
ENDBRANCH   3  14
TORSDOF 3
ENDMDL
MODEL 7
REMARK VINA RESULT:      -7.3      2.407      3.140
REMARK  Name = 60877
REMARK  3 active torsions:
REMARK  status: ('A' for Active; 'I' for Inactive)
REMARK    1  A    between atoms: N_3  and  C_14
REMARK    2  A    between atoms: C_16  and  C_17
REMARK    3  A    between atoms: C_17  and  O_18
REMARK                            x       y       z     vdW  Elec       q    Type
REMARK                         _______ _______ _______ _____ _____    ______ ____
ROOT
ATOM      1  F   UNL     1      32.209 -23.639 -16.886  0.00  0.00    -0.199 F 
ATOM      2  O   UNL     1      37.310 -22.053 -17.235  0.00  0.00    -0.193 OA
ATOM      3  N   UNL     1      35.641 -23.019 -15.968  0.00  0.00    -0.177 N 
ATOM      4  N   UNL     1      35.269 -22.250 -18.213  0.00  0.00    -0.304 NA
ATOM      5  N   UNL     1      33.171 -22.458 -19.205  0.00  0.00    -0.330 N 
ATOM      6  C   UNL     1      34.329 -23.426 -15.882  0.00  0.00    +0.113 C 
ATOM      7  C   UNL     1      36.137 -22.420 -17.144  0.00  0.00    +0.276 C 
ATOM      8  C   UNL     1      33.499 -23.263 -16.906  0.00  0.00    +0.200 C 
ATOM      9  C   UNL     1      34.021 -22.634 -18.138  0.00  0.00    +0.220 C 
ATOM     10  H   UNL     1      33.503 -22.042 -20.034  0.00  0.00    +0.145 HD
ATOM     11  H   UNL     1      32.234 -22.750 -19.141  0.00  0.00    +0.145 HD
ENDROOT
BRANCH   3  14
ATOM     12  S   UNL     1      37.791 -24.771 -13.205  0.00  0.00    -0.105 S 
ATOM     13  O   UNL     1      35.741 -23.148 -13.643  0.00  0.00    -0.325 OA
ATOM     14  C   UNL     1      36.515 -23.207 -14.845  0.00  0.00    +0.218 C 
ATOM     15  C   UNL     1      37.205 -24.563 -14.893  0.00  0.00    +0.112 C 
ATOM     16  C   UNL     1      36.571 -23.597 -12.561  0.00  0.00    +0.194 C 
BRANCH  16  17
ATOM     17  C   UNL     1      35.691 -24.238 -11.504  0.00  0.00    +0.178 C 
BRANCH  17  18
ATOM     18  O   UNL     1      34.620 -24.912 -12.146  0.00  0.00    -0.379 OA
ATOM     19  H   UNL     1      34.161 -25.476 -11.504  0.00  0.00    +0.211 HD
ENDBRANCH  17  18
ENDBRANCH  16  17
ENDBRANCH   3  14
TORSDOF 3
ENDMDL
MODEL 8
REMARK VINA RESULT:      -7.1      5.650      7.787
REMARK  Name = 60877
REMARK  3 active torsions:
REMARK  status: ('A' for Active; 'I' for Inactive)
REMARK    1  A    between atoms: N_3  and  C_14
REMARK    2  A    between atoms: C_16  and  C_17
REMARK    3  A    between atoms: C_17  and  O_18
REMARK                            x       y       z     vdW  Elec       q    Type
REMARK                         _______ _______ _______ _____ _____    ______ ____
ROOT
ATOM      1  F   UNL     1      36.899 -21.646 -19.290  0.00  0.00    -0.199 F 
ATOM      2  O   UNL     1      32.059 -19.881 -20.747  0.00  0.00    -0.193 OA
ATOM      3  N   UNL     1      34.351 -19.710 -20.953  0.00  0.00    -0.177 N 
ATOM      4  N   UNL     1      33.307 -21.312 -19.500  0.00  0.00    -0.304 NA
ATOM      5  N   UNL     1      34.598 -22.775 -18.226  0.00  0.00    -0.330 N 
ATOM      6  C   UNL     1      35.594 -20.166 -20.577  0.00  0.00    +0.113 C 
ATOM      7  C   UNL     1      33.178 -20.279 -20.418  0.00  0.00    +0.276 C 
ATOM      8  C   UNL     1      35.716 -21.155 -19.698  0.00  0.00    +0.200 C 
ATOM      9  C   UNL     1      34.485 -21.751 -19.138  0.00  0.00    +0.220 C 
ATOM     10  H   UNL     1      33.788 -23.184 -17.843  0.00  0.00    +0.145 HD
ATOM     11  H   UNL     1      35.487 -23.099 -17.958  0.00  0.00    +0.145 HD
ENDROOT
BRANCH   3  14
ATOM     12  S   UNL     1      35.351 -16.772 -23.340  0.00  0.00    -0.105 S 
ATOM     13  O   UNL     1      33.923 -17.432 -21.206  0.00  0.00    -0.325 OA
ATOM     14  C   UNL     1      34.249 -18.639 -21.904  0.00  0.00    +0.218 C 
ATOM     15  C   UNL     1      35.562 -18.416 -22.640  0.00  0.00    +0.112 C 
ATOM     16  C   UNL     1      34.085 -16.337 -22.119  0.00  0.00    +0.194 C 
BRANCH  16  17
ATOM     17  C   UNL     1      34.477 -15.099 -21.333  0.00  0.00    +0.178 C 
BRANCH  17  18
ATOM     18  O   UNL     1      34.935 -15.496 -20.051  0.00  0.00    -0.379 OA
ATOM     19  H   UNL     1      35.734 -16.038 -20.146  0.00  0.00    +0.211 HD
ENDBRANCH  17  18
ENDBRANCH  16  17
ENDBRANCH   3  14
TORSDOF 3
ENDMDL
MODEL 9
REMARK VINA RESULT:      -7.1      5.841      7.758
REMARK  Name = 60877
REMARK  3 active torsions:
REMARK  status: ('A' for Active; 'I' for Inactive)
REMARK    1  A    between atoms: N_3  and  C_14
REMARK    2  A    between atoms: C_16  and  C_17
REMARK    3  A    between atoms: C_17  and  O_18
REMARK                            x       y       z     vdW  Elec       q    Type
REMARK                         _______ _______ _______ _____ _____    ______ ____
ROOT
ATOM      1  F   UNL     1      35.981 -22.419 -18.264  0.00  0.00    -0.199 F 
ATOM      2  O   UNL     1      32.616 -19.617 -21.345  0.00  0.00    -0.193 OA
ATOM      3  N   UNL     1      34.788 -20.022 -20.680  0.00  0.00    -0.177 N 
ATOM      4  N   UNL     1      32.922 -21.234 -19.777  0.00  0.00    -0.304 NA
ATOM      5  N   UNL     1      33.247 -22.889 -18.171  0.00  0.00    -0.330 N 
ATOM      6  C   UNL     1      35.650 -20.744 -19.887  0.00  0.00    +0.113 C 
ATOM      7  C   UNL     1      33.399 -20.256 -20.639  0.00  0.00    +0.276 C 
ATOM      8  C   UNL     1      35.192 -21.680 -19.063  0.00  0.00    +0.200 C 
ATOM      9  C   UNL     1      33.735 -21.924 -19.021  0.00  0.00    +0.220 C 
ATOM     10  H   UNL     1      32.279 -23.065 -18.131  0.00  0.00    +0.145 HD
ATOM     11  H   UNL     1      33.866 -23.404 -17.605  0.00  0.00    +0.145 HD
ENDROOT
BRANCH   3  14
ATOM     12  S   UNL     1      35.084 -16.726 -22.773  0.00  0.00    -0.105 S 
ATOM     13  O   UNL     1      34.991 -19.372 -22.909  0.00  0.00    -0.325 OA
ATOM     14  C   UNL     1      35.311 -19.016 -21.561  0.00  0.00    +0.218 C 
ATOM     15  C   UNL     1      34.700 -17.651 -21.278  0.00  0.00    +0.112 C 
ATOM     16  C   UNL     1      35.281 -18.242 -23.745  0.00  0.00    +0.194 C 
BRANCH  16  17
ATOM     17  C   UNL     1      34.341 -18.261 -24.936  0.00  0.00    +0.178 C 
BRANCH  17  18
ATOM     18  O   UNL     1      34.677 -17.190 -25.803  0.00  0.00    -0.379 OA
ATOM     19  H   UNL     1      34.281 -16.369 -25.472  0.00  0.00    +0.211 HD
ENDBRANCH  17  18
ENDBRANCH  16  17
ENDBRANCH   3  14
TORSDOF 3
ENDMDL
