MODEL 1
REMARK VINA RESULT:      -8.0      0.000      0.000
REMARK  Name = 447532
REMARK  5 active torsions:
REMARK  status: ('A' for Active; 'I' for Inactive)
REMARK    1  A    between atoms: C_4  and  O_13
REMARK    2  A    between atoms: C_10  and  C_12
REMARK    3  A    between atoms: O_13  and  P_14
REMARK    4  A    between atoms: P_14  and  O_16
REMARK    5  A    between atoms: P_14  and  O_18
REMARK                            x       y       z     vdW  Elec       q    Type
REMARK                         _______ _______ _______ _____ _____    ______ ____
ROOT
ATOM      1  N   UNL     1      31.859 -22.414 -17.708  0.00  0.00    -0.392 NA
ATOM      2  C   UNL     1      31.502 -22.969 -16.534  0.00  0.00    +0.152 C 
ATOM      3  C   UNL     1      32.449 -23.554 -15.668  0.00  0.00    +0.099 C 
ATOM      4  C   UNL     1      30.166 -22.975 -16.143  0.00  0.00    +0.175 C 
ATOM      5  C   UNL     1      32.041 -24.122 -14.450  0.00  0.00    -0.015 C 
ATOM      6  C   UNL     1      29.760 -23.541 -14.932  0.00  0.00    +0.039 C 
ATOM      7  C   UNL     1      33.794 -23.547 -16.062  0.00  0.00    -0.012 C 
ATOM      8  C   UNL     1      30.699 -24.115 -14.084  0.00  0.00    -0.001 C 
ATOM      9  C   UNL     1      34.165 -22.977 -17.271  0.00  0.00    +0.039 C 
ATOM     10  C   UNL     1      33.167 -22.429 -18.051  0.00  0.00    +0.198 C 
ENDROOT
BRANCH  10  12
ATOM     11  N   UNL     1      33.701 -21.327 -20.333  0.00  0.00    -0.188 NA
ATOM     12  C   UNL     1      33.461 -21.822 -19.307  0.00  0.00    +0.133 C 
ENDBRANCH  10  12
BRANCH   4  13
ATOM     13  O   UNL     1      29.212 -22.421 -16.950  0.00  0.00    -0.400 OA
BRANCH  13  14
ATOM     14  P   UNL     1      27.673 -22.906 -17.036  0.00  0.00    +0.528 P 
ATOM     15  O   UNL     1      26.832 -22.590 -15.833  0.00  0.00    -0.216 OA
BRANCH  14  16
ATOM     16  O   UNL     1      27.144 -22.302 -18.440  0.00  0.00    -0.293 OA
ATOM     17  H   UNL     1      27.784 -21.654 -18.775  0.00  0.00    +0.223 HD
ENDBRANCH  14  16
BRANCH  14  18
ATOM     18  O   UNL     1      27.819 -24.486 -17.354  0.00  0.00    -0.293 OA
ATOM     19  H   UNL     1      26.965 -24.836 -17.652  0.00  0.00    +0.223 HD
ENDBRANCH  14  18
ENDBRANCH  13  14
ENDBRANCH   4  13
TORSDOF 5
ENDMDL
MODEL 2
REMARK VINA RESULT:      -8.0      5.621      7.221
REMARK  Name = 447532
REMARK  5 active torsions:
REMARK  status: ('A' for Active; 'I' for Inactive)
REMARK    1  A    between atoms: C_4  and  O_13
REMARK    2  A    between atoms: C_10  and  C_12
REMARK    3  A    between atoms: O_13  and  P_14
REMARK    4  A    between atoms: P_14  and  O_16
REMARK    5  A    between atoms: P_14  and  O_18
REMARK                            x       y       z     vdW  Elec       q    Type
REMARK                         _______ _______ _______ _____ _____    ______ ____
ROOT
ATOM      1  N   UNL     1      34.364 -23.320 -15.348  0.00  0.00    -0.392 NA
ATOM      2  C   UNL     1      34.963 -22.793 -16.433  0.00  0.00    +0.152 C 
ATOM      3  C   UNL     1      34.265 -22.585 -17.641  0.00  0.00    +0.099 C 
ATOM      4  C   UNL     1      36.307 -22.436 -16.384  0.00  0.00    +0.175 C 
ATOM      5  C   UNL     1      34.922 -22.033 -18.754  0.00  0.00    -0.015 C 
ATOM      6  C   UNL     1      36.960 -21.886 -17.490  0.00  0.00    +0.039 C 
ATOM      7  C   UNL     1      32.912 -22.945 -17.691  0.00  0.00    -0.012 C 
ATOM      8  C   UNL     1      36.267 -21.684 -18.676  0.00  0.00    -0.001 C 
ATOM      9  C   UNL     1      32.292 -23.488 -16.575  0.00  0.00    +0.039 C 
ATOM     10  C   UNL     1      33.057 -23.654 -15.438  0.00  0.00    +0.198 C 
ENDROOT
BRANCH  10  12
ATOM     11  N   UNL     1      32.043 -24.653 -13.274  0.00  0.00    -0.188 NA
ATOM     12  C   UNL     1      32.499 -24.204 -14.247  0.00  0.00    +0.133 C 
ENDBRANCH  10  12
BRANCH   4  13
ATOM     13  O   UNL     1      37.025 -22.620 -15.235  0.00  0.00    -0.400 OA
BRANCH  13  14
ATOM     14  P   UNL     1      37.828 -23.967 -14.848  0.00  0.00    +0.528 P 
ATOM     15  O   UNL     1      38.138 -24.135 -13.389  0.00  0.00    -0.216 OA
BRANCH  14  16
ATOM     16  O   UNL     1      36.960 -25.154 -15.522  0.00  0.00    -0.293 OA
ATOM     17  H   UNL     1      36.186 -24.776 -15.967  0.00  0.00    +0.223 HD
ENDBRANCH  14  16
BRANCH  14  18
ATOM     18  O   UNL     1      39.132 -23.886 -15.804  0.00  0.00    -0.293 OA
ATOM     19  H   UNL     1      39.021 -24.491 -16.554  0.00  0.00    +0.223 HD
ENDBRANCH  14  18
ENDBRANCH  13  14
ENDBRANCH   4  13
TORSDOF 5
ENDMDL
MODEL 3
REMARK VINA RESULT:      -7.8      5.510      6.297
REMARK  Name = 447532
REMARK  5 active torsions:
REMARK  status: ('A' for Active; 'I' for Inactive)
REMARK    1  A    between atoms: C_4  and  O_13
REMARK    2  A    between atoms: C_10  and  C_12
REMARK    3  A    between atoms: O_13  and  P_14
REMARK    4  A    between atoms: P_14  and  O_16
REMARK    5  A    between atoms: P_14  and  O_18
REMARK                            x       y       z     vdW  Elec       q    Type
REMARK                         _______ _______ _______ _____ _____    ______ ____
ROOT
ATOM      1  N   UNL     1      35.386 -22.623 -17.083  0.00  0.00    -0.392 NA
ATOM      2  C   UNL     1      34.732 -23.103 -16.007  0.00  0.00    +0.152 C 
ATOM      3  C   UNL     1      33.345 -23.362 -16.034  0.00  0.00    +0.099 C 
ATOM      4  C   UNL     1      35.423 -23.357 -14.827  0.00  0.00    +0.175 C 
ATOM      5  C   UNL     1      32.696 -23.862 -14.893  0.00  0.00    -0.015 C 
ATOM      6  C   UNL     1      34.777 -23.855 -13.692  0.00  0.00    +0.039 C 
ATOM      7  C   UNL     1      32.649 -23.105 -17.223  0.00  0.00    -0.012 C 
ATOM      8  C   UNL     1      33.412 -24.108 -13.725  0.00  0.00    -0.001 C 
ATOM      9  C   UNL     1      33.320 -22.611 -18.332  0.00  0.00    +0.039 C 
ATOM     10  C   UNL     1      34.677 -22.389 -18.211  0.00  0.00    +0.198 C 
ENDROOT
BRANCH  10  12
ATOM     11  N   UNL     1      36.069 -21.470 -20.192  0.00  0.00    -0.188 NA
ATOM     12  C   UNL     1      35.443 -21.884 -19.302  0.00  0.00    +0.133 C 
ENDBRANCH  10  12
BRANCH   4  13
ATOM     13  O   UNL     1      36.768 -23.120 -14.754  0.00  0.00    -0.400 OA
BRANCH  13  14
ATOM     14  P   UNL     1      37.912 -24.261 -14.744  0.00  0.00    +0.528 P 
ATOM     15  O   UNL     1      38.522 -24.547 -13.403  0.00  0.00    -0.216 OA
BRANCH  14  16
ATOM     16  O   UNL     1      37.221 -25.522 -15.485  0.00  0.00    -0.293 OA
ATOM     17  H   UNL     1      36.514 -25.207 -16.068  0.00  0.00    +0.223 HD
ENDBRANCH  14  16
BRANCH  14  18
ATOM     18  O   UNL     1      38.959 -23.718 -15.853  0.00  0.00    -0.293 OA
ATOM     19  H   UNL     1      39.080 -24.393 -16.539  0.00  0.00    +0.223 HD
ENDBRANCH  14  18
ENDBRANCH  13  14
ENDBRANCH   4  13
TORSDOF 5
ENDMDL
MODEL 4
REMARK VINA RESULT:      -7.8      5.574      7.060
REMARK  Name = 447532
REMARK  5 active torsions:
REMARK  status: ('A' for Active; 'I' for Inactive)
REMARK    1  A    between atoms: C_4  and  O_13
REMARK    2  A    between atoms: C_10  and  C_12
REMARK    3  A    between atoms: O_13  and  P_14
REMARK    4  A    between atoms: P_14  and  O_16
REMARK    5  A    between atoms: P_14  and  O_18
REMARK                            x       y       z     vdW  Elec       q    Type
REMARK                         _______ _______ _______ _____ _____    ______ ____
ROOT
ATOM      1  N   UNL     1      33.515 -23.658 -14.323  0.00  0.00    -0.392 NA
ATOM      2  C   UNL     1      34.730 -23.320 -14.795  0.00  0.00    +0.152 C 
ATOM      3  C   UNL     1      34.944 -23.022 -16.158  0.00  0.00    +0.099 C 
ATOM      4  C   UNL     1      35.820 -23.256 -13.933  0.00  0.00    +0.175 C 
ATOM      5  C   UNL     1      36.225 -22.673 -16.615  0.00  0.00    -0.015 C 
ATOM      6  C   UNL     1      37.095 -22.909 -14.388  0.00  0.00    +0.039 C 
ATOM      7  C   UNL     1      33.845 -23.087 -17.026  0.00  0.00    -0.012 C 
ATOM      8  C   UNL     1      37.298 -22.616 -15.730  0.00  0.00    -0.001 C 
ATOM      9  C   UNL     1      32.592 -23.434 -16.543  0.00  0.00    +0.039 C 
ATOM     10  C   UNL     1      32.482 -23.708 -15.195  0.00  0.00    +0.198 C 
ENDROOT
BRANCH  10  12
ATOM     11  N   UNL     1      30.209 -24.369 -14.142  0.00  0.00    -0.188 NA
ATOM     12  C   UNL     1      31.231 -24.073 -14.615  0.00  0.00    +0.133 C 
ENDBRANCH  10  12
BRANCH   4  13
ATOM     13  O   UNL     1      35.662 -23.538 -12.604  0.00  0.00    -0.400 OA
BRANCH  13  14
ATOM     14  P   UNL     1      36.382 -24.754 -11.822  0.00  0.00    +0.528 P 
ATOM     15  O   UNL     1      37.771 -24.468 -11.328  0.00  0.00    -0.216 OA
BRANCH  14  16
ATOM     16  O   UNL     1      35.310 -25.187 -10.690  0.00  0.00    -0.293 OA
ATOM     17  H   UNL     1      35.651 -24.950  -9.814  0.00  0.00    +0.223 HD
ENDBRANCH  14  16
BRANCH  14  18
ATOM     18  O   UNL     1      36.289 -25.965 -12.891  0.00  0.00    -0.293 OA
ATOM     19  H   UNL     1      37.136 -26.435 -12.922  0.00  0.00    +0.223 HD
ENDBRANCH  14  18
ENDBRANCH  13  14
ENDBRANCH   4  13
TORSDOF 5
ENDMDL
MODEL 5
REMARK VINA RESULT:      -7.7      8.590     10.657
REMARK  Name = 447532
REMARK  5 active torsions:
REMARK  status: ('A' for Active; 'I' for Inactive)
REMARK    1  A    between atoms: C_4  and  O_13
REMARK    2  A    between atoms: C_10  and  C_12
REMARK    3  A    between atoms: O_13  and  P_14
REMARK    4  A    between atoms: P_14  and  O_16
REMARK    5  A    between atoms: P_14  and  O_18
REMARK                            x       y       z     vdW  Elec       q    Type
REMARK                         _______ _______ _______ _____ _____    ______ ____
ROOT
ATOM      1  N   UNL     1      34.853 -16.641 -22.624  0.00  0.00    -0.392 NA
ATOM      2  C   UNL     1      34.280 -16.021 -23.674  0.00  0.00    +0.152 C 
ATOM      3  C   UNL     1      34.126 -16.659 -24.922  0.00  0.00    +0.099 C 
ATOM      4  C   UNL     1      33.820 -14.714 -23.546  0.00  0.00    +0.175 C 
ATOM      5  C   UNL     1      33.523 -15.982 -25.995  0.00  0.00    -0.015 C 
ATOM      6  C   UNL     1      33.220 -14.040 -24.613  0.00  0.00    +0.039 C 
ATOM      7  C   UNL     1      34.590 -17.975 -25.051  0.00  0.00    -0.012 C 
ATOM      8  C   UNL     1      33.072 -14.675 -25.839  0.00  0.00    -0.001 C 
ATOM      9  C   UNL     1      35.180 -18.617 -23.971  0.00  0.00    +0.039 C 
ATOM     10  C   UNL     1      35.287 -17.911 -22.790  0.00  0.00    +0.198 C 
ENDROOT
BRANCH  10  12
ATOM     11  N   UNL     1      36.362 -18.969 -20.685  0.00  0.00    -0.188 NA
ATOM     12  C   UNL     1      35.879 -18.494 -21.632  0.00  0.00    +0.133 C 
ENDBRANCH  10  12
BRANCH   4  13
ATOM     13  O   UNL     1      33.949 -14.053 -22.355  0.00  0.00    -0.400 OA
BRANCH  13  14
ATOM     14  P   UNL     1      33.101 -14.376 -21.019  0.00  0.00    +0.528 P 
ATOM     15  O   UNL     1      32.483 -13.183 -20.346  0.00  0.00    -0.216 OA
BRANCH  14  16
ATOM     16  O   UNL     1      32.070 -15.536 -21.473  0.00  0.00    -0.293 OA
ATOM     17  H   UNL     1      31.681 -15.306 -22.330  0.00  0.00    +0.223 HD
ENDBRANCH  14  16
BRANCH  14  18
ATOM     18  O   UNL     1      34.171 -15.178 -20.107  0.00  0.00    -0.293 OA
ATOM     19  H   UNL     1      33.920 -16.113 -20.063  0.00  0.00    +0.223 HD
ENDBRANCH  14  18
ENDBRANCH  13  14
ENDBRANCH   4  13
TORSDOF 5
ENDMDL
MODEL 6
REMARK VINA RESULT:      -7.6     11.136     12.434
REMARK  Name = 447532
REMARK  5 active torsions:
REMARK  status: ('A' for Active; 'I' for Inactive)
REMARK    1  A    between atoms: C_4  and  O_13
REMARK    2  A    between atoms: C_10  and  C_12
REMARK    3  A    between atoms: O_13  and  P_14
REMARK    4  A    between atoms: P_14  and  O_16
REMARK    5  A    between atoms: P_14  and  O_18
REMARK                            x       y       z     vdW  Elec       q    Type
REMARK                         _______ _______ _______ _____ _____    ______ ____
ROOT
ATOM      1  N   UNL     1      32.560 -13.782 -23.387  0.00  0.00    -0.392 NA
ATOM      2  C   UNL     1      33.314 -14.818 -23.803  0.00  0.00    +0.152 C 
ATOM      3  C   UNL     1      34.091 -15.580 -22.906  0.00  0.00    +0.099 C 
ATOM      4  C   UNL     1      33.342 -15.163 -25.151  0.00  0.00    +0.175 C 
ATOM      5  C   UNL     1      34.866 -16.654 -23.375  0.00  0.00    -0.015 C 
ATOM      6  C   UNL     1      34.112 -16.232 -25.617  0.00  0.00    +0.039 C 
ATOM      7  C   UNL     1      34.063 -15.231 -21.549  0.00  0.00    -0.012 C 
ATOM      8  C   UNL     1      34.875 -16.978 -24.728  0.00  0.00    -0.001 C 
ATOM      9  C   UNL     1      33.287 -14.165 -21.118  0.00  0.00    +0.039 C 
ATOM     10  C   UNL     1      32.561 -13.479 -22.069  0.00  0.00    +0.198 C 
ENDROOT
BRANCH  10  12
ATOM     11  N   UNL     1      31.063 -11.467 -21.420  0.00  0.00    -0.188 NA
ATOM     12  C   UNL     1      31.737 -12.371 -21.712  0.00  0.00    +0.133 C 
ENDBRANCH  10  12
BRANCH   4  13
ATOM     13  O   UNL     1      32.606 -14.452 -26.058  0.00  0.00    -0.400 OA
BRANCH  13  14
ATOM     14  P   UNL     1      33.188 -13.297 -27.024  0.00  0.00    +0.528 P 
ATOM     15  O   UNL     1      34.336 -13.709 -27.899  0.00  0.00    -0.216 OA
BRANCH  14  16
ATOM     16  O   UNL     1      31.885 -12.731 -27.797  0.00  0.00    -0.293 OA
ATOM     17  H   UNL     1      31.651 -13.333 -28.520  0.00  0.00    +0.223 HD
ENDBRANCH  14  16
BRANCH  14  18
ATOM     18  O   UNL     1      33.535 -12.108 -25.981  0.00  0.00    -0.293 OA
ATOM     19  H   UNL     1      34.468 -11.859 -26.074  0.00  0.00    +0.223 HD
ENDBRANCH  14  18
ENDBRANCH  13  14
ENDBRANCH   4  13
TORSDOF 5
ENDMDL
MODEL 7
REMARK VINA RESULT:      -7.6      6.762      7.818
REMARK  Name = 447532
REMARK  5 active torsions:
REMARK  status: ('A' for Active; 'I' for Inactive)
REMARK    1  A    between atoms: C_4  and  O_13
REMARK    2  A    between atoms: C_10  and  C_12
REMARK    3  A    between atoms: O_13  and  P_14
REMARK    4  A    between atoms: P_14  and  O_16
REMARK    5  A    between atoms: P_14  and  O_18
REMARK                            x       y       z     vdW  Elec       q    Type
REMARK                         _______ _______ _______ _____ _____    ______ ____
ROOT
ATOM      1  N   UNL     1      35.797 -23.771 -15.759  0.00  0.00    -0.392 NA
ATOM      2  C   UNL     1      35.978 -24.119 -14.471  0.00  0.00    +0.152 C 
ATOM      3  C   UNL     1      34.919 -24.102 -13.539  0.00  0.00    +0.099 C 
ATOM      4  C   UNL     1      37.236 -24.511 -14.024  0.00  0.00    +0.175 C 
ATOM      5  C   UNL     1      35.143 -24.472 -12.203  0.00  0.00    -0.015 C 
ATOM      6  C   UNL     1      37.460 -24.879 -12.694  0.00  0.00    +0.039 C 
ATOM      7  C   UNL     1      33.651 -23.708 -13.990  0.00  0.00    -0.012 C 
ATOM      8  C   UNL     1      36.412 -24.860 -11.783  0.00  0.00    -0.001 C 
ATOM      9  C   UNL     1      33.462 -23.348 -15.316  0.00  0.00    +0.039 C 
ATOM     10  C   UNL     1      34.559 -23.396 -16.153  0.00  0.00    +0.198 C 
ENDROOT
BRANCH  10  12
ATOM     11  N   UNL     1      34.365 -22.757 -18.655  0.00  0.00    -0.188 NA
ATOM     12  C   UNL     1      34.453 -23.044 -17.530  0.00  0.00    +0.133 C 
ENDBRANCH  10  12
BRANCH   4  13
ATOM     13  O   UNL     1      38.294 -24.541 -14.890  0.00  0.00    -0.400 OA
BRANCH  13  14
ATOM     14  P   UNL     1      39.606 -25.468 -14.719  0.00  0.00    +0.528 P 
ATOM     15  O   UNL     1      40.596 -24.997 -13.693  0.00  0.00    -0.216 OA
BRANCH  14  16
ATOM     16  O   UNL     1      39.015 -26.956 -14.493  0.00  0.00    -0.293 OA
ATOM     17  H   UNL     1      39.717 -27.608 -14.638  0.00  0.00    +0.223 HD
ENDBRANCH  14  16
BRANCH  14  18
ATOM     18  O   UNL     1      40.189 -25.535 -16.228  0.00  0.00    -0.293 OA
ATOM     19  H   UNL     1      39.476 -25.347 -16.858  0.00  0.00    +0.223 HD
ENDBRANCH  14  18
ENDBRANCH  13  14
ENDBRANCH   4  13
TORSDOF 5
ENDMDL
MODEL 8
REMARK VINA RESULT:      -7.4      8.656     10.278
REMARK  Name = 447532
REMARK  5 active torsions:
REMARK  status: ('A' for Active; 'I' for Inactive)
REMARK    1  A    between atoms: C_4  and  O_13
REMARK    2  A    between atoms: C_10  and  C_12
REMARK    3  A    between atoms: O_13  and  P_14
REMARK    4  A    between atoms: P_14  and  O_16
REMARK    5  A    between atoms: P_14  and  O_18
REMARK                            x       y       z     vdW  Elec       q    Type
REMARK                         _______ _______ _______ _____ _____    ______ ____
ROOT
ATOM      1  N   UNL     1      33.901 -15.446 -24.031  0.00  0.00    -0.392 NA
ATOM      2  C   UNL     1      34.405 -16.285 -23.106  0.00  0.00    +0.152 C 
ATOM      3  C   UNL     1      34.842 -17.585 -23.438  0.00  0.00    +0.099 C 
ATOM      4  C   UNL     1      34.508 -15.879 -21.778  0.00  0.00    +0.175 C 
ATOM      5  C   UNL     1      35.362 -18.433 -22.446  0.00  0.00    -0.015 C 
ATOM      6  C   UNL     1      35.026 -16.723 -20.792  0.00  0.00    +0.039 C 
ATOM      7  C   UNL     1      34.738 -17.993 -24.774  0.00  0.00    -0.012 C 
ATOM      8  C   UNL     1      35.454 -18.001 -21.127  0.00  0.00    -0.001 C 
ATOM      9  C   UNL     1      34.220 -17.131 -25.730  0.00  0.00    +0.039 C 
ATOM     10  C   UNL     1      33.819 -15.880 -25.310  0.00  0.00    +0.198 C 
ENDROOT
BRANCH  10  12
ATOM     11  N   UNL     1      32.832 -14.158 -26.975  0.00  0.00    -0.188 NA
ATOM     12  C   UNL     1      33.276 -14.932 -26.226  0.00  0.00    +0.133 C 
ENDBRANCH  10  12
BRANCH   4  13
ATOM     13  O   UNL     1      34.096 -14.629 -21.409  0.00  0.00    -0.400 OA
BRANCH  13  14
ATOM     14  P   UNL     1      32.564 -14.202 -21.127  0.00  0.00    +0.528 P 
ATOM     15  O   UNL     1      32.370 -13.183 -20.042  0.00  0.00    -0.216 OA
BRANCH  14  16
ATOM     16  O   UNL     1      31.992 -13.793 -22.584  0.00  0.00    -0.293 OA
ATOM     17  H   UNL     1      31.696 -12.870 -22.568  0.00  0.00    +0.223 HD
ENDBRANCH  14  16
BRANCH  14  18
ATOM     18  O   UNL     1      31.848 -15.626 -20.844  0.00  0.00    -0.293 OA
ATOM     19  H   UNL     1      31.134 -15.762 -21.486  0.00  0.00    +0.223 HD
ENDBRANCH  14  18
ENDBRANCH  13  14
ENDBRANCH   4  13
TORSDOF 5
ENDMDL
MODEL 9
REMARK VINA RESULT:      -7.3     10.227     11.591
REMARK  Name = 447532
REMARK  5 active torsions:
REMARK  status: ('A' for Active; 'I' for Inactive)
REMARK    1  A    between atoms: C_4  and  O_13
REMARK    2  A    between atoms: C_10  and  C_12
REMARK    3  A    between atoms: O_13  and  P_14
REMARK    4  A    between atoms: P_14  and  O_16
REMARK    5  A    between atoms: P_14  and  O_18
REMARK                            x       y       z     vdW  Elec       q    Type
REMARK                         _______ _______ _______ _____ _____    ______ ____
ROOT
ATOM      1  N   UNL     1      32.927 -13.588 -22.822  0.00  0.00    -0.392 NA
ATOM      2  C   UNL     1      33.594 -14.751 -22.698  0.00  0.00    +0.152 C 
ATOM      3  C   UNL     1      33.636 -15.459 -21.478  0.00  0.00    +0.099 C 
ATOM      4  C   UNL     1      34.267 -15.289 -23.790  0.00  0.00    +0.175 C 
ATOM      5  C   UNL     1      34.341 -16.670 -21.385  0.00  0.00    -0.015 C 
ATOM      6  C   UNL     1      34.969 -16.494 -23.697  0.00  0.00    +0.039 C 
ATOM      7  C   UNL     1      32.957 -14.917 -20.378  0.00  0.00    -0.012 C 
ATOM      8  C   UNL     1      35.006 -17.185 -22.493  0.00  0.00    -0.001 C 
ATOM      9  C   UNL     1      32.269 -13.718 -20.503  0.00  0.00    +0.039 C 
ATOM     10  C   UNL     1      32.285 -13.099 -21.737  0.00  0.00    +0.198 C 
ENDROOT
BRANCH  10  12
ATOM     11  N   UNL     1      31.048 -10.858 -22.130  0.00  0.00    -0.188 NA
ATOM     12  C   UNL     1      31.603 -11.866 -21.953  0.00  0.00    +0.133 C 
ENDBRANCH  10  12
BRANCH   4  13
ATOM     13  O   UNL     1      34.257 -14.638 -24.993  0.00  0.00    -0.400 OA
BRANCH  13  14
ATOM     14  P   UNL     1      33.190 -14.896 -26.178  0.00  0.00    +0.528 P 
ATOM     15  O   UNL     1      32.884 -16.338 -26.464  0.00  0.00    -0.216 OA
BRANCH  14  16
ATOM     16  O   UNL     1      31.922 -13.975 -25.779  0.00  0.00    -0.293 OA
ATOM     17  H   UNL     1      31.190 -14.150 -26.390  0.00  0.00    +0.223 HD
ENDBRANCH  14  16
BRANCH  14  18
ATOM     18  O   UNL     1      33.844 -14.092 -27.421  0.00  0.00    -0.293 OA
ATOM     19  H   UNL     1      33.892 -14.676 -28.194  0.00  0.00    +0.223 HD
ENDBRANCH  14  18
ENDBRANCH  13  14
ENDBRANCH   4  13
TORSDOF 5
ENDMDL
