MODEL 1
REMARK VINA RESULT:      -5.2      0.000      0.000
REMARK  Name = 546
REMARK  5 active torsions:
REMARK  status: ('A' for Active; 'I' for Inactive)
REMARK    1  A    between atoms: P_1  and  O_3
REMARK    2  A    between atoms: P_1  and  O_5
REMARK    3  A    between atoms: P_1  and  C_7
REMARK    4  A    between atoms: C_7  and  C_9
REMARK    5  A    between atoms: C_9  and  O_10
REMARK                            x       y       z     vdW  Elec       q    Type
REMARK                         _______ _______ _______ _____ _____    ______ ____
ROOT
ATOM      1  P   UNL     1      37.972 -24.854 -14.691  0.00  0.00    +0.348 P 
ATOM      2  O   UNL     1      36.829 -24.429 -13.833  0.00  0.00    -0.258 OA
ENDROOT
BRANCH   1   3
ATOM      3  O   UNL     1      37.704 -26.126 -15.643  0.00  0.00    -0.323 OA
ATOM      4  H   UNL     1      36.937 -26.621 -15.315  0.00  0.00    +0.220 HD
ENDBRANCH   1   3
BRANCH   1   5
ATOM      5  O   UNL     1      38.556 -23.736 -15.694  0.00  0.00    -0.323 OA
ATOM      6  H   UNL     1      38.181 -22.871 -15.467  0.00  0.00    +0.220 HD
ENDBRANCH   1   5
BRANCH   1   7
ATOM      7  C   UNL     1      39.433 -25.355 -13.765  0.00  0.00    +0.224 C 
BRANCH   7   9
ATOM      8  O   UNL     1      41.302 -26.833 -14.114  0.00  0.00    -0.250 OA
ATOM      9  C   UNL     1      40.473 -26.063 -14.581  0.00  0.00    +0.326 C 
BRANCH   9  10
ATOM     10  O   UNL     1      40.376 -25.787 -15.905  0.00  0.00    -0.480 OA
ATOM     11  H   UNL     1      40.414 -26.483 -16.531  0.00  0.00    +0.295 HD
ENDBRANCH   9  10
ENDBRANCH   7   9
ENDBRANCH   1   7
TORSDOF 5
ENDMDL
MODEL 2
REMARK VINA RESULT:      -5.1      1.253      1.896
REMARK  Name = 546
REMARK  5 active torsions:
REMARK  status: ('A' for Active; 'I' for Inactive)
REMARK    1  A    between atoms: P_1  and  O_3
REMARK    2  A    between atoms: P_1  and  O_5
REMARK    3  A    between atoms: P_1  and  C_7
REMARK    4  A    between atoms: C_7  and  C_9
REMARK    5  A    between atoms: C_9  and  O_10
REMARK                            x       y       z     vdW  Elec       q    Type
REMARK                         _______ _______ _______ _____ _____    ______ ____
ROOT
ATOM      1  P   UNL     1      37.553 -26.132 -14.382  0.00  0.00    +0.348 P 
ATOM      2  O   UNL     1      36.756 -25.285 -15.314  0.00  0.00    -0.258 OA
ENDROOT
BRANCH   1   3
ATOM      3  O   UNL     1      36.868 -26.451 -12.959  0.00  0.00    -0.323 OA
ATOM      4  H   UNL     1      37.506 -26.283 -12.247  0.00  0.00    +0.220 HD
ENDBRANCH   1   3
BRANCH   1   5
ATOM      5  O   UNL     1      37.983 -27.582 -14.937  0.00  0.00    -0.323 OA
ATOM      6  H   UNL     1      37.189 -28.118 -15.091  0.00  0.00    +0.220 HD
ENDBRANCH   1   5
BRANCH   1   7
ATOM      7  C   UNL     1      39.131 -25.408 -13.906  0.00  0.00    +0.224 C 
BRANCH   7   9
ATOM      8  O   UNL     1      41.225 -26.588 -14.054  0.00  0.00    -0.250 OA
ATOM      9  C   UNL     1      40.319 -25.986 -14.615  0.00  0.00    +0.326 C 
BRANCH   9  10
ATOM     10  O   UNL     1      40.267 -25.803 -15.957  0.00  0.00    -0.480 OA
ATOM     11  H   UNL     1      41.022 -25.977 -16.483  0.00  0.00    +0.295 HD
ENDBRANCH   9  10
ENDBRANCH   7   9
ENDBRANCH   1   7
TORSDOF 5
ENDMDL
MODEL 3
REMARK VINA RESULT:      -5.0      2.248      3.330
REMARK  Name = 546
REMARK  5 active torsions:
REMARK  status: ('A' for Active; 'I' for Inactive)
REMARK    1  A    between atoms: P_1  and  O_3
REMARK    2  A    between atoms: P_1  and  O_5
REMARK    3  A    between atoms: P_1  and  C_7
REMARK    4  A    between atoms: C_7  and  C_9
REMARK    5  A    between atoms: C_9  and  O_10
REMARK                            x       y       z     vdW  Elec       q    Type
REMARK                         _______ _______ _______ _____ _____    ______ ____
ROOT
ATOM      1  P   UNL     1      37.371 -26.261 -14.659  0.00  0.00    +0.348 P 
ATOM      2  O   UNL     1      38.660 -27.003 -14.757  0.00  0.00    -0.258 OA
ENDROOT
BRANCH   1   3
ATOM      3  O   UNL     1      37.278 -24.894 -15.506  0.00  0.00    -0.323 OA
ATOM      4  H   UNL     1      37.800 -24.980 -16.319  0.00  0.00    +0.220 HD
ENDBRANCH   1   3
BRANCH   1   5
ATOM      5  O   UNL     1      36.051 -27.077 -15.094  0.00  0.00    -0.323 OA
ATOM      6  H   UNL     1      36.312 -27.890 -15.556  0.00  0.00    +0.220 HD
ENDBRANCH   1   5
BRANCH   1   7
ATOM      7  C   UNL     1      36.966 -25.719 -12.990  0.00  0.00    +0.224 C 
BRANCH   7   9
ATOM      8  O   UNL     1      37.906 -24.376 -11.226  0.00  0.00    -0.250 OA
ATOM      9  C   UNL     1      37.988 -24.816 -12.364  0.00  0.00    +0.326 C 
BRANCH   9  10
ATOM     10  O   UNL     1      39.038 -24.568 -13.185  0.00  0.00    -0.480 OA
ATOM     11  H   UNL     1      39.902 -24.830 -12.933  0.00  0.00    +0.295 HD
ENDBRANCH   9  10
ENDBRANCH   7   9
ENDBRANCH   1   7
TORSDOF 5
ENDMDL
MODEL 4
REMARK VINA RESULT:      -4.9      2.990      4.002
REMARK  Name = 546
REMARK  5 active torsions:
REMARK  status: ('A' for Active; 'I' for Inactive)
REMARK    1  A    between atoms: P_1  and  O_3
REMARK    2  A    between atoms: P_1  and  O_5
REMARK    3  A    between atoms: P_1  and  C_7
REMARK    4  A    between atoms: C_7  and  C_9
REMARK    5  A    between atoms: C_9  and  O_10
REMARK                            x       y       z     vdW  Elec       q    Type
REMARK                         _______ _______ _______ _____ _____    ______ ____
ROOT
ATOM      1  P   UNL     1      35.978 -24.247 -11.427  0.00  0.00    +0.348 P 
ATOM      2  O   UNL     1      36.194 -24.101  -9.960  0.00  0.00    -0.258 OA
ENDROOT
BRANCH   1   3
ATOM      3  O   UNL     1      34.634 -25.018 -11.869  0.00  0.00    -0.323 OA
ATOM      4  H   UNL     1      33.895 -24.727 -11.312  0.00  0.00    +0.220 HD
ENDBRANCH   1   3
BRANCH   1   5
ATOM      5  O   UNL     1      35.934 -22.878 -12.275  0.00  0.00    -0.323 OA
ATOM      6  H   UNL     1      36.827 -22.662 -12.587  0.00  0.00    +0.220 HD
ENDBRANCH   1   5
BRANCH   1   7
ATOM      7  C   UNL     1      37.265 -25.188 -12.265  0.00  0.00    +0.224 C 
BRANCH   7   9
ATOM      8  O   UNL     1      39.370 -24.720 -13.336  0.00  0.00    -0.250 OA
ATOM      9  C   UNL     1      38.545 -24.436 -12.479  0.00  0.00    +0.326 C 
BRANCH   9  10
ATOM     10  O   UNL     1      38.675 -23.378 -11.641  0.00  0.00    -0.480 OA
ATOM     11  H   UNL     1      38.459 -23.469 -10.734  0.00  0.00    +0.295 HD
ENDBRANCH   9  10
ENDBRANCH   7   9
ENDBRANCH   1   7
TORSDOF 5
ENDMDL
MODEL 5
REMARK VINA RESULT:      -4.9      1.979      3.432
REMARK  Name = 546
REMARK  5 active torsions:
REMARK  status: ('A' for Active; 'I' for Inactive)
REMARK    1  A    between atoms: P_1  and  O_3
REMARK    2  A    between atoms: P_1  and  O_5
REMARK    3  A    between atoms: P_1  and  C_7
REMARK    4  A    between atoms: C_7  and  C_9
REMARK    5  A    between atoms: C_9  and  O_10
REMARK                            x       y       z     vdW  Elec       q    Type
REMARK                         _______ _______ _______ _____ _____    ______ ____
ROOT
ATOM      1  P   UNL     1      39.364 -25.521 -14.367  0.00  0.00    +0.348 P 
ATOM      2  O   UNL     1      39.504 -26.965 -14.709  0.00  0.00    -0.258 OA
ENDROOT
BRANCH   1   3
ATOM      3  O   UNL     1      40.740 -24.699 -14.202  0.00  0.00    -0.323 OA
ATOM      4  H   UNL     1      40.662 -23.842 -14.652  0.00  0.00    +0.220 HD
ENDBRANCH   1   3
BRANCH   1   5
ATOM      5  O   UNL     1      38.503 -24.631 -15.398  0.00  0.00    -0.323 OA
ATOM      6  H   UNL     1      39.062 -23.925 -15.760  0.00  0.00    +0.220 HD
ENDBRANCH   1   5
BRANCH   1   7
ATOM      7  C   UNL     1      38.534 -25.219 -12.798  0.00  0.00    +0.224 C 
BRANCH   7   9
ATOM      8  O   UNL     1      36.564 -25.925 -11.606  0.00  0.00    -0.250 OA
ATOM      9  C   UNL     1      37.253 -25.977 -12.617  0.00  0.00    +0.326 C 
BRANCH   9  10
ATOM     10  O   UNL     1      36.915 -26.702 -13.711  0.00  0.00    -0.480 OA
ATOM     11  H   UNL     1      37.102 -27.619 -13.742  0.00  0.00    +0.295 HD
ENDBRANCH   9  10
ENDBRANCH   7   9
ENDBRANCH   1   7
TORSDOF 5
ENDMDL
MODEL 6
REMARK VINA RESULT:      -4.8      2.015      3.500
REMARK  Name = 546
REMARK  5 active torsions:
REMARK  status: ('A' for Active; 'I' for Inactive)
REMARK    1  A    between atoms: P_1  and  O_3
REMARK    2  A    between atoms: P_1  and  O_5
REMARK    3  A    between atoms: P_1  and  C_7
REMARK    4  A    between atoms: C_7  and  C_9
REMARK    5  A    between atoms: C_9  and  O_10
REMARK                            x       y       z     vdW  Elec       q    Type
REMARK                         _______ _______ _______ _____ _____    ______ ____
ROOT
ATOM      1  P   UNL     1      39.356 -25.601 -14.514  0.00  0.00    +0.348 P 
ATOM      2  O   UNL     1      40.529 -26.467 -14.823  0.00  0.00    -0.258 OA
ENDROOT
BRANCH   1   3
ATOM      3  O   UNL     1      39.465 -24.717 -13.172  0.00  0.00    -0.323 OA
ATOM      4  H   UNL     1      40.017 -23.937 -13.341  0.00  0.00    +0.220 HD
ENDBRANCH   1   3
BRANCH   1   5
ATOM      5  O   UNL     1      38.949 -24.531 -15.649  0.00  0.00    -0.323 OA
ATOM      6  H   UNL     1      39.737 -24.287 -16.160  0.00  0.00    +0.220 HD
ENDBRANCH   1   5
BRANCH   1   7
ATOM      7  C   UNL     1      37.822 -26.511 -14.263  0.00  0.00    +0.224 C 
BRANCH   7   9
ATOM      8  O   UNL     1      36.042 -25.377 -15.423  0.00  0.00    -0.250 OA
ATOM      9  C   UNL     1      36.806 -26.330 -15.352  0.00  0.00    +0.326 C 
BRANCH   9  10
ATOM     10  O   UNL     1      36.849 -27.321 -16.276  0.00  0.00    -0.480 OA
ATOM     11  H   UNL     1      36.179 -27.976 -16.291  0.00  0.00    +0.295 HD
ENDBRANCH   9  10
ENDBRANCH   7   9
ENDBRANCH   1   7
TORSDOF 5
ENDMDL
MODEL 7
REMARK VINA RESULT:      -4.7      2.786      4.244
REMARK  Name = 546
REMARK  5 active torsions:
REMARK  status: ('A' for Active; 'I' for Inactive)
REMARK    1  A    between atoms: P_1  and  O_3
REMARK    2  A    between atoms: P_1  and  O_5
REMARK    3  A    between atoms: P_1  and  C_7
REMARK    4  A    between atoms: C_7  and  C_9
REMARK    5  A    between atoms: C_9  and  O_10
REMARK                            x       y       z     vdW  Elec       q    Type
REMARK                         _______ _______ _______ _____ _____    ______ ____
ROOT
ATOM      1  P   UNL     1      37.417 -25.902 -13.245  0.00  0.00    +0.348 P 
ATOM      2  O   UNL     1      38.847 -26.189 -13.551  0.00  0.00    -0.258 OA
ENDROOT
BRANCH   1   3
ATOM      3  O   UNL     1      36.352 -26.352 -14.367  0.00  0.00    -0.323 OA
ATOM      4  H   UNL     1      36.616 -27.208 -14.740  0.00  0.00    +0.220 HD
ENDBRANCH   1   3
BRANCH   1   5
ATOM      5  O   UNL     1      36.842 -26.547 -11.885  0.00  0.00    -0.323 OA
ATOM      6  H   UNL     1      36.877 -27.515 -11.947  0.00  0.00    +0.220 HD
ENDBRANCH   1   5
BRANCH   1   7
ATOM      7  C   UNL     1      37.052 -24.151 -13.036  0.00  0.00    +0.224 C 
BRANCH   7   9
ATOM      8  O   UNL     1      38.457 -22.767 -11.655  0.00  0.00    -0.250 OA
ATOM      9  C   UNL     1      37.535 -23.566 -11.742  0.00  0.00    +0.326 C 
BRANCH   9  10
ATOM     10  O   UNL     1      36.813 -23.989 -10.675  0.00  0.00    -0.480 OA
ATOM     11  H   UNL     1      36.482 -23.367 -10.057  0.00  0.00    +0.295 HD
ENDBRANCH   9  10
ENDBRANCH   7   9
ENDBRANCH   1   7
TORSDOF 5
ENDMDL
MODEL 8
REMARK VINA RESULT:      -4.7      2.213      3.340
REMARK  Name = 546
REMARK  5 active torsions:
REMARK  status: ('A' for Active; 'I' for Inactive)
REMARK    1  A    between atoms: P_1  and  O_3
REMARK    2  A    between atoms: P_1  and  O_5
REMARK    3  A    between atoms: P_1  and  C_7
REMARK    4  A    between atoms: C_7  and  C_9
REMARK    5  A    between atoms: C_9  and  O_10
REMARK                            x       y       z     vdW  Elec       q    Type
REMARK                         _______ _______ _______ _____ _____    ______ ____
ROOT
ATOM      1  P   UNL     1      37.166 -26.478 -15.074  0.00  0.00    +0.348 P 
ATOM      2  O   UNL     1      36.580 -27.308 -16.164  0.00  0.00    -0.258 OA
ENDROOT
BRANCH   1   3
ATOM      3  O   UNL     1      36.904 -27.001 -13.572  0.00  0.00    -0.323 OA
ATOM      4  H   UNL     1      36.119 -26.562 -13.208  0.00  0.00    +0.220 HD
ENDBRANCH   1   3
BRANCH   1   5
ATOM      5  O   UNL     1      38.761 -26.257 -15.134  0.00  0.00    -0.323 OA
ATOM      6  H   UNL     1      38.996 -25.828 -15.972  0.00  0.00    +0.220 HD
ENDBRANCH   1   5
BRANCH   1   7
ATOM      7  C   UNL     1      36.536 -24.792 -15.020  0.00  0.00    +0.224 C 
BRANCH   7   9
ATOM      8  O   UNL     1      37.700 -23.211 -13.625  0.00  0.00    -0.250 OA
ATOM      9  C   UNL     1      37.572 -23.751 -14.716  0.00  0.00    +0.326 C 
BRANCH   9  10
ATOM     10  O   UNL     1      38.381 -23.495 -15.773  0.00  0.00    -0.480 OA
ATOM     11  H   UNL     1      38.038 -23.531 -16.644  0.00  0.00    +0.295 HD
ENDBRANCH   9  10
ENDBRANCH   7   9
ENDBRANCH   1   7
TORSDOF 5
ENDMDL
MODEL 9
REMARK VINA RESULT:      -4.7      9.447     10.421
REMARK  Name = 546
REMARK  5 active torsions:
REMARK  status: ('A' for Active; 'I' for Inactive)
REMARK    1  A    between atoms: P_1  and  O_3
REMARK    2  A    between atoms: P_1  and  O_5
REMARK    3  A    between atoms: P_1  and  C_7
REMARK    4  A    between atoms: C_7  and  C_9
REMARK    5  A    between atoms: C_9  and  O_10
REMARK                            x       y       z     vdW  Elec       q    Type
REMARK                         _______ _______ _______ _____ _____    ______ ____
ROOT
ATOM      1  P   UNL     1      28.426 -23.043 -16.665  0.00  0.00    +0.348 P 
ATOM      2  O   UNL     1      27.462 -23.396 -17.745  0.00  0.00    -0.258 OA
ENDROOT
BRANCH   1   3
ATOM      3  O   UNL     1      29.826 -22.410 -17.148  0.00  0.00    -0.323 OA
ATOM      4  H   UNL     1      29.698 -21.476 -17.377  0.00  0.00    +0.220 HD
ENDBRANCH   1   3
BRANCH   1   5
ATOM      5  O   UNL     1      27.894 -22.003 -15.556  0.00  0.00    -0.323 OA
ATOM      6  H   UNL     1      28.378 -21.166 -15.639  0.00  0.00    +0.220 HD
ENDBRANCH   1   5
BRANCH   1   7
ATOM      7  C   UNL     1      28.952 -24.448 -15.668  0.00  0.00    +0.224 C 
BRANCH   7   9
ATOM      8  O   UNL     1      30.463 -23.014 -14.460  0.00  0.00    -0.250 OA
ATOM      9  C   UNL     1      29.930 -24.109 -14.583  0.00  0.00    +0.326 C 
BRANCH   9  10
ATOM     10  O   UNL     1      30.137 -25.137 -13.725  0.00  0.00    -0.480 OA
ATOM     11  H   UNL     1      29.414 -25.661 -13.440  0.00  0.00    +0.295 HD
ENDBRANCH   9  10
ENDBRANCH   7   9
ENDBRANCH   1   7
TORSDOF 5
ENDMDL
