MODEL 1
REMARK VINA RESULT:      -6.8      0.000      0.000
REMARK  Name = 5333
REMARK  3 active torsions:
REMARK  status: ('A' for Active; 'I' for Inactive)
REMARK    1  A    between atoms: C_1  and  S_7
REMARK    2  A    between atoms: C_4  and  N_13
REMARK    3  A    between atoms: S_7  and  N_10
REMARK                            x       y       z     vdW  Elec       q    Type
REMARK                         _______ _______ _______ _____ _____    ______ ____
ROOT
ATOM      1  C   UNL     1      34.371 -21.365 -19.637  0.00  0.00    +0.122 C 
ATOM      2  C   UNL     1      33.468 -20.493 -20.245  0.00  0.00    +0.021 C 
ATOM      3  C   UNL     1      35.742 -21.139 -19.749  0.00  0.00    +0.021 C 
ATOM      4  C   UNL     1      35.309 -19.167 -21.077  0.00  0.00    +0.042 C 
ATOM      5  C   UNL     1      33.937 -19.394 -20.965  0.00  0.00    +0.015 C 
ATOM      6  C   UNL     1      36.212 -20.040 -20.469  0.00  0.00    +0.015 C 
ENDROOT
BRANCH   1   7
ATOM      7  S   UNL     1      33.784 -22.742 -18.738  0.00  0.00    +0.057 S 
ATOM      8  O   UNL     1      32.465 -22.419 -18.212  0.00  0.00    -0.153 OA
ATOM      9  O   UNL     1      33.966 -23.937 -19.550  0.00  0.00    -0.153 OA
BRANCH   7  10
ATOM     10  N   UNL     1      34.898 -22.783 -17.443  0.00  0.00    -0.203 NA
ATOM     11  H   UNL     1      35.065 -21.834 -17.107  0.00  0.00    +0.144 HD
ATOM     12  H   UNL     1      35.777 -23.190 -17.764  0.00  0.00    +0.144 HD
ENDBRANCH   7  10
ENDBRANCH   1   7
BRANCH   4  13
ATOM     13  N   UNL     1      35.784 -18.059 -21.807  0.00  0.00    -0.357 N 
ATOM     14  H   UNL     1      36.752 -17.891 -21.872  0.00  0.00    +0.142 HD
ATOM     15  H   UNL     1      35.149 -17.453 -22.252  0.00  0.00    +0.142 HD
ENDBRANCH   4  13
TORSDOF 3
ENDMDL
MODEL 2
REMARK VINA RESULT:      -6.8      1.106      1.980
REMARK  Name = 5333
REMARK  3 active torsions:
REMARK  status: ('A' for Active; 'I' for Inactive)
REMARK    1  A    between atoms: C_1  and  S_7
REMARK    2  A    between atoms: C_4  and  N_13
REMARK    3  A    between atoms: S_7  and  N_10
REMARK                            x       y       z     vdW  Elec       q    Type
REMARK                         _______ _______ _______ _____ _____    ______ ____
ROOT
ATOM      1  C   UNL     1      34.490 -21.341 -19.649  0.00  0.00    +0.122 C 
ATOM      2  C   UNL     1      35.844 -21.044 -19.803  0.00  0.00    +0.021 C 
ATOM      3  C   UNL     1      33.525 -20.523 -20.235  0.00  0.00    +0.021 C 
ATOM      4  C   UNL     1      35.268 -19.109 -21.130  0.00  0.00    +0.042 C 
ATOM      5  C   UNL     1      36.233 -19.927 -20.544  0.00  0.00    +0.015 C 
ATOM      6  C   UNL     1      33.914 -19.406 -20.976  0.00  0.00    +0.015 C 
ENDROOT
BRANCH   1   7
ATOM      7  S   UNL     1      34.003 -22.737 -18.720  0.00  0.00    +0.057 S 
ATOM      8  O   UNL     1      33.951 -23.887 -19.612  0.00  0.00    -0.153 OA
ATOM      9  O   UNL     1      34.813 -22.794 -17.511  0.00  0.00    -0.153 OA
BRANCH   7  10
ATOM     10  N   UNL     1      32.408 -22.300 -18.290  0.00  0.00    -0.203 NA
ATOM     11  H   UNL     1      31.811 -22.335 -19.117  0.00  0.00    +0.144 HD
ATOM     12  H   UNL     1      32.406 -21.354 -17.908  0.00  0.00    +0.144 HD
ENDBRANCH   7  10
ENDBRANCH   1   7
BRANCH   4  13
ATOM     13  N   UNL     1      35.660 -17.978 -21.876  0.00  0.00    -0.357 N 
ATOM     14  H   UNL     1      35.997 -18.088 -22.795  0.00  0.00    +0.142 HD
ATOM     15  H   UNL     1      35.597 -17.080 -21.480  0.00  0.00    +0.142 HD
ENDBRANCH   4  13
TORSDOF 3
ENDMDL
MODEL 3
REMARK VINA RESULT:      -6.5      7.032      8.023
REMARK  Name = 5333
REMARK  3 active torsions:
REMARK  status: ('A' for Active; 'I' for Inactive)
REMARK    1  A    between atoms: C_1  and  S_7
REMARK    2  A    between atoms: C_4  and  N_13
REMARK    3  A    between atoms: S_7  and  N_10
REMARK                            x       y       z     vdW  Elec       q    Type
REMARK                         _______ _______ _______ _____ _____    ______ ____
ROOT
ATOM      1  C   UNL     1      29.379 -23.593 -15.600  0.00  0.00    +0.122 C 
ATOM      2  C   UNL     1      30.553 -22.844 -15.527  0.00  0.00    +0.021 C 
ATOM      3  C   UNL     1      29.314 -24.850 -14.998  0.00  0.00    +0.021 C 
ATOM      4  C   UNL     1      31.598 -24.608 -14.248  0.00  0.00    +0.042 C 
ATOM      5  C   UNL     1      31.663 -23.351 -14.850  0.00  0.00    +0.015 C 
ATOM      6  C   UNL     1      30.424 -25.357 -14.321  0.00  0.00    +0.015 C 
ENDROOT
BRANCH   1   7
ATOM      7  S   UNL     1      27.991 -22.960 -16.448  0.00  0.00    +0.057 S 
ATOM      8  O   UNL     1      26.888 -22.844 -15.504  0.00  0.00    -0.153 OA
ATOM      9  O   UNL     1      28.410 -21.797 -17.218  0.00  0.00    -0.153 OA
BRANCH   7  10
ATOM     10  N   UNL     1      27.658 -24.241 -17.529  0.00  0.00    -0.203 NA
ATOM     11  H   UNL     1      27.555 -23.870 -18.474  0.00  0.00    +0.144 HD
ATOM     12  H   UNL     1      26.794 -24.705 -17.250  0.00  0.00    +0.144 HD
ENDBRANCH   7  10
ENDBRANCH   1   7
BRANCH   4  13
ATOM     13  N   UNL     1      32.721 -25.123 -13.567  0.00  0.00    -0.357 N 
ATOM     14  H   UNL     1      32.601 -25.609 -12.719  0.00  0.00    +0.142 HD
ATOM     15  H   UNL     1      33.623 -24.997 -13.939  0.00  0.00    +0.142 HD
ENDBRANCH   4  13
TORSDOF 3
ENDMDL
MODEL 4
REMARK VINA RESULT:      -6.5      3.559      4.701
REMARK  Name = 5333
REMARK  3 active torsions:
REMARK  status: ('A' for Active; 'I' for Inactive)
REMARK    1  A    between atoms: C_1  and  S_7
REMARK    2  A    between atoms: C_4  and  N_13
REMARK    3  A    between atoms: S_7  and  N_10
REMARK                            x       y       z     vdW  Elec       q    Type
REMARK                         _______ _______ _______ _____ _____    ______ ____
ROOT
ATOM      1  C   UNL     1      34.960 -19.537 -21.031  0.00  0.00    +0.122 C 
ATOM      2  C   UNL     1      33.567 -19.500 -20.958  0.00  0.00    +0.021 C 
ATOM      3  C   UNL     1      35.669 -20.519 -20.341  0.00  0.00    +0.021 C 
ATOM      4  C   UNL     1      33.593 -21.429 -19.504  0.00  0.00    +0.042 C 
ATOM      5  C   UNL     1      32.884 -20.447 -20.194  0.00  0.00    +0.015 C 
ATOM      6  C   UNL     1      34.986 -21.466 -19.577  0.00  0.00    +0.015 C 
ENDROOT
BRANCH   1   7
ATOM      7  S   UNL     1      35.815 -18.351 -21.986  0.00  0.00    +0.057 S 
ATOM      8  O   UNL     1      35.290 -17.032 -21.659  0.00  0.00    -0.153 OA
ATOM      9  O   UNL     1      37.244 -18.610 -21.874  0.00  0.00    -0.153 OA
BRANCH   7  10
ATOM     10  N   UNL     1      35.304 -18.773 -23.561  0.00  0.00    -0.203 NA
ATOM     11  H   UNL     1      35.417 -17.970 -24.181  0.00  0.00    +0.144 HD
ATOM     12  H   UNL     1      34.322 -19.048 -23.537  0.00  0.00    +0.144 HD
ENDBRANCH   7  10
ENDBRANCH   1   7
BRANCH   4  13
ATOM     13  N   UNL     1      32.904 -22.384 -18.728  0.00  0.00    -0.357 N 
ATOM     14  H   UNL     1      33.264 -23.296 -18.637  0.00  0.00    +0.142 HD
ATOM     15  H   UNL     1      32.064 -22.140 -18.278  0.00  0.00    +0.142 HD
ENDBRANCH   4  13
TORSDOF 3
ENDMDL
MODEL 5
REMARK VINA RESULT:      -6.5      3.562      4.920
REMARK  Name = 5333
REMARK  3 active torsions:
REMARK  status: ('A' for Active; 'I' for Inactive)
REMARK    1  A    between atoms: C_1  and  S_7
REMARK    2  A    between atoms: C_4  and  N_13
REMARK    3  A    between atoms: S_7  and  N_10
REMARK                            x       y       z     vdW  Elec       q    Type
REMARK                         _______ _______ _______ _____ _____    ______ ____
ROOT
ATOM      1  C   UNL     1      34.962 -19.534 -21.035  0.00  0.00    +0.122 C 
ATOM      2  C   UNL     1      35.675 -20.515 -20.344  0.00  0.00    +0.021 C 
ATOM      3  C   UNL     1      33.570 -19.501 -20.960  0.00  0.00    +0.021 C 
ATOM      4  C   UNL     1      33.603 -21.430 -19.504  0.00  0.00    +0.042 C 
ATOM      5  C   UNL     1      34.995 -21.463 -19.579  0.00  0.00    +0.015 C 
ATOM      6  C   UNL     1      32.890 -20.449 -20.195  0.00  0.00    +0.015 C 
ENDROOT
BRANCH   1   7
ATOM      7  S   UNL     1      35.813 -18.350 -21.994  0.00  0.00    +0.057 S 
ATOM      8  O   UNL     1      35.287 -17.031 -21.670  0.00  0.00    -0.153 OA
ATOM      9  O   UNL     1      37.243 -18.605 -21.884  0.00  0.00    -0.153 OA
BRANCH   7  10
ATOM     10  N   UNL     1      35.300 -18.777 -23.568  0.00  0.00    -0.203 NA
ATOM     11  H   UNL     1      35.135 -19.783 -23.610  0.00  0.00    +0.144 HD
ATOM     12  H   UNL     1      36.022 -18.522 -24.241  0.00  0.00    +0.144 HD
ENDBRANCH   7  10
ENDBRANCH   1   7
BRANCH   4  13
ATOM     13  N   UNL     1      32.914 -22.389 -18.734  0.00  0.00    -0.357 N 
ATOM     14  H   UNL     1      33.406 -22.945 -18.086  0.00  0.00    +0.142 HD
ATOM     15  H   UNL     1      31.943 -22.504 -18.842  0.00  0.00    +0.142 HD
ENDBRANCH   4  13
TORSDOF 3
ENDMDL
MODEL 6
REMARK VINA RESULT:      -6.3      6.917      7.892
REMARK  Name = 5333
REMARK  3 active torsions:
REMARK  status: ('A' for Active; 'I' for Inactive)
REMARK    1  A    between atoms: C_1  and  S_7
REMARK    2  A    between atoms: C_4  and  N_13
REMARK    3  A    between atoms: S_7  and  N_10
REMARK                            x       y       z     vdW  Elec       q    Type
REMARK                         _______ _______ _______ _____ _____    ______ ____
ROOT
ATOM      1  C   UNL     1      29.460 -23.693 -15.795  0.00  0.00    +0.122 C 
ATOM      2  C   UNL     1      29.334 -24.842 -15.014  0.00  0.00    +0.021 C 
ATOM      3  C   UNL     1      30.675 -23.009 -15.839  0.00  0.00    +0.021 C 
ATOM      4  C   UNL     1      31.639 -24.623 -14.320  0.00  0.00    +0.042 C 
ATOM      5  C   UNL     1      30.424 -25.307 -14.276  0.00  0.00    +0.015 C 
ATOM      6  C   UNL     1      31.764 -23.474 -15.101  0.00  0.00    +0.015 C 
ENDROOT
BRANCH   1   7
ATOM      7  S   UNL     1      28.096 -23.110 -16.715  0.00  0.00    +0.057 S 
ATOM      8  O   UNL     1      28.459 -21.834 -17.317  0.00  0.00    -0.153 OA
ATOM      9  O   UNL     1      27.608 -24.194 -17.557  0.00  0.00    -0.153 OA
BRANCH   7  10
ATOM     10  N   UNL     1      26.960 -22.829 -15.470  0.00  0.00    -0.203 NA
ATOM     11  H   UNL     1      27.066 -23.541 -14.747  0.00  0.00    +0.144 HD
ATOM     12  H   UNL     1      26.017 -22.873 -15.855  0.00  0.00    +0.144 HD
ENDBRANCH   7  10
ENDBRANCH   1   7
BRANCH   4  13
ATOM     13  N   UNL     1      32.739 -25.090 -13.573  0.00  0.00    -0.357 N 
ATOM     14  H   UNL     1      32.740 -25.004 -12.592  0.00  0.00    +0.142 HD
ATOM     15  H   UNL     1      33.506 -25.502 -14.031  0.00  0.00    +0.142 HD
ENDBRANCH   4  13
TORSDOF 3
ENDMDL
MODEL 7
REMARK VINA RESULT:      -6.3      8.116      9.026
REMARK  Name = 5333
REMARK  3 active torsions:
REMARK  status: ('A' for Active; 'I' for Inactive)
REMARK    1  A    between atoms: C_1  and  S_7
REMARK    2  A    between atoms: C_4  and  N_13
REMARK    3  A    between atoms: S_7  and  N_10
REMARK                            x       y       z     vdW  Elec       q    Type
REMARK                         _______ _______ _______ _____ _____    ______ ____
ROOT
ATOM      1  C   UNL     1      38.783 -25.316 -14.000  0.00  0.00    +0.122 C 
ATOM      2  C   UNL     1      37.910 -24.643 -14.855  0.00  0.00    +0.021 C 
ATOM      3  C   UNL     1      38.326 -25.796 -12.773  0.00  0.00    +0.021 C 
ATOM      4  C   UNL     1      36.123 -24.930 -13.254  0.00  0.00    +0.042 C 
ATOM      5  C   UNL     1      36.579 -24.450 -14.482  0.00  0.00    +0.015 C 
ATOM      6  C   UNL     1      36.996 -25.603 -12.400  0.00  0.00    +0.015 C 
ENDROOT
BRANCH   1   7
ATOM      7  S   UNL     1      40.448 -25.556 -14.466  0.00  0.00    +0.057 S 
ATOM      8  O   UNL     1      41.160 -24.297 -14.293  0.00  0.00    -0.153 OA
ATOM      9  O   UNL     1      40.942 -26.762 -13.816  0.00  0.00    -0.153 OA
BRANCH   7  10
ATOM     10  N   UNL     1      40.276 -25.866 -16.138  0.00  0.00    -0.203 NA
ATOM     11  H   UNL     1      40.719 -25.115 -16.670  0.00  0.00    +0.144 HD
ATOM     12  H   UNL     1      39.285 -25.911 -16.375  0.00  0.00    +0.144 HD
ENDBRANCH   7  10
ENDBRANCH   1   7
BRANCH   4  13
ATOM     13  N   UNL     1      34.779 -24.732 -12.875  0.00  0.00    -0.357 N 
ATOM     14  H   UNL     1      34.257 -25.481 -12.505  0.00  0.00    +0.142 HD
ATOM     15  H   UNL     1      34.362 -23.847 -12.979  0.00  0.00    +0.142 HD
ENDBRANCH   4  13
TORSDOF 3
ENDMDL
MODEL 8
REMARK VINA RESULT:      -5.9      5.052      6.007
REMARK  Name = 5333
REMARK  3 active torsions:
REMARK  status: ('A' for Active; 'I' for Inactive)
REMARK    1  A    between atoms: C_1  and  S_7
REMARK    2  A    between atoms: C_4  and  N_13
REMARK    3  A    between atoms: S_7  and  N_10
REMARK                            x       y       z     vdW  Elec       q    Type
REMARK                         _______ _______ _______ _____ _____    ______ ____
ROOT
ATOM      1  C   UNL     1      34.693 -16.937 -22.881  0.00  0.00    +0.122 C 
ATOM      2  C   UNL     1      34.873 -17.539 -24.126  0.00  0.00    +0.021 C 
ATOM      3  C   UNL     1      34.050 -15.703 -22.789  0.00  0.00    +0.021 C 
ATOM      4  C   UNL     1      33.768 -15.671 -25.189  0.00  0.00    +0.042 C 
ATOM      5  C   UNL     1      34.411 -16.906 -25.280  0.00  0.00    +0.015 C 
ATOM      6  C   UNL     1      33.587 -15.070 -23.943  0.00  0.00    +0.015 C 
ENDROOT
BRANCH   1   7
ATOM      7  S   UNL     1      35.273 -17.728 -21.437  0.00  0.00    +0.057 S 
ATOM      8  O   UNL     1      36.482 -18.467 -21.771  0.00  0.00    -0.153 OA
ATOM      9  O   UNL     1      35.295 -16.755 -20.353  0.00  0.00    -0.153 OA
BRANCH   7  10
ATOM     10  N   UNL     1      34.009 -18.842 -21.147  0.00  0.00    -0.203 NA
ATOM     11  H   UNL     1      33.410 -18.490 -20.400  0.00  0.00    +0.144 HD
ATOM     12  H   UNL     1      34.406 -19.740 -20.870  0.00  0.00    +0.144 HD
ENDBRANCH   7  10
ENDBRANCH   1   7
BRANCH   4  13
ATOM     13  N   UNL     1      33.304 -15.029 -26.355  0.00  0.00    -0.357 N 
ATOM     14  H   UNL     1      32.450 -14.539 -26.339  0.00  0.00    +0.142 HD
ATOM     15  H   UNL     1      33.832 -15.070 -27.184  0.00  0.00    +0.142 HD
ENDBRANCH   4  13
TORSDOF 3
ENDMDL
MODEL 9
REMARK VINA RESULT:      -5.9      7.939      8.757
REMARK  Name = 5333
REMARK  3 active torsions:
REMARK  status: ('A' for Active; 'I' for Inactive)
REMARK    1  A    between atoms: C_1  and  S_7
REMARK    2  A    between atoms: C_4  and  N_13
REMARK    3  A    between atoms: S_7  and  N_10
REMARK                            x       y       z     vdW  Elec       q    Type
REMARK                         _______ _______ _______ _____ _____    ______ ____
ROOT
ATOM      1  C   UNL     1      37.225 -24.478 -12.628  0.00  0.00    +0.122 C 
ATOM      2  C   UNL     1      38.295 -25.348 -12.416  0.00  0.00    +0.021 C 
ATOM      3  C   UNL     1      37.037 -23.896 -13.881  0.00  0.00    +0.021 C 
ATOM      4  C   UNL     1      38.988 -25.054 -14.712  0.00  0.00    +0.042 C 
ATOM      5  C   UNL     1      39.176 -25.636 -13.459  0.00  0.00    +0.015 C 
ATOM      6  C   UNL     1      37.919 -24.184 -14.924  0.00  0.00    +0.015 C 
ENDROOT
BRANCH   1   7
ATOM      7  S   UNL     1      36.124 -24.116 -11.323  0.00  0.00    +0.057 S 
ATOM      8  O   UNL     1      35.708 -25.370 -10.710  0.00  0.00    -0.153 OA
ATOM      9  O   UNL     1      36.710 -23.067 -10.500  0.00  0.00    -0.153 OA
BRANCH   7  10
ATOM     10  N   UNL     1      34.802 -23.460 -12.186  0.00  0.00    -0.203 NA
ATOM     11  H   UNL     1      34.709 -23.941 -13.081  0.00  0.00    +0.144 HD
ATOM     12  H   UNL     1      34.963 -22.466 -12.349  0.00  0.00    +0.144 HD
ENDBRANCH   7  10
ENDBRANCH   1   7
BRANCH   4  13
ATOM     13  N   UNL     1      39.880 -25.342 -15.765  0.00  0.00    -0.357 N 
ATOM     14  H   UNL     1      40.829 -25.089 -15.689  0.00  0.00    +0.142 HD
ATOM     15  H   UNL     1      39.556 -25.796 -16.576  0.00  0.00    +0.142 HD
ENDBRANCH   4  13
TORSDOF 3
ENDMDL
