MODEL 1
REMARK VINA RESULT:      -4.4      0.000      0.000
REMARK  Name = 640993
REMARK  4 active torsions:
REMARK  status: ('A' for Active; 'I' for Inactive)
REMARK    1  A    between atoms: CA_1  and  N_2
REMARK    2  A    between atoms: CA_1  and  CB_6
REMARK    3  A    between atoms: CA_1  and  C_9
REMARK    4  A    between atoms: C_9  and  O_10
REMARK                            x       y       z     vdW  Elec       q    Type
REMARK                         _______ _______ _______ _____ _____    ______ ____
ROOT
ATOM      1  CA  VAL A   1      38.865 -25.100 -14.381  0.00  0.00    -0.036 C 
ENDROOT
BRANCH   1   2
ATOM      2  N   VAL A   1      37.966 -25.771 -15.323  0.00  0.00    +0.383 N 
ATOM      3  H1  VAL A   1      37.261 -26.295 -14.806  0.00  0.00    -0.089 HD
ATOM      4  H2  VAL A   1      38.504 -26.410 -15.909  0.00  0.00    -0.089 HD
ATOM      5  H3  VAL A   1      37.509 -25.073 -15.911  0.00  0.00    -0.089 HD
ENDBRANCH   1   2
BRANCH   1   6
ATOM      6  CB  VAL A   1      38.467 -25.367 -12.902  0.00  0.00    -0.018 C 
ATOM      7  CG1 VAL A   1      38.247 -24.092 -12.082  0.00  0.00    -0.002 C 
ATOM      8  CG2 VAL A   1      37.224 -26.261 -12.801  0.00  0.00    -0.002 C 
ENDBRANCH   1   6
BRANCH   1   9
ATOM      9  C   VAL A   1      40.307 -25.506 -14.711  0.00  0.00    +0.115 C 
BRANCH   9  10
ATOM     10  O   VAL A   1      40.393 -25.946 -16.061  0.00  0.00    -0.384 OA
ATOM     11  H   VAL A   1      40.287 -26.909 -16.094  0.00  0.00    +0.210 HD
ENDBRANCH   9  10
ENDBRANCH   1   9
TORSDOF 4
ENDMDL
MODEL 2
REMARK VINA RESULT:      -4.3     11.638     12.251
REMARK  Name = 640993
REMARK  4 active torsions:
REMARK  status: ('A' for Active; 'I' for Inactive)
REMARK    1  A    between atoms: CA_1  and  N_2
REMARK    2  A    between atoms: CA_1  and  CB_6
REMARK    3  A    between atoms: CA_1  and  C_9
REMARK    4  A    between atoms: C_9  and  O_10
REMARK                            x       y       z     vdW  Elec       q    Type
REMARK                         _______ _______ _______ _____ _____    ______ ____
ROOT
ATOM      1  CA  VAL A   1      41.297 -14.303 -15.125  0.00  0.00    -0.036 C 
ENDROOT
BRANCH   1   2
ATOM      2  N   VAL A   1      40.556 -15.541 -15.373  0.00  0.00    +0.383 N 
ATOM      3  H1  VAL A   1      40.942 -16.011 -16.191  0.00  0.00    -0.089 HD
ATOM      4  H2  VAL A   1      39.574 -15.322 -15.540  0.00  0.00    -0.089 HD
ATOM      5  H3  VAL A   1      40.635 -16.152 -14.560  0.00  0.00    -0.089 HD
ENDBRANCH   1   2
BRANCH   1   6
ATOM      6  CB  VAL A   1      41.745 -13.615 -16.446  0.00  0.00    -0.018 C 
ATOM      7  CG1 VAL A   1      43.259 -13.399 -16.547  0.00  0.00    -0.002 C 
ATOM      8  CG2 VAL A   1      41.254 -14.382 -17.680  0.00  0.00    -0.002 C 
ENDBRANCH   1   6
BRANCH   1   9
ATOM      9  C   VAL A   1      40.448 -13.400 -14.221  0.00  0.00    +0.115 C 
BRANCH   9  10
ATOM     10  O   VAL A   1      40.968 -13.408 -12.898  0.00  0.00    -0.384 OA
ATOM     11  H   VAL A   1      41.694 -12.769 -12.831  0.00  0.00    +0.210 HD
ENDBRANCH   9  10
ENDBRANCH   1   9
TORSDOF 4
ENDMDL
MODEL 3
REMARK VINA RESULT:      -4.3     11.390     11.981
REMARK  Name = 640993
REMARK  4 active torsions:
REMARK  status: ('A' for Active; 'I' for Inactive)
REMARK    1  A    between atoms: CA_1  and  N_2
REMARK    2  A    between atoms: CA_1  and  CB_6
REMARK    3  A    between atoms: CA_1  and  C_9
REMARK    4  A    between atoms: C_9  and  O_10
REMARK                            x       y       z     vdW  Elec       q    Type
REMARK                         _______ _______ _______ _____ _____    ______ ____
ROOT
ATOM      1  CA  VAL A   1      40.974 -14.325 -15.791  0.00  0.00    -0.036 C 
ENDROOT
BRANCH   1   2
ATOM      2  N   VAL A   1      41.152 -13.394 -14.675  0.00  0.00    +0.383 N 
ATOM      3  H1  VAL A   1      40.803 -12.473 -14.940  0.00  0.00    -0.089 HD
ATOM      4  H2  VAL A   1      42.143 -13.326 -14.443  0.00  0.00    -0.089 HD
ATOM      5  H3  VAL A   1      40.635 -13.733 -13.863  0.00  0.00    -0.089 HD
ENDBRANCH   1   2
BRANCH   1   6
ATOM      6  CB  VAL A   1      41.928 -14.006 -16.977  0.00  0.00    -0.018 C 
ATOM      7  CG1 VAL A   1      41.445 -14.558 -18.322  0.00  0.00    -0.002 C 
ATOM      8  CG2 VAL A   1      42.190 -12.500 -17.105  0.00  0.00    -0.002 C 
ENDBRANCH   1   6
BRANCH   1   9
ATOM      9  C   VAL A   1      41.117 -15.756 -15.257  0.00  0.00    +0.115 C 
BRANCH   9  10
ATOM     10  O   VAL A   1      39.845 -16.392 -15.220  0.00  0.00    -0.384 OA
ATOM     11  H   VAL A   1      39.812 -17.005 -14.470  0.00  0.00    +0.210 HD
ENDBRANCH   9  10
ENDBRANCH   1   9
TORSDOF 4
ENDMDL
MODEL 4
REMARK VINA RESULT:      -4.3      9.005      9.480
REMARK  Name = 640993
REMARK  4 active torsions:
REMARK  status: ('A' for Active; 'I' for Inactive)
REMARK    1  A    between atoms: CA_1  and  N_2
REMARK    2  A    between atoms: CA_1  and  CB_6
REMARK    3  A    between atoms: CA_1  and  C_9
REMARK    4  A    between atoms: C_9  and  O_10
REMARK                            x       y       z     vdW  Elec       q    Type
REMARK                         _______ _______ _______ _____ _____    ______ ____
ROOT
ATOM      1  CA  VAL A   1      35.373 -20.370 -20.616  0.00  0.00    -0.036 C 
ENDROOT
BRANCH   1   2
ATOM      2  N   VAL A   1      36.482 -20.330 -19.661  0.00  0.00    +0.383 N 
ATOM      3  H1  VAL A   1      36.976 -19.443 -19.750  0.00  0.00    -0.089 HD
ATOM      4  H2  VAL A   1      37.125 -21.098 -19.853  0.00  0.00    -0.089 HD
ATOM      5  H3  VAL A   1      36.116 -20.422 -18.712  0.00  0.00    -0.089 HD
ENDBRANCH   1   2
BRANCH   1   6
ATOM      6  CB  VAL A   1      34.002 -20.582 -19.913  0.00  0.00    -0.018 C 
ATOM      7  CG1 VAL A   1      32.802 -20.135 -20.755  0.00  0.00    -0.002 C 
ATOM      8  CG2 VAL A   1      33.807 -22.040 -19.478  0.00  0.00    -0.002 C 
ENDBRANCH   1   6
BRANCH   1   9
ATOM      9  C   VAL A   1      35.429 -19.103 -21.480  0.00  0.00    +0.115 C 
BRANCH   9  10
ATOM     10  O   VAL A   1      35.610 -17.959 -20.655  0.00  0.00    -0.384 OA
ATOM     11  H   VAL A   1      34.779 -17.462 -20.606  0.00  0.00    +0.210 HD
ENDBRANCH   9  10
ENDBRANCH   1   9
TORSDOF 4
ENDMDL
MODEL 5
REMARK VINA RESULT:      -4.2     10.570     11.093
REMARK  Name = 640993
REMARK  4 active torsions:
REMARK  status: ('A' for Active; 'I' for Inactive)
REMARK    1  A    between atoms: CA_1  and  N_2
REMARK    2  A    between atoms: CA_1  and  CB_6
REMARK    3  A    between atoms: CA_1  and  C_9
REMARK    4  A    between atoms: C_9  and  O_10
REMARK                            x       y       z     vdW  Elec       q    Type
REMARK                         _______ _______ _______ _____ _____    ______ ____
ROOT
ATOM      1  CA  VAL A   1      35.639 -18.347 -21.724  0.00  0.00    -0.036 C 
ENDROOT
BRANCH   1   2
ATOM      2  N   VAL A   1      35.218 -17.317 -20.772  0.00  0.00    +0.383 N 
ATOM      3  H1  VAL A   1      34.394 -16.835 -21.133  0.00  0.00    -0.089 HD
ATOM      4  H2  VAL A   1      35.974 -16.645 -20.641  0.00  0.00    -0.089 HD
ATOM      5  H3  VAL A   1      34.991 -17.753 -19.878  0.00  0.00    -0.089 HD
ENDBRANCH   1   2
BRANCH   1   6
ATOM      6  CB  VAL A   1      35.034 -19.739 -21.386  0.00  0.00    -0.018 C 
ATOM      7  CG1 VAL A   1      35.825 -20.513 -20.326  0.00  0.00    -0.002 C 
ATOM      8  CG2 VAL A   1      33.567 -19.629 -20.951  0.00  0.00    -0.002 C 
ENDBRANCH   1   6
BRANCH   1   9
ATOM      9  C   VAL A   1      35.307 -17.863 -23.142  0.00  0.00    +0.115 C 
BRANCH   9  10
ATOM     10  O   VAL A   1      35.806 -16.546 -23.337  0.00  0.00    -0.384 OA
ATOM     11  H   VAL A   1      35.088 -15.968 -23.637  0.00  0.00    +0.210 HD
ENDBRANCH   9  10
ENDBRANCH   1   9
TORSDOF 4
ENDMDL
MODEL 6
REMARK VINA RESULT:      -4.2      8.150      8.859
REMARK  Name = 640993
REMARK  4 active torsions:
REMARK  status: ('A' for Active; 'I' for Inactive)
REMARK    1  A    between atoms: CA_1  and  N_2
REMARK    2  A    between atoms: CA_1  and  CB_6
REMARK    3  A    between atoms: CA_1  and  C_9
REMARK    4  A    between atoms: C_9  and  O_10
REMARK                            x       y       z     vdW  Elec       q    Type
REMARK                         _______ _______ _______ _____ _____    ______ ____
ROOT
ATOM      1  CA  VAL A   1      33.778 -21.425 -19.876  0.00  0.00    -0.036 C 
ENDROOT
BRANCH   1   2
ATOM      2  N   VAL A   1      32.559 -20.652 -19.629  0.00  0.00    +0.383 N 
ATOM      3  H1  VAL A   1      31.890 -20.823 -20.379  0.00  0.00    -0.089 HD
ATOM      4  H2  VAL A   1      32.787 -19.658 -19.598  0.00  0.00    -0.089 HD
ATOM      5  H3  VAL A   1      32.152 -20.937 -18.738  0.00  0.00    -0.089 HD
ENDBRANCH   1   2
BRANCH   1   6
ATOM      6  CB  VAL A   1      35.021 -20.511 -20.071  0.00  0.00    -0.018 C 
ATOM      7  CG1 VAL A   1      36.356 -21.259 -19.985  0.00  0.00    -0.002 C 
ATOM      8  CG2 VAL A   1      34.953 -19.735 -21.392  0.00  0.00    -0.002 C 
ENDBRANCH   1   6
BRANCH   1   9
ATOM      9  C   VAL A   1      33.942 -22.449 -18.746  0.00  0.00    +0.115 C 
BRANCH   9  10
ATOM     10  O   VAL A   1      33.901 -23.769 -19.273  0.00  0.00    -0.384 OA
ATOM     11  H   VAL A   1      34.725 -23.951 -19.752  0.00  0.00    +0.210 HD
ENDBRANCH   9  10
ENDBRANCH   1   9
TORSDOF 4
ENDMDL
MODEL 7
REMARK VINA RESULT:      -4.2      8.356      9.101
REMARK  Name = 640993
REMARK  4 active torsions:
REMARK  status: ('A' for Active; 'I' for Inactive)
REMARK    1  A    between atoms: CA_1  and  N_2
REMARK    2  A    between atoms: CA_1  and  CB_6
REMARK    3  A    between atoms: CA_1  and  C_9
REMARK    4  A    between atoms: C_9  and  O_10
REMARK                            x       y       z     vdW  Elec       q    Type
REMARK                         _______ _______ _______ _____ _____    ______ ____
ROOT
ATOM      1  CA  VAL A   1      30.195 -25.120 -15.016  0.00  0.00    -0.036 C 
ENDROOT
BRANCH   1   2
ATOM      2  N   VAL A   1      28.878 -25.433 -14.458  0.00  0.00    +0.383 N 
ATOM      3  H1  VAL A   1      28.632 -26.397 -14.687  0.00  0.00    -0.089 HD
ATOM      4  H2  VAL A   1      28.182 -24.802 -14.855  0.00  0.00    -0.089 HD
ATOM      5  H3  VAL A   1      28.902 -25.319 -13.445  0.00  0.00    -0.089 HD
ENDBRANCH   1   2
BRANCH   1   6
ATOM      6  CB  VAL A   1      30.167 -23.841 -15.900  0.00  0.00    -0.018 C 
ATOM      7  CG1 VAL A   1      29.196 -22.767 -15.400  0.00  0.00    -0.002 C 
ATOM      8  CG2 VAL A   1      31.565 -23.232 -16.062  0.00  0.00    -0.002 C 
ENDBRANCH   1   6
BRANCH   1   9
ATOM      9  C   VAL A   1      31.205 -25.046 -13.864  0.00  0.00    +0.115 C 
BRANCH   9  10
ATOM     10  O   VAL A   1      30.533 -24.761 -12.644  0.00  0.00    -0.384 OA
ATOM     11  H   VAL A   1      30.738 -23.855 -12.365  0.00  0.00    +0.210 HD
ENDBRANCH   9  10
ENDBRANCH   1   9
TORSDOF 4
ENDMDL
MODEL 8
REMARK VINA RESULT:      -4.1     11.301     11.881
REMARK  Name = 640993
REMARK  4 active torsions:
REMARK  status: ('A' for Active; 'I' for Inactive)
REMARK    1  A    between atoms: CA_1  and  N_2
REMARK    2  A    between atoms: CA_1  and  CB_6
REMARK    3  A    between atoms: CA_1  and  C_9
REMARK    4  A    between atoms: C_9  and  O_10
REMARK                            x       y       z     vdW  Elec       q    Type
REMARK                         _______ _______ _______ _____ _____    ______ ____
ROOT
ATOM      1  CA  VAL A   1      34.712 -17.200 -22.221  0.00  0.00    -0.036 C 
ENDROOT
BRANCH   1   2
ATOM      2  N   VAL A   1      35.794 -17.243 -23.208  0.00  0.00    +0.383 N 
ATOM      3  H1  VAL A   1      35.766 -16.399 -23.780  0.00  0.00    -0.089 HD
ATOM      4  H2  VAL A   1      35.678 -18.062 -23.804  0.00  0.00    -0.089 HD
ATOM      5  H3  VAL A   1      36.691 -17.298 -22.725  0.00  0.00    -0.089 HD
ENDBRANCH   1   2
BRANCH   1   6
ATOM      6  CB  VAL A   1      34.902 -18.260 -21.099  0.00  0.00    -0.018 C 
ATOM      7  CG1 VAL A   1      33.838 -19.363 -21.108  0.00  0.00    -0.002 C 
ATOM      8  CG2 VAL A   1      36.297 -18.895 -21.149  0.00  0.00    -0.002 C 
ENDBRANCH   1   6
BRANCH   1   9
ATOM      9  C   VAL A   1      34.593 -15.764 -21.693  0.00  0.00    +0.115 C 
BRANCH   9  10
ATOM     10  O   VAL A   1      34.911 -15.726 -20.308  0.00  0.00    -0.384 OA
ATOM     11  H   VAL A   1      35.368 -14.896 -20.103  0.00  0.00    +0.210 HD
ENDBRANCH   9  10
ENDBRANCH   1   9
TORSDOF 4
ENDMDL
MODEL 9
REMARK VINA RESULT:      -4.1      8.405      8.867
REMARK  Name = 640993
REMARK  4 active torsions:
REMARK  status: ('A' for Active; 'I' for Inactive)
REMARK    1  A    between atoms: CA_1  and  N_2
REMARK    2  A    between atoms: CA_1  and  CB_6
REMARK    3  A    between atoms: CA_1  and  C_9
REMARK    4  A    between atoms: C_9  and  O_10
REMARK                            x       y       z     vdW  Elec       q    Type
REMARK                         _______ _______ _______ _____ _____    ______ ____
ROOT
ATOM      1  CA  VAL A   1      34.082 -20.444 -20.080  0.00  0.00    -0.036 C 
ENDROOT
BRANCH   1   2
ATOM      2  N   VAL A   1      32.712 -20.630 -20.564  0.00  0.00    +0.383 N 
ATOM      3  H1  VAL A   1      32.538 -21.623 -20.720  0.00  0.00    -0.089 HD
ATOM      4  H2  VAL A   1      32.589 -20.121 -21.439  0.00  0.00    -0.089 HD
ATOM      5  H3  VAL A   1      32.056 -20.275 -19.868  0.00  0.00    -0.089 HD
ENDBRANCH   1   2
BRANCH   1   6
ATOM      6  CB  VAL A   1      34.706 -21.773 -19.565  0.00  0.00    -0.018 C 
ATOM      7  CG1 VAL A   1      36.072 -21.593 -18.894  0.00  0.00    -0.002 C 
ATOM      8  CG2 VAL A   1      33.759 -22.511 -18.610  0.00  0.00    -0.002 C 
ENDBRANCH   1   6
BRANCH   1   9
ATOM      9  C   VAL A   1      34.902 -19.772 -21.189  0.00  0.00    +0.115 C 
BRANCH   9  10
ATOM     10  O   VAL A   1      35.525 -18.595 -20.689  0.00  0.00    -0.384 OA
ATOM     11  H   VAL A   1      35.896 -18.773 -19.811  0.00  0.00    +0.210 HD
ENDBRANCH   9  10
ENDBRANCH   1   9
TORSDOF 4
ENDMDL
