MODEL 1
REMARK VINA RESULT:     -10.4      0.000      0.000
REMARK  Name = 446237
REMARK  5 active torsions:
REMARK  status: ('A' for Active; 'I' for Inactive)
REMARK    1  A    between atoms: C_1  and  C_9
REMARK    2  A    between atoms: C_2  and  S_19
REMARK    3  A    between atoms: N_8  and  C_11
REMARK    4  A    between atoms: C_11  and  C_13
REMARK    5  A    between atoms: S_19  and  N_22
REMARK                            x       y       z     vdW  Elec       q    Type
REMARK                         _______ _______ _______ _____ _____    ______ ____
ROOT
ATOM      1  C   UNL     1      35.109 -19.396 -21.057  0.00  0.00    +0.053 C 
ATOM      2  C   UNL     1      34.219 -21.538 -19.506  0.00  0.00    +0.122 C 
ATOM      3  C   UNL     1      33.742 -19.618 -20.893  0.00  0.00    +0.006 C 
ATOM      4  C   UNL     1      36.032 -20.244 -20.444  0.00  0.00    +0.006 C 
ATOM      5  C   UNL     1      33.297 -20.689 -20.118  0.00  0.00    +0.020 C 
ATOM      6  C   UNL     1      35.586 -21.316 -19.670  0.00  0.00    +0.020 C 
ENDROOT
BRANCH   1   9
ATOM      7  O   UNL     1      36.716 -18.287 -22.356  0.00  0.00    -0.270 OA
ATOM      8  N   UNL     1      34.673 -17.226 -22.070  0.00  0.00    -0.297 N 
ATOM      9  C   UNL     1      35.573 -18.279 -21.864  0.00  0.00    +0.246 C 
ATOM     10  H   UNL     1      33.784 -17.285 -21.650  0.00  0.00    +0.150 HD
BRANCH   8  11
ATOM     11  C   UNL     1      34.977 -16.059 -22.866  0.00  0.00    +0.117 C 
BRANCH  11  13
ATOM     12  F   UNL     1      31.366 -11.860 -21.910  0.00  0.00    -0.204 F 
ATOM     13  C   UNL     1      34.012 -14.937 -22.610  0.00  0.00    -0.002 C 
ATOM     14  C   UNL     1      33.245 -14.941 -21.451  0.00  0.00    -0.000 C 
ATOM     15  C   UNL     1      33.896 -13.907 -23.535  0.00  0.00    -0.000 C 
ATOM     16  C   UNL     1      32.350 -13.898 -21.214  0.00  0.00    +0.029 C 
ATOM     17  C   UNL     1      33.000 -12.865 -23.298  0.00  0.00    +0.029 C 
ATOM     18  C   UNL     1      32.227 -12.860 -22.138  0.00  0.00    +0.140 C 
ENDBRANCH  11  13
ENDBRANCH   8  11
ENDBRANCH   1   9
BRANCH   2  19
ATOM     19  S   UNL     1      33.662 -22.879 -18.538  0.00  0.00    +0.057 S 
ATOM     20  O   UNL     1      32.349 -22.547 -18.004  0.00  0.00    -0.153 OA
ATOM     21  O   UNL     1      33.844 -24.107 -19.300  0.00  0.00    -0.153 OA
BRANCH  19  22
ATOM     22  N   UNL     1      34.798 -22.855 -17.262  0.00  0.00    -0.203 NA
ATOM     23  H   UNL     1      34.357 -23.192 -16.407  0.00  0.00    +0.144 HD
ATOM     24  H   UNL     1      35.129 -21.900 -17.121  0.00  0.00    +0.144 HD
ENDBRANCH  19  22
ENDBRANCH   2  19
TORSDOF 5
ENDMDL
MODEL 2
REMARK VINA RESULT:     -10.3      5.198      7.677
REMARK  Name = 446237
REMARK  5 active torsions:
REMARK  status: ('A' for Active; 'I' for Inactive)
REMARK    1  A    between atoms: C_1  and  C_9
REMARK    2  A    between atoms: C_2  and  S_19
REMARK    3  A    between atoms: N_8  and  C_11
REMARK    4  A    between atoms: C_11  and  C_13
REMARK    5  A    between atoms: S_19  and  N_22
REMARK                            x       y       z     vdW  Elec       q    Type
REMARK                         _______ _______ _______ _____ _____    ______ ____
ROOT
ATOM      1  C   UNL     1      34.204 -23.517 -15.192  0.00  0.00    +0.053 C 
ATOM      2  C   UNL     1      35.723 -23.930 -12.889  0.00  0.00    +0.122 C 
ATOM      3  C   UNL     1      35.536 -23.104 -15.152  0.00  0.00    +0.006 C 
ATOM      4  C   UNL     1      33.632 -24.137 -14.082  0.00  0.00    +0.006 C 
ATOM      5  C   UNL     1      36.295 -23.311 -14.000  0.00  0.00    +0.020 C 
ATOM      6  C   UNL     1      34.392 -24.343 -12.930  0.00  0.00    +0.020 C 
ENDROOT
BRANCH   1   9
ATOM      7  O   UNL     1      32.191 -23.535 -16.394  0.00  0.00    -0.270 OA
ATOM      8  N   UNL     1      34.085 -22.811 -17.519  0.00  0.00    -0.297 N 
ATOM      9  C   UNL     1      33.413 -23.303 -16.394  0.00  0.00    +0.246 C 
ATOM     10  H   UNL     1      35.054 -22.650 -17.449  0.00  0.00    +0.150 HD
BRANCH   8  11
ATOM     11  C   UNL     1      33.434 -22.526 -18.777  0.00  0.00    +0.117 C 
BRANCH  11  13
ATOM     12  F   UNL     1      36.106 -18.515 -21.668  0.00  0.00    -0.204 F 
ATOM     13  C   UNL     1      34.149 -21.454 -19.549  0.00  0.00    -0.002 C 
ATOM     14  C   UNL     1      35.538 -21.409 -19.539  0.00  0.00    -0.000 C 
ATOM     15  C   UNL     1      33.413 -20.518 -20.266  0.00  0.00    -0.000 C 
ATOM     16  C   UNL     1      36.201 -20.415 -20.257  0.00  0.00    +0.029 C 
ATOM     17  C   UNL     1      34.076 -19.523 -20.984  0.00  0.00    +0.029 C 
ATOM     18  C   UNL     1      35.470 -19.470 -20.979  0.00  0.00    +0.140 C 
ENDBRANCH  11  13
ENDBRANCH   8  11
ENDBRANCH   1   9
BRANCH   2  19
ATOM     19  S   UNL     1      36.673 -24.187 -11.447  0.00  0.00    +0.057 S 
ATOM     20  O   UNL     1      37.637 -25.244 -11.714  0.00  0.00    -0.153 OA
ATOM     21  O   UNL     1      37.133 -22.893 -10.960  0.00  0.00    -0.153 OA
BRANCH  19  22
ATOM     22  N   UNL     1      35.483 -24.782 -10.375  0.00  0.00    -0.203 NA
ATOM     23  H   UNL     1      35.011 -25.580 -10.799  0.00  0.00    +0.144 HD
ATOM     24  H   UNL     1      34.802 -24.048 -10.181  0.00  0.00    +0.144 HD
ENDBRANCH  19  22
ENDBRANCH   2  19
TORSDOF 5
ENDMDL
MODEL 3
REMARK VINA RESULT:      -9.8      1.773      2.525
REMARK  Name = 446237
REMARK  5 active torsions:
REMARK  status: ('A' for Active; 'I' for Inactive)
REMARK    1  A    between atoms: C_1  and  C_9
REMARK    2  A    between atoms: C_2  and  S_19
REMARK    3  A    between atoms: N_8  and  C_11
REMARK    4  A    between atoms: C_11  and  C_13
REMARK    5  A    between atoms: S_19  and  N_22
REMARK                            x       y       z     vdW  Elec       q    Type
REMARK                         _______ _______ _______ _____ _____    ______ ____
ROOT
ATOM      1  C   UNL     1      35.157 -19.330 -20.852  0.00  0.00    +0.053 C 
ATOM      2  C   UNL     1      34.253 -21.576 -19.466  0.00  0.00    +0.122 C 
ATOM      3  C   UNL     1      36.072 -20.187 -20.239  0.00  0.00    +0.006 C 
ATOM      4  C   UNL     1      33.790 -19.597 -20.773  0.00  0.00    +0.006 C 
ATOM      5  C   UNL     1      35.619 -21.309 -19.546  0.00  0.00    +0.020 C 
ATOM      6  C   UNL     1      33.338 -20.720 -20.079  0.00  0.00    +0.020 C 
ENDROOT
BRANCH   1   9
ATOM      7  O   UNL     1      36.654 -18.224 -22.278  0.00  0.00    -0.270 OA
ATOM      8  N   UNL     1      34.868 -16.991 -21.459  0.00  0.00    -0.297 N 
ATOM      9  C   UNL     1      35.629 -18.160 -21.576  0.00  0.00    +0.246 C 
ATOM     10  H   UNL     1      34.068 -17.011 -20.885  0.00  0.00    +0.150 HD
BRANCH   8  11
ATOM     11  C   UNL     1      35.193 -15.756 -22.134  0.00  0.00    +0.117 C 
BRANCH  11  13
ATOM     12  F   UNL     1      32.478 -15.258 -27.030  0.00  0.00    -0.204 F 
ATOM     13  C   UNL     1      34.467 -15.622 -23.442  0.00  0.00    -0.002 C 
ATOM     14  C   UNL     1      33.697 -14.492 -23.689  0.00  0.00    -0.000 C 
ATOM     15  C   UNL     1      34.574 -16.631 -24.392  0.00  0.00    -0.000 C 
ATOM     16  C   UNL     1      33.024 -14.369 -24.904  0.00  0.00    +0.029 C 
ATOM     17  C   UNL     1      33.900 -16.507 -25.608  0.00  0.00    +0.029 C 
ATOM     18  C   UNL     1      33.125 -15.377 -25.864  0.00  0.00    +0.140 C 
ENDBRANCH  11  13
ENDBRANCH   8  11
ENDBRANCH   1   9
BRANCH   2  19
ATOM     19  S   UNL     1      33.687 -22.981 -18.597  0.00  0.00    +0.057 S 
ATOM     20  O   UNL     1      32.363 -22.690 -18.065  0.00  0.00    -0.153 OA
ATOM     21  O   UNL     1      33.888 -24.155 -19.435  0.00  0.00    -0.153 OA
BRANCH  19  22
ATOM     22  N   UNL     1      34.802 -23.035 -17.303  0.00  0.00    -0.203 NA
ATOM     23  H   UNL     1      35.334 -23.903 -17.350  0.00  0.00    +0.144 HD
ATOM     24  H   UNL     1      34.297 -22.993 -16.418  0.00  0.00    +0.144 HD
ENDBRANCH  19  22
ENDBRANCH   2  19
TORSDOF 5
ENDMDL
MODEL 4
REMARK VINA RESULT:      -9.6      4.819      8.536
REMARK  Name = 446237
REMARK  5 active torsions:
REMARK  status: ('A' for Active; 'I' for Inactive)
REMARK    1  A    between atoms: C_1  and  C_9
REMARK    2  A    between atoms: C_2  and  S_19
REMARK    3  A    between atoms: N_8  and  C_11
REMARK    4  A    between atoms: C_11  and  C_13
REMARK    5  A    between atoms: S_19  and  N_22
REMARK                            x       y       z     vdW  Elec       q    Type
REMARK                         _______ _______ _______ _____ _____    ______ ____
ROOT
ATOM      1  C   UNL     1      34.265 -21.562 -19.541  0.00  0.00    +0.053 C 
ATOM      2  C   UNL     1      34.876 -19.346 -21.123  0.00  0.00    +0.122 C 
ATOM      3  C   UNL     1      33.240 -20.770 -20.058  0.00  0.00    +0.006 C 
ATOM      4  C   UNL     1      35.596 -21.247 -19.816  0.00  0.00    +0.006 C 
ATOM      5  C   UNL     1      33.546 -19.662 -20.848  0.00  0.00    +0.020 C 
ATOM      6  C   UNL     1      35.901 -20.138 -20.606  0.00  0.00    +0.020 C 
ENDROOT
BRANCH   1   9
ATOM      7  O   UNL     1      33.883 -23.853 -19.223  0.00  0.00    -0.270 OA
ATOM      8  N   UNL     1      33.742 -22.489 -17.352  0.00  0.00    -0.297 N 
ATOM      9  C   UNL     1      33.947 -22.718 -18.718  0.00  0.00    +0.246 C 
ATOM     10  H   UNL     1      33.807 -21.565 -17.020  0.00  0.00    +0.150 HD
BRANCH   8  11
ATOM     11  C   UNL     1      33.442 -23.536 -16.403  0.00  0.00    +0.117 C 
BRANCH  11  13
ATOM     12  F   UNL     1      27.990 -23.635 -15.041  0.00  0.00    -0.204 F 
ATOM     13  C   UNL     1      31.985 -23.563 -16.039  0.00  0.00    -0.002 C 
ATOM     14  C   UNL     1      31.559 -24.337 -14.967  0.00  0.00    -0.000 C 
ATOM     15  C   UNL     1      31.079 -22.813 -16.778  0.00  0.00    -0.000 C 
ATOM     16  C   UNL     1      30.206 -24.361 -14.628  0.00  0.00    +0.029 C 
ATOM     17  C   UNL     1      29.725 -22.837 -16.440  0.00  0.00    +0.029 C 
ATOM     18  C   UNL     1      29.288 -23.611 -15.366  0.00  0.00    +0.140 C 
ENDBRANCH  11  13
ENDBRANCH   8  11
ENDBRANCH   1   9
BRANCH   2  19
ATOM     19  S   UNL     1      35.259 -17.959 -22.110  0.00  0.00    +0.057 S 
ATOM     20  O   UNL     1      34.509 -18.058 -23.354  0.00  0.00    -0.153 OA
ATOM     21  O   UNL     1      35.144 -16.761 -21.289  0.00  0.00    -0.153 OA
BRANCH  19  22
ATOM     22  N   UNL     1      36.912 -18.239 -22.440  0.00  0.00    -0.203 NA
ATOM     23  H   UNL     1      37.477 -17.891 -21.666  0.00  0.00    +0.144 HD
ATOM     24  H   UNL     1      37.175 -17.753 -23.297  0.00  0.00    +0.144 HD
ENDBRANCH  19  22
ENDBRANCH   2  19
TORSDOF 5
ENDMDL
MODEL 5
REMARK VINA RESULT:      -9.5      5.288      9.443
REMARK  Name = 446237
REMARK  5 active torsions:
REMARK  status: ('A' for Active; 'I' for Inactive)
REMARK    1  A    between atoms: C_1  and  C_9
REMARK    2  A    between atoms: C_2  and  S_19
REMARK    3  A    between atoms: N_8  and  C_11
REMARK    4  A    between atoms: C_11  and  C_13
REMARK    5  A    between atoms: S_19  and  N_22
REMARK                            x       y       z     vdW  Elec       q    Type
REMARK                         _______ _______ _______ _____ _____    ______ ____
ROOT
ATOM      1  C   UNL     1      34.358 -21.571 -19.505  0.00  0.00    +0.053 C 
ATOM      2  C   UNL     1      34.852 -19.365 -21.140  0.00  0.00    +0.122 C 
ATOM      3  C   UNL     1      35.670 -21.206 -19.805  0.00  0.00    +0.006 C 
ATOM      4  C   UNL     1      33.292 -20.833 -20.020  0.00  0.00    +0.006 C 
ATOM      5  C   UNL     1      35.916 -20.103 -20.623  0.00  0.00    +0.020 C 
ATOM      6  C   UNL     1      33.540 -19.731 -20.839  0.00  0.00    +0.020 C 
ENDROOT
BRANCH   1   9
ATOM      7  O   UNL     1      33.755 -23.808 -19.144  0.00  0.00    -0.270 OA
ATOM      8  N   UNL     1      34.282 -22.542 -17.274  0.00  0.00    -0.297 N 
ATOM      9  C   UNL     1      34.100 -22.720 -18.650  0.00  0.00    +0.246 C 
ATOM     10  H   UNL     1      34.556 -21.653 -16.951  0.00  0.00    +0.150 HD
BRANCH   8  11
ATOM     11  C   UNL     1      34.088 -23.592 -16.300  0.00  0.00    +0.117 C 
BRANCH  11  13
ATOM     12  F   UNL     1      38.906 -25.071 -13.813  0.00  0.00    -0.204 F 
ATOM     13  C   UNL     1      35.376 -23.987 -15.636  0.00  0.00    -0.002 C 
ATOM     14  C   UNL     1      36.486 -23.157 -15.740  0.00  0.00    -0.000 C 
ATOM     15  C   UNL     1      35.443 -25.178 -14.923  0.00  0.00    -0.000 C 
ATOM     16  C   UNL     1      37.681 -23.524 -15.123  0.00  0.00    +0.029 C 
ATOM     17  C   UNL     1      36.640 -25.545 -14.306  0.00  0.00    +0.029 C 
ATOM     18  C   UNL     1      37.758 -24.719 -14.406  0.00  0.00    +0.140 C 
ENDBRANCH  11  13
ENDBRANCH   8  11
ENDBRANCH   1   9
BRANCH   2  19
ATOM     19  S   UNL     1      35.160 -17.987 -22.165  0.00  0.00    +0.057 S 
ATOM     20  O   UNL     1      34.398 -18.148 -23.394  0.00  0.00    -0.153 OA
ATOM     21  O   UNL     1      35.005 -16.776 -21.370  0.00  0.00    -0.153 OA
BRANCH  19  22
ATOM     22  N   UNL     1      36.820 -18.204 -22.512  0.00  0.00    -0.203 NA
ATOM     23  H   UNL     1      37.164 -17.404 -23.042  0.00  0.00    +0.144 HD
ATOM     24  H   UNL     1      36.943 -19.054 -23.062  0.00  0.00    +0.144 HD
ENDBRANCH  19  22
ENDBRANCH   2  19
TORSDOF 5
ENDMDL
MODEL 6
REMARK VINA RESULT:      -9.4      3.675      5.710
REMARK  Name = 446237
REMARK  5 active torsions:
REMARK  status: ('A' for Active; 'I' for Inactive)
REMARK    1  A    between atoms: C_1  and  C_9
REMARK    2  A    between atoms: C_2  and  S_19
REMARK    3  A    between atoms: N_8  and  C_11
REMARK    4  A    between atoms: C_11  and  C_13
REMARK    5  A    between atoms: S_19  and  N_22
REMARK                            x       y       z     vdW  Elec       q    Type
REMARK                         _______ _______ _______ _____ _____    ______ ____
ROOT
ATOM      1  C   UNL     1      33.679 -23.069 -17.440  0.00  0.00    +0.053 C 
ATOM      2  C   UNL     1      32.276 -23.542 -15.076  0.00  0.00    +0.122 C 
ATOM      3  C   UNL     1      32.289 -22.963 -17.422  0.00  0.00    +0.006 C 
ATOM      4  C   UNL     1      34.369 -23.410 -16.277  0.00  0.00    +0.006 C 
ATOM      5  C   UNL     1      31.588 -23.200 -16.240  0.00  0.00    +0.020 C 
ATOM      6  C   UNL     1      33.666 -23.648 -15.095  0.00  0.00    +0.020 C 
ENDROOT
BRANCH   1   9
ATOM      7  O   UNL     1      34.172 -23.490 -19.694  0.00  0.00    -0.270 OA
ATOM      8  N   UNL     1      35.363 -21.794 -18.651  0.00  0.00    -0.297 N 
ATOM      9  C   UNL     1      34.411 -22.821 -18.673  0.00  0.00    +0.246 C 
ATOM     10  H   UNL     1      35.501 -21.306 -17.808  0.00  0.00    +0.150 HD
BRANCH   8  11
ATOM     11  C   UNL     1      36.153 -21.413 -19.799  0.00  0.00    +0.117 C 
BRANCH  11  13
ATOM     12  F   UNL     1      34.086 -16.852 -22.352  0.00  0.00    -0.204 F 
ATOM     13  C   UNL     1      35.601 -20.194 -20.481  0.00  0.00    -0.002 C 
ATOM     14  C   UNL     1      36.470 -19.228 -20.973  0.00  0.00    -0.000 C 
ATOM     15  C   UNL     1      34.226 -20.045 -20.613  0.00  0.00    -0.000 C 
ATOM     16  C   UNL     1      35.958 -18.097 -21.607  0.00  0.00    +0.029 C 
ATOM     17  C   UNL     1      33.712 -18.913 -21.247  0.00  0.00    +0.029 C 
ATOM     18  C   UNL     1      34.578 -17.939 -21.744  0.00  0.00    +0.140 C 
ENDBRANCH  11  13
ENDBRANCH   8  11
ENDBRANCH   1   9
BRANCH   2  19
ATOM     19  S   UNL     1      31.398 -23.840 -13.597  0.00  0.00    +0.057 S 
ATOM     20  O   UNL     1      30.008 -23.461 -13.803  0.00  0.00    -0.153 OA
ATOM     21  O   UNL     1      31.721 -25.181 -13.130  0.00  0.00    -0.153 OA
BRANCH  19  22
ATOM     22  N   UNL     1      32.129 -22.705 -12.549  0.00  0.00    -0.203 NA
ATOM     23  H   UNL     1      32.355 -21.858 -13.069  0.00  0.00    +0.144 HD
ATOM     24  H   UNL     1      32.984 -23.104 -12.161  0.00  0.00    +0.144 HD
ENDBRANCH  19  22
ENDBRANCH   2  19
TORSDOF 5
ENDMDL
MODEL 7
REMARK VINA RESULT:      -9.4      4.967      8.265
REMARK  Name = 446237
REMARK  5 active torsions:
REMARK  status: ('A' for Active; 'I' for Inactive)
REMARK    1  A    between atoms: C_1  and  C_9
REMARK    2  A    between atoms: C_2  and  S_19
REMARK    3  A    between atoms: N_8  and  C_11
REMARK    4  A    between atoms: C_11  and  C_13
REMARK    5  A    between atoms: S_19  and  N_22
REMARK                            x       y       z     vdW  Elec       q    Type
REMARK                         _______ _______ _______ _____ _____    ______ ____
ROOT
ATOM      1  C   UNL     1      33.625 -15.116 -22.268  0.00  0.00    +0.053 C 
ATOM      2  C   UNL     1      32.292 -12.761 -21.592  0.00  0.00    +0.122 C 
ATOM      3  C   UNL     1      33.435 -14.122 -23.227  0.00  0.00    +0.006 C 
ATOM      4  C   UNL     1      33.149 -14.932 -20.969  0.00  0.00    +0.006 C 
ATOM      5  C   UNL     1      32.768 -12.945 -22.889  0.00  0.00    +0.020 C 
ATOM      6  C   UNL     1      32.482 -13.754 -20.632  0.00  0.00    +0.020 C 
ENDROOT
BRANCH   1   9
ATOM      7  O   UNL     1      34.491 -16.653 -23.812  0.00  0.00    -0.270 OA
ATOM      8  N   UNL     1      34.802 -17.127 -21.563  0.00  0.00    -0.297 N 
ATOM      9  C   UNL     1      34.322 -16.343 -22.619  0.00  0.00    +0.246 C 
ATOM     10  H   UNL     1      34.632 -16.822 -20.643  0.00  0.00    +0.150 HD
BRANCH   8  11
ATOM     11  C   UNL     1      35.532 -18.359 -21.751  0.00  0.00    +0.117 C 
BRANCH  11  13
ATOM     12  F   UNL     1      33.304 -22.594 -18.803  0.00  0.00    -0.204 F 
ATOM     13  C   UNL     1      34.937 -19.491 -20.963  0.00  0.00    -0.002 C 
ATOM     14  C   UNL     1      35.773 -20.423 -20.360  0.00  0.00    -0.000 C 
ATOM     15  C   UNL     1      33.557 -19.594 -20.846  0.00  0.00    -0.000 C 
ATOM     16  C   UNL     1      35.220 -21.473 -19.628  0.00  0.00    +0.029 C 
ATOM     17  C   UNL     1      33.003 -20.645 -20.114  0.00  0.00    +0.029 C 
ATOM     18  C   UNL     1      33.834 -21.585 -19.506  0.00  0.00    +0.140 C 
ENDBRANCH  11  13
ENDBRANCH   8  11
ENDBRANCH   1   9
BRANCH   2  19
ATOM     19  S   UNL     1      31.455 -11.288 -21.169  0.00  0.00    +0.057 S 
ATOM     20  O   UNL     1      32.125 -10.174 -21.825  0.00  0.00    -0.153 OA
ATOM     21  O   UNL     1      30.027 -11.493 -21.370  0.00  0.00    -0.153 OA
BRANCH  19  22
ATOM     22  N   UNL     1      31.764 -11.207 -19.490  0.00  0.00    -0.203 NA
ATOM     23  H   UNL     1      31.841 -10.231 -19.205  0.00  0.00    +0.144 HD
ATOM     24  H   UNL     1      32.638 -11.692 -19.282  0.00  0.00    +0.144 HD
ENDBRANCH  19  22
ENDBRANCH   2  19
TORSDOF 5
ENDMDL
MODEL 8
REMARK VINA RESULT:      -9.3      4.774      8.605
REMARK  Name = 446237
REMARK  5 active torsions:
REMARK  status: ('A' for Active; 'I' for Inactive)
REMARK    1  A    between atoms: C_1  and  C_9
REMARK    2  A    between atoms: C_2  and  S_19
REMARK    3  A    between atoms: N_8  and  C_11
REMARK    4  A    between atoms: C_11  and  C_13
REMARK    5  A    between atoms: S_19  and  N_22
REMARK                            x       y       z     vdW  Elec       q    Type
REMARK                         _______ _______ _______ _____ _____    ______ ____
ROOT
ATOM      1  C   UNL     1      34.432 -21.439 -19.699  0.00  0.00    +0.053 C 
ATOM      2  C   UNL     1      34.851 -19.185 -21.287  0.00  0.00    +0.122 C 
ATOM      3  C   UNL     1      33.343 -20.699 -20.160  0.00  0.00    +0.006 C 
ATOM      4  C   UNL     1      35.730 -21.054 -20.032  0.00  0.00    +0.006 C 
ATOM      5  C   UNL     1      33.553 -19.572 -20.953  0.00  0.00    +0.020 C 
ATOM      6  C   UNL     1      35.939 -19.925 -20.826  0.00  0.00    +0.020 C 
ENDROOT
BRANCH   1   9
ATOM      7  O   UNL     1      33.811 -23.679 -19.380  0.00  0.00    -0.270 OA
ATOM      8  N   UNL     1      34.496 -22.495 -17.506  0.00  0.00    -0.297 N 
ATOM      9  C   UNL     1      34.213 -22.616 -18.872  0.00  0.00    +0.246 C 
ATOM     10  H   UNL     1      34.810 -21.625 -17.171  0.00  0.00    +0.150 HD
BRANCH   8  11
ATOM     11  C   UNL     1      34.351 -23.579 -16.562  0.00  0.00    +0.117 C 
BRANCH  11  13
ATOM     12  F   UNL     1      29.588 -23.176 -13.607  0.00  0.00    -0.204 F 
ATOM     13  C   UNL     1      33.078 -23.471 -15.773  0.00  0.00    -0.002 C 
ATOM     14  C   UNL     1      31.873 -23.272 -16.435  0.00  0.00    -0.000 C 
ATOM     15  C   UNL     1      33.119 -23.572 -14.387  0.00  0.00    -0.000 C 
ATOM     16  C   UNL     1      30.691 -23.173 -15.702  0.00  0.00    +0.029 C 
ATOM     17  C   UNL     1      31.936 -23.472 -13.654  0.00  0.00    +0.029 C 
ATOM     18  C   UNL     1      30.723 -23.272 -14.310  0.00  0.00    +0.140 C 
ENDBRANCH  11  13
ENDBRANCH   8  11
ENDBRANCH   1   9
BRANCH   2  19
ATOM     19  S   UNL     1      35.114 -17.772 -22.279  0.00  0.00    +0.057 S 
ATOM     20  O   UNL     1      34.348 -17.924 -23.507  0.00  0.00    -0.153 OA
ATOM     21  O   UNL     1      34.930 -16.587 -21.453  0.00  0.00    -0.153 OA
BRANCH  19  22
ATOM     22  N   UNL     1      36.776 -17.933 -22.641  0.00  0.00    -0.203 NA
ATOM     23  H   UNL     1      36.890 -18.132 -23.635  0.00  0.00    +0.144 HD
ATOM     24  H   UNL     1      37.170 -18.698 -22.094  0.00  0.00    +0.144 HD
ENDBRANCH  19  22
ENDBRANCH   2  19
TORSDOF 5
ENDMDL
MODEL 9
REMARK VINA RESULT:      -9.3      3.937      5.893
REMARK  Name = 446237
REMARK  5 active torsions:
REMARK  status: ('A' for Active; 'I' for Inactive)
REMARK    1  A    between atoms: C_1  and  C_9
REMARK    2  A    between atoms: C_2  and  S_19
REMARK    3  A    between atoms: N_8  and  C_11
REMARK    4  A    between atoms: C_11  and  C_13
REMARK    5  A    between atoms: S_19  and  N_22
REMARK                            x       y       z     vdW  Elec       q    Type
REMARK                         _______ _______ _______ _____ _____    ______ ____
ROOT
ATOM      1  C   UNL     1      33.072 -14.293 -21.489  0.00  0.00    +0.053 C 
ATOM      2  C   UNL     1      34.350 -16.763 -21.709  0.00  0.00    +0.122 C 
ATOM      3  C   UNL     1      34.056 -14.485 -22.458  0.00  0.00    +0.006 C 
ATOM      4  C   UNL     1      32.725 -15.336 -20.630  0.00  0.00    +0.006 C 
ATOM      5  C   UNL     1      34.696 -15.720 -22.568  0.00  0.00    +0.020 C 
ATOM      6  C   UNL     1      33.366 -16.571 -20.740  0.00  0.00    +0.020 C 
ENDROOT
BRANCH   1   9
ATOM      7  O   UNL     1      31.994 -12.603 -20.272  0.00  0.00    -0.270 OA
ATOM      8  N   UNL     1      32.273 -12.252 -22.548  0.00  0.00    -0.297 N 
ATOM      9  C   UNL     1      32.404 -13.006 -21.376  0.00  0.00    +0.246 C 
ATOM     10  H   UNL     1      32.620 -12.633 -23.387  0.00  0.00    +0.150 HD
BRANCH   8  11
ATOM     11  C   UNL     1      31.655 -10.947 -22.594  0.00  0.00    +0.117 C 
BRANCH  11  13
ATOM     12  F   UNL     1      35.382  -6.897 -23.730  0.00  0.00    -0.204 F 
ATOM     13  C   UNL     1      32.651  -9.864 -22.897  0.00  0.00    -0.002 C 
ATOM     14  C   UNL     1      32.540  -8.632 -22.266  0.00  0.00    -0.000 C 
ATOM     15  C   UNL     1      33.673 -10.107 -23.807  0.00  0.00    -0.000 C 
ATOM     16  C   UNL     1      33.465  -7.627 -22.547  0.00  0.00    +0.029 C 
ATOM     17  C   UNL     1      34.598  -9.102 -24.089  0.00  0.00    +0.029 C 
ATOM     18  C   UNL     1      34.494  -7.862 -23.459  0.00  0.00    +0.140 C 
ENDBRANCH  11  13
ENDBRANCH   8  11
ENDBRANCH   1   9
BRANCH   2  19
ATOM     19  S   UNL     1      35.152 -18.308 -21.845  0.00  0.00    +0.057 S 
ATOM     20  O   UNL     1      35.958 -18.514 -20.651  0.00  0.00    -0.153 OA
ATOM     21  O   UNL     1      34.166 -19.307 -22.234  0.00  0.00    -0.153 OA
BRANCH  19  22
ATOM     22  N   UNL     1      36.191 -18.021 -23.170  0.00  0.00    -0.203 NA
ATOM     23  H   UNL     1      35.639 -17.744 -23.981  0.00  0.00    +0.144 HD
ATOM     24  H   UNL     1      36.710 -18.872 -23.385  0.00  0.00    +0.144 HD
ENDBRANCH  19  22
ENDBRANCH   2  19
TORSDOF 5
ENDMDL
