MODEL 1
REMARK VINA RESULT:      -8.6      0.000      0.000
REMARK  Name = 11287125
REMARK  0 active torsions:
REMARK  status: ('A' for Active; 'I' for Inactive)
REMARK                            x       y       z     vdW  Elec       q    Type
REMARK                         _______ _______ _______ _____ _____    ______ ____
ROOT
ATOM      1  O   UNL     1      36.841 -22.028 -18.525  0.00  0.00    -0.209 OA
ATOM      2  N   UNL     1      32.976 -21.430 -19.385  0.00  0.00    -0.275 N 
ATOM      3  N   UNL     1      36.509 -18.309 -22.222  0.00  0.00    -0.315 N 
ATOM      4  N   UNL     1      34.356 -18.002 -22.677  0.00  0.00    -0.315 N 
ATOM      5  N   UNL     1      34.650 -22.572 -18.139  0.00  0.00    -0.302 NA
ATOM      6  N   UNL     1      32.369 -23.024 -17.854  0.00  0.00    -0.320 N 
ATOM      7  C   UNL     1      33.914 -20.660 -20.080  0.00  0.00    +0.064 C 
ATOM      8  C   UNL     1      35.277 -20.845 -19.802  0.00  0.00    +0.110 C 
ATOM      9  C   UNL     1      35.834 -19.182 -21.407  0.00  0.00    +0.060 C 
ATOM     10  C   UNL     1      34.493 -18.970 -21.710  0.00  0.00    +0.060 C 
ATOM     11  C   UNL     1      36.274 -20.108 -20.460  0.00  0.00    +0.029 C 
ATOM     12  C   UNL     1      33.509 -19.719 -21.039  0.00  0.00    +0.031 C 
ATOM     13  C   UNL     1      35.651 -21.859 -18.774  0.00  0.00    +0.208 C 
ATOM     14  C   UNL     1      33.401 -22.346 -18.451  0.00  0.00    +0.248 C 
ATOM     15  C   UNL     1      35.583 -17.627 -22.961  0.00  0.00    +0.182 C 
ATOM     16  H   UNL     1      32.014 -21.316 -19.564  0.00  0.00    +0.156 HD
ATOM     17  H   UNL     1      37.486 -18.195 -22.267  0.00  0.00    +0.148 HD
ATOM     18  H   UNL     1      33.520 -17.662 -23.072  0.00  0.00    +0.148 HD
ATOM     19  H   UNL     1      31.438 -22.830 -18.109  0.00  0.00    +0.146 HD
ATOM     20  H   UNL     1      32.560 -23.705 -17.168  0.00  0.00    +0.146 HD
ENDROOT
TORSDOF 0
ENDMDL
MODEL 2
REMARK VINA RESULT:      -8.3      4.222      7.480
REMARK  Name = 11287125
REMARK  0 active torsions:
REMARK  status: ('A' for Active; 'I' for Inactive)
REMARK                            x       y       z     vdW  Elec       q    Type
REMARK                         _______ _______ _______ _____ _____    ______ ____
ROOT
ATOM      1  O   UNL     1      33.467 -15.862 -26.386  0.00  0.00    -0.209 OA
ATOM      2  N   UNL     1      34.146 -13.748 -23.053  0.00  0.00    -0.275 N 
ATOM      3  N   UNL     1      35.135 -19.144 -22.637  0.00  0.00    -0.315 N 
ATOM      4  N   UNL     1      35.504 -17.943 -20.805  0.00  0.00    -0.315 N 
ATOM      5  N   UNL     1      33.463 -13.830 -25.331  0.00  0.00    -0.302 NA
ATOM      6  N   UNL     1      33.512 -11.822 -24.124  0.00  0.00    -0.320 N 
ATOM      7  C   UNL     1      34.383 -15.126 -22.998  0.00  0.00    +0.064 C 
ATOM      8  C   UNL     1      34.154 -15.895 -24.149  0.00  0.00    +0.110 C 
ATOM      9  C   UNL     1      34.825 -17.852 -22.978  0.00  0.00    +0.060 C 
ATOM     10  C   UNL     1      35.063 -17.123 -21.817  0.00  0.00    +0.060 C 
ATOM     11  C   UNL     1      34.369 -17.282 -24.167  0.00  0.00    +0.029 C 
ATOM     12  C   UNL     1      34.840 -15.734 -21.819  0.00  0.00    +0.031 C 
ATOM     13  C   UNL     1      33.669 -15.197 -25.374  0.00  0.00    +0.208 C 
ATOM     14  C   UNL     1      33.698 -13.178 -24.222  0.00  0.00    +0.248 C 
ATOM     15  C   UNL     1      35.535 -19.147 -21.330  0.00  0.00    +0.182 C 
ATOM     16  H   UNL     1      34.298 -13.189 -22.257  0.00  0.00    +0.156 HD
ATOM     17  H   UNL     1      35.080 -19.929 -23.229  0.00  0.00    +0.148 HD
ATOM     18  H   UNL     1      35.743 -17.685 -19.885  0.00  0.00    +0.148 HD
ATOM     19  H   UNL     1      33.696 -11.360 -23.274  0.00  0.00    +0.146 HD
ATOM     20  H   UNL     1      33.193 -11.312 -24.902  0.00  0.00    +0.146 HD
ENDROOT
TORSDOF 0
ENDMDL
MODEL 3
REMARK VINA RESULT:      -8.3      4.509      7.149
REMARK  Name = 11287125
REMARK  0 active torsions:
REMARK  status: ('A' for Active; 'I' for Inactive)
REMARK                            x       y       z     vdW  Elec       q    Type
REMARK                         _______ _______ _______ _____ _____    ______ ____
ROOT
ATOM      1  O   UNL     1      33.453 -14.349 -25.342  0.00  0.00    -0.209 OA
ATOM      2  N   UNL     1      32.763 -14.041 -21.409  0.00  0.00    -0.275 N 
ATOM      3  N   UNL     1      36.092 -18.167 -22.880  0.00  0.00    -0.315 N 
ATOM      4  N   UNL     1      35.690 -17.969 -20.703  0.00  0.00    -0.315 N 
ATOM      5  N   UNL     1      32.412 -13.248 -23.625  0.00  0.00    -0.302 NA
ATOM      6  N   UNL     1      31.414 -12.223 -21.770  0.00  0.00    -0.320 N 
ATOM      7  C   UNL     1      33.604 -15.075 -21.834  0.00  0.00    +0.064 C 
ATOM      8  C   UNL     1      33.866 -15.211 -23.206  0.00  0.00    +0.110 C 
ATOM      9  C   UNL     1      35.252 -17.089 -22.759  0.00  0.00    +0.060 C 
ATOM     10  C   UNL     1      35.016 -16.987 -21.392  0.00  0.00    +0.060 C 
ATOM     11  C   UNL     1      34.698 -16.225 -23.704  0.00  0.00    +0.029 C 
ATOM     12  C   UNL     1      34.178 -15.964 -20.913  0.00  0.00    +0.031 C 
ATOM     13  C   UNL     1      33.229 -14.238 -24.140  0.00  0.00    +0.208 C 
ATOM     14  C   UNL     1      32.213 -13.184 -22.334  0.00  0.00    +0.248 C 
ATOM     15  C   UNL     1      36.324 -18.659 -21.625  0.00  0.00    +0.182 C 
ATOM     16  H   UNL     1      32.564 -13.928 -20.451  0.00  0.00    +0.156 HD
ATOM     17  H   UNL     1      36.461 -18.523 -23.720  0.00  0.00    +0.148 HD
ATOM     18  H   UNL     1      35.696 -18.123 -19.731  0.00  0.00    +0.148 HD
ATOM     19  H   UNL     1      31.283 -12.202 -20.794  0.00  0.00    +0.146 HD
ATOM     20  H   UNL     1      30.969 -11.556 -22.341  0.00  0.00    +0.146 HD
ENDROOT
TORSDOF 0
ENDMDL
MODEL 4
REMARK VINA RESULT:      -8.3      3.672      5.629
REMARK  Name = 11287125
REMARK  0 active torsions:
REMARK  status: ('A' for Active; 'I' for Inactive)
REMARK                            x       y       z     vdW  Elec       q    Type
REMARK                         _______ _______ _______ _____ _____    ______ ____
ROOT
ATOM      1  O   UNL     1      34.810 -15.319 -20.220  0.00  0.00    -0.209 OA
ATOM      2  N   UNL     1      35.061 -18.318 -22.862  0.00  0.00    -0.275 N 
ATOM      3  N   UNL     1      33.224 -13.553 -24.907  0.00  0.00    -0.315 N 
ATOM      4  N   UNL     1      33.376 -15.237 -26.348  0.00  0.00    -0.315 N 
ATOM      5  N   UNL     1      35.339 -17.507 -20.642  0.00  0.00    -0.302 NA
ATOM      6  N   UNL     1      35.841 -19.720 -21.223  0.00  0.00    -0.320 N 
ATOM      7  C   UNL     1      34.599 -17.085 -23.333  0.00  0.00    +0.064 C 
ATOM      8  C   UNL     1      34.499 -16.013 -22.433  0.00  0.00    +0.110 C 
ATOM      9  C   UNL     1      33.696 -14.616 -24.180  0.00  0.00    +0.060 C 
ATOM     10  C   UNL     1      33.782 -15.654 -25.102  0.00  0.00    +0.060 C 
ATOM     11  C   UNL     1      34.043 -14.749 -22.835  0.00  0.00    +0.029 C 
ATOM     12  C   UNL     1      34.240 -16.914 -24.679  0.00  0.00    +0.031 C 
ATOM     13  C   UNL     1      34.894 -16.251 -21.014  0.00  0.00    +0.208 C 
ATOM     14  C   UNL     1      35.406 -18.458 -21.537  0.00  0.00    +0.248 C 
ATOM     15  C   UNL     1      33.048 -13.973 -26.195  0.00  0.00    +0.182 C 
ATOM     16  H   UNL     1      35.138 -19.084 -23.475  0.00  0.00    +0.156 HD
ATOM     17  H   UNL     1      33.044 -12.648 -24.562  0.00  0.00    +0.148 HD
ATOM     18  H   UNL     1      33.338 -15.769 -27.176  0.00  0.00    +0.148 HD
ATOM     19  H   UNL     1      35.879 -20.415 -21.920  0.00  0.00    +0.146 HD
ATOM     20  H   UNL     1      36.114 -19.932 -20.301  0.00  0.00    +0.146 HD
ENDROOT
TORSDOF 0
ENDMDL
MODEL 5
REMARK VINA RESULT:      -8.2      4.094      5.988
REMARK  Name = 11287125
REMARK  0 active torsions:
REMARK  status: ('A' for Active; 'I' for Inactive)
REMARK                            x       y       z     vdW  Elec       q    Type
REMARK                         _______ _______ _______ _____ _____    ______ ____
ROOT
ATOM      1  O   UNL     1      34.955 -17.241 -24.678  0.00  0.00    -0.209 OA
ATOM      2  N   UNL     1      35.165 -17.208 -20.679  0.00  0.00    -0.275 N 
ATOM      3  N   UNL     1      32.174 -13.156 -22.894  0.00  0.00    -0.315 N 
ATOM      4  N   UNL     1      32.308 -13.166 -20.676  0.00  0.00    -0.315 N 
ATOM      5  N   UNL     1      35.749 -18.205 -22.759  0.00  0.00    -0.302 NA
ATOM      6  N   UNL     1      36.485 -19.082 -20.715  0.00  0.00    -0.320 N 
ATOM      7  C   UNL     1      34.415 -16.198 -21.291  0.00  0.00    +0.064 C 
ATOM      8  C   UNL     1      34.322 -16.180 -22.691  0.00  0.00    +0.110 C 
ATOM      9  C   UNL     1      32.956 -14.238 -22.579  0.00  0.00    +0.060 C 
ATOM     10  C   UNL     1      33.025 -14.222 -21.190  0.00  0.00    +0.060 C 
ATOM     11  C   UNL     1      33.589 -15.197 -23.372  0.00  0.00    +0.029 C 
ATOM     12  C   UNL     1      33.766 -15.216 -20.526  0.00  0.00    +0.031 C 
ATOM     13  C   UNL     1      35.032 -17.248 -23.454  0.00  0.00    +0.208 C 
ATOM     14  C   UNL     1      35.791 -18.158 -21.453  0.00  0.00    +0.248 C 
ATOM     15  C   UNL     1      31.812 -12.548 -21.724  0.00  0.00    +0.182 C 
ATOM     16  H   UNL     1      35.245 -17.239 -19.698  0.00  0.00    +0.156 HD
ATOM     17  H   UNL     1      31.918 -12.869 -23.800  0.00  0.00    +0.148 HD
ATOM     18  H   UNL     1      32.193 -12.925 -19.728  0.00  0.00    +0.148 HD
ATOM     19  H   UNL     1      36.498 -19.018 -19.733  0.00  0.00    +0.146 HD
ATOM     20  H   UNL     1      36.972 -19.808 -21.168  0.00  0.00    +0.146 HD
ENDROOT
TORSDOF 0
ENDMDL
MODEL 6
REMARK VINA RESULT:      -8.2      1.273      4.861
REMARK  Name = 11287125
REMARK  0 active torsions:
REMARK  status: ('A' for Active; 'I' for Inactive)
REMARK                            x       y       z     vdW  Elec       q    Type
REMARK                         _______ _______ _______ _____ _____    ______ ____
ROOT
ATOM      1  O   UNL     1      37.804 -19.305 -21.004  0.00  0.00    -0.209 OA
ATOM      2  N   UNL     1      33.977 -18.612 -21.958  0.00  0.00    -0.275 N 
ATOM      3  N   UNL     1      34.774 -22.602 -18.255  0.00  0.00    -0.315 N 
ATOM      4  N   UNL     1      32.660 -22.191 -18.804  0.00  0.00    -0.315 N 
ATOM      5  N   UNL     1      36.286 -18.104 -22.227  0.00  0.00    -0.302 NA
ATOM      6  N   UNL     1      34.619 -16.958 -23.410  0.00  0.00    -0.320 N 
ATOM      7  C   UNL     1      34.232 -19.617 -21.020  0.00  0.00    +0.064 C 
ATOM      8  C   UNL     1      35.562 -19.886 -20.664  0.00  0.00    +0.110 C 
ATOM      9  C   UNL     1      34.825 -21.586 -19.176  0.00  0.00    +0.060 C 
ATOM     10  C   UNL     1      33.494 -21.350 -19.503  0.00  0.00    +0.060 C 
ATOM     11  C   UNL     1      35.893 -20.881 -19.731  0.00  0.00    +0.029 C 
ATOM     12  C   UNL     1      33.184 -20.349 -20.441  0.00  0.00    +0.031 C 
ATOM     13  C   UNL     1      36.637 -19.078 -21.310  0.00  0.00    +0.208 C 
ATOM     14  C   UNL     1      35.024 -17.910 -22.509  0.00  0.00    +0.248 C 
ATOM     15  C   UNL     1      33.460 -22.929 -18.066  0.00  0.00    +0.182 C 
ATOM     16  H   UNL     1      33.051 -18.407 -22.223  0.00  0.00    +0.156 HD
ATOM     17  H   UNL     1      35.545 -23.020 -17.809  0.00  0.00    +0.148 HD
ATOM     18  H   UNL     1      31.677 -22.234 -18.847  0.00  0.00    +0.148 HD
ATOM     19  H   UNL     1      33.661 -16.837 -23.602  0.00  0.00    +0.146 HD
ATOM     20  H   UNL     1      35.288 -16.397 -23.865  0.00  0.00    +0.146 HD
ENDROOT
TORSDOF 0
ENDMDL
MODEL 7
REMARK VINA RESULT:      -8.2      1.545      2.569
REMARK  Name = 11287125
REMARK  0 active torsions:
REMARK  status: ('A' for Active; 'I' for Inactive)
REMARK                            x       y       z     vdW  Elec       q    Type
REMARK                         _______ _______ _______ _____ _____    ______ ____
ROOT
ATOM      1  O   UNL     1      33.068 -22.290 -19.321  0.00  0.00    -0.209 OA
ATOM      2  N   UNL     1      36.819 -21.015 -18.735  0.00  0.00    -0.275 N 
ATOM      3  N   UNL     1      34.194 -18.682 -22.971  0.00  0.00    -0.315 N 
ATOM      4  N   UNL     1      36.278 -17.994 -22.618  0.00  0.00    -0.315 N 
ATOM      5  N   UNL     1      35.000 -22.411 -18.098  0.00  0.00    -0.302 NA
ATOM      6  N   UNL     1      37.037 -22.424 -16.940  0.00  0.00    -0.320 N 
ATOM      7  C   UNL     1      36.109 -20.452 -19.800  0.00  0.00    +0.064 C 
ATOM      8  C   UNL     1      34.792 -20.877 -20.033  0.00  0.00    +0.110 C 
ATOM      9  C   UNL     1      34.635 -19.391 -21.882  0.00  0.00    +0.060 C 
ATOM     10  C   UNL     1      35.938 -18.944 -21.684  0.00  0.00    +0.060 C 
ATOM     11  C   UNL     1      34.021 -20.357 -21.083  0.00  0.00    +0.029 C 
ATOM     12  C   UNL     1      36.694 -19.479 -20.626  0.00  0.00    +0.031 C 
ATOM     13  C   UNL     1      34.219 -21.913 -19.125  0.00  0.00    +0.208 C 
ATOM     14  C   UNL     1      36.220 -21.966 -17.942  0.00  0.00    +0.248 C 
ATOM     15  C   UNL     1      35.211 -17.862 -23.374  0.00  0.00    +0.182 C 
ATOM     16  H   UNL     1      37.745 -20.732 -18.554  0.00  0.00    +0.156 HD
ATOM     17  H   UNL     1      33.305 -18.751 -23.386  0.00  0.00    +0.148 HD
ATOM     18  H   UNL     1      37.135 -17.517 -22.704  0.00  0.00    +0.148 HD
ATOM     19  H   UNL     1      37.952 -22.070 -16.850  0.00  0.00    +0.146 HD
ATOM     20  H   UNL     1      36.709 -23.108 -16.312  0.00  0.00    +0.146 HD
ENDROOT
TORSDOF 0
ENDMDL
MODEL 8
REMARK VINA RESULT:      -8.1      5.210      7.316
REMARK  Name = 11287125
REMARK  0 active torsions:
REMARK  status: ('A' for Active; 'I' for Inactive)
REMARK                            x       y       z     vdW  Elec       q    Type
REMARK                         _______ _______ _______ _____ _____    ______ ____
ROOT
ATOM      1  O   UNL     1      34.998 -16.279 -20.255  0.00  0.00    -0.209 OA
ATOM      2  N   UNL     1      33.919 -15.341 -23.996  0.00  0.00    -0.275 N 
ATOM      3  N   UNL     1      31.711 -12.184 -20.068  0.00  0.00    -0.315 N 
ATOM      4  N   UNL     1      31.133 -11.688 -22.156  0.00  0.00    -0.315 N 
ATOM      5  N   UNL     1      35.156 -16.715 -22.498  0.00  0.00    -0.302 NA
ATOM      6  N   UNL     1      35.220 -17.041 -24.817  0.00  0.00    -0.320 N 
ATOM      7  C   UNL     1      33.384 -14.568 -22.961  0.00  0.00    +0.064 C 
ATOM      8  C   UNL     1      33.742 -14.870 -21.638  0.00  0.00    +0.110 C 
ATOM      9  C   UNL     1      32.374 -13.090 -20.857  0.00  0.00    +0.060 C 
ATOM     10  C   UNL     1      31.996 -12.759 -22.155  0.00  0.00    +0.060 C 
ATOM     11  C   UNL     1      33.244 -14.137 -20.551  0.00  0.00    +0.029 C 
ATOM     12  C   UNL     1      32.506 -13.507 -23.231  0.00  0.00    +0.031 C 
ATOM     13  C   UNL     1      34.679 -16.008 -21.409  0.00  0.00    +0.208 C 
ATOM     14  C   UNL     1      34.778 -16.375 -23.703  0.00  0.00    +0.248 C 
ATOM     15  C   UNL     1      30.984 -11.369 -20.890  0.00  0.00    +0.182 C 
ATOM     16  H   UNL     1      33.681 -15.148 -24.932  0.00  0.00    +0.156 HD
ATOM     17  H   UNL     1      31.753 -12.131 -19.087  0.00  0.00    +0.148 HD
ATOM     18  H   UNL     1      30.717 -11.254 -22.936  0.00  0.00    +0.148 HD
ATOM     19  H   UNL     1      34.917 -16.761 -25.711  0.00  0.00    +0.146 HD
ATOM     20  H   UNL     1      35.841 -17.800 -24.723  0.00  0.00    +0.146 HD
ENDROOT
TORSDOF 0
ENDMDL
MODEL 9
REMARK VINA RESULT:      -8.1      7.469      8.820
REMARK  Name = 11287125
REMARK  0 active torsions:
REMARK  status: ('A' for Active; 'I' for Inactive)
REMARK                            x       y       z     vdW  Elec       q    Type
REMARK                         _______ _______ _______ _____ _____    ______ ____
ROOT
ATOM      1  O   UNL     1      35.474 -25.124 -10.803  0.00  0.00    -0.209 OA
ATOM      2  N   UNL     1      34.996 -23.787 -14.547  0.00  0.00    -0.275 N 
ATOM      3  N   UNL     1      39.909 -26.020 -13.474  0.00  0.00    -0.315 N 
ATOM      4  N   UNL     1      39.612 -25.269 -15.544  0.00  0.00    -0.315 N 
ATOM      5  N   UNL     1      34.125 -24.123 -12.358  0.00  0.00    -0.302 NA
ATOM      6  N   UNL     1      32.861 -23.113 -14.053  0.00  0.00    -0.320 N 
ATOM      7  C   UNL     1      36.229 -24.364 -14.224  0.00  0.00    +0.064 C 
ATOM      8  C   UNL     1      36.429 -24.842 -12.920  0.00  0.00    +0.110 C 
ATOM      9  C   UNL     1      38.633 -25.517 -13.502  0.00  0.00    +0.060 C 
ATOM     10  C   UNL     1      38.472 -25.054 -14.804  0.00  0.00    +0.060 C 
ATOM     11  C   UNL     1      37.640 -25.431 -12.525  0.00  0.00    +0.029 C 
ATOM     12  C   UNL     1      37.251 -24.466 -15.180  0.00  0.00    +0.031 C 
ATOM     13  C   UNL     1      35.308 -24.708 -11.945  0.00  0.00    +0.208 C 
ATOM     14  C   UNL     1      34.011 -23.700 -13.590  0.00  0.00    +0.248 C 
ATOM     15  C   UNL     1      40.452 -25.848 -14.716  0.00  0.00    +0.182 C 
ATOM     16  H   UNL     1      34.834 -23.444 -15.455  0.00  0.00    +0.156 HD
ATOM     17  H   UNL     1      40.353 -26.431 -12.698  0.00  0.00    +0.148 HD
ATOM     18  H   UNL     1      39.766 -25.038 -16.489  0.00  0.00    +0.148 HD
ATOM     19  H   UNL     1      32.807 -22.804 -14.986  0.00  0.00    +0.146 HD
ATOM     20  H   UNL     1      32.090 -23.000 -13.451  0.00  0.00    +0.146 HD
ENDROOT
TORSDOF 0
ENDMDL
