MODEL 1
REMARK VINA RESULT:     -10.3      0.000      0.000
REMARK  Name = 51039
REMARK  6 active torsions:
REMARK  status: ('A' for Active; 'I' for Inactive)
REMARK    1  A    between atoms: N_2  and  CA_10
REMARK    2  A    between atoms: C_3  and  CA_19
REMARK    3  A    between atoms: CA_12  and  C_16
REMARK    4  A    between atoms: C_16  and  O_17
REMARK    5  A    between atoms: CA_19  and  C_20
REMARK    6  A    between atoms: CA_19  and  N_26
REMARK                            x       y       z     vdW  Elec       q    Type
REMARK                         _______ _______ _______ _____ _____    ______ ____
ROOT
ATOM      1  O   UNL     1      36.665 -20.891 -20.347  0.00  0.00    -0.277 OA
ATOM      2  N   UNL     1      34.947 -19.366 -20.667  0.00  0.00    -0.298 N 
ATOM      3  C   UNL     1      35.469 -20.605 -20.290  0.00  0.00    +0.206 C 
ATOM      4  H   UNL     1      33.976 -19.221 -20.588  0.00  0.00    +0.150 HD
ENDROOT
BRANCH   2  10
ATOM      5 CL   UNL     1      33.438 -15.532 -25.806  0.00  0.00    -0.085 Cl
ATOM      6  S   UNL     1      34.796 -19.097 -23.722  0.00  0.00    -0.113 S 
ATOM      7  O   UNL     1      34.799 -16.157 -20.103  0.00  0.00    -0.273 OA
ATOM      8  N   UNL     1      34.965 -16.815 -22.361  0.00  0.00    -0.241 N 
ATOM      9  C   UNL     1      35.771 -17.978 -22.687  0.00  0.00    +0.155 C 
ATOM     10  CA  UNL     1      35.779 -18.275 -21.171  0.00  0.00    +0.178 C 
ATOM     11  C   UNL     1      35.123 -16.873 -21.022  0.00  0.00    +0.251 C 
ATOM     12  CA  UNL     1      34.346 -16.045 -23.294  0.00  0.00    +0.138 C 
ATOM     13  C   UNL     1      34.587 -17.866 -25.058  0.00  0.00    +0.098 C 
ATOM     14  C   UNL     1      34.188 -16.490 -24.559  0.00  0.00    +0.066 C 
BRANCH  12  16
ATOM     15  OXT UNL     1      32.709 -14.572 -22.398  0.00  0.00    -0.244 OA
ATOM     16  C   UNL     1      33.822 -14.743 -22.851  0.00  0.00    +0.353 C 
BRANCH  16  17
ATOM     17  O   UNL     1      34.767 -13.799 -23.030  0.00  0.00    -0.476 OA
ATOM     18  H   UNL     1      35.643 -13.951 -22.738  0.00  0.00    +0.295 HD
ENDBRANCH  16  17
ENDBRANCH  12  16
ENDBRANCH   2  10
BRANCH   3  19
ATOM     19  CA  UNL     1      34.398 -21.583 -19.818  0.00  0.00    +0.036 C 
BRANCH  19  20
ATOM     20  C   UNL     1      34.733 -22.130 -18.447  0.00  0.00    -0.034 C 
ATOM     21  C   UNL     1      33.778 -22.859 -17.760  0.00  0.00    -0.006 C 
ATOM     22  C   UNL     1      35.986 -21.889 -17.911  0.00  0.00    -0.006 C 
ATOM     23  C   UNL     1      34.087 -23.363 -16.496  0.00  0.00    -0.000 C 
ATOM     24  C   UNL     1      36.295 -22.393 -16.648  0.00  0.00    -0.000 C 
ATOM     25  C   UNL     1      35.345 -23.131 -15.941  0.00  0.00    -0.000 C 
ENDBRANCH  19  20
BRANCH  19  26
ATOM     26  N   UNL     1      33.111 -20.880 -19.840  0.00  0.00    +0.390 N 
ATOM     27  H1  UNL     1      32.494 -21.323 -20.520  0.00  0.00    -0.088 HD
ATOM     28  H2  UNL     1      33.261 -19.905 -20.101  0.00  0.00    -0.088 HD
ATOM     29  H3  UNL     1      32.685 -20.923 -18.914  0.00  0.00    -0.088 HD
ENDBRANCH  19  26
ENDBRANCH   3  19
TORSDOF 6
ENDMDL
MODEL 2
REMARK VINA RESULT:      -9.5      1.139      1.412
REMARK  Name = 51039
REMARK  6 active torsions:
REMARK  status: ('A' for Active; 'I' for Inactive)
REMARK    1  A    between atoms: N_2  and  CA_10
REMARK    2  A    between atoms: C_3  and  CA_19
REMARK    3  A    between atoms: CA_12  and  C_16
REMARK    4  A    between atoms: C_16  and  O_17
REMARK    5  A    between atoms: CA_19  and  C_20
REMARK    6  A    between atoms: CA_19  and  N_26
REMARK                            x       y       z     vdW  Elec       q    Type
REMARK                         _______ _______ _______ _____ _____    ______ ____
ROOT
ATOM      1  O   UNL     1      36.282 -19.737 -20.760  0.00  0.00    -0.277 OA
ATOM      2  N   UNL     1      34.417 -18.397 -21.084  0.00  0.00    -0.298 N 
ATOM      3  C   UNL     1      35.059 -19.604 -20.801  0.00  0.00    +0.206 C 
ATOM      4  H   UNL     1      33.432 -18.380 -21.095  0.00  0.00    +0.150 HD
ENDROOT
BRANCH   2  10
ATOM      5 CL   UNL     1      33.074 -14.263 -26.033  0.00  0.00    -0.085 Cl
ATOM      6  S   UNL     1      34.642 -17.823 -24.092  0.00  0.00    -0.113 S 
ATOM      7  O   UNL     1      33.730 -15.314 -20.269  0.00  0.00    -0.273 OA
ATOM      8  N   UNL     1      34.292 -15.698 -22.526  0.00  0.00    -0.241 N 
ATOM      9  C   UNL     1      35.295 -16.704 -22.830  0.00  0.00    +0.155 C 
ATOM     10  CA  UNL     1      35.142 -17.159 -21.361  0.00  0.00    +0.178 C 
ATOM     11  C   UNL     1      34.275 -15.879 -21.189  0.00  0.00    +0.251 C 
ATOM     12  CA  UNL     1      33.699 -14.920 -23.469  0.00  0.00    +0.138 C 
ATOM     13  C   UNL     1      34.438 -16.493 -25.330  0.00  0.00    +0.098 C 
ATOM     14  C   UNL     1      33.780 -15.243 -24.778  0.00  0.00    +0.066 C 
BRANCH  12  16
ATOM     15  OXT UNL     1      33.246 -12.600 -23.215  0.00  0.00    -0.244 OA
ATOM     16  C   UNL     1      32.938 -13.753 -22.996  0.00  0.00    +0.353 C 
BRANCH  16  17
ATOM     17  O   UNL     1      31.866 -14.175 -22.295  0.00  0.00    -0.476 OA
ATOM     18  H   UNL     1      31.787 -13.962 -21.387  0.00  0.00    +0.295 HD
ENDBRANCH  16  17
ENDBRANCH  12  16
ENDBRANCH   2  10
BRANCH   3  19
ATOM     19  CA  UNL     1      34.086 -20.755 -20.569  0.00  0.00    +0.036 C 
BRANCH  19  20
ATOM     20  C   UNL     1      34.441 -21.516 -19.309  0.00  0.00    -0.034 C 
ATOM     21  C   UNL     1      33.459 -22.245 -18.662  0.00  0.00    -0.006 C 
ATOM     22  C   UNL     1      35.739 -21.465 -18.832  0.00  0.00    -0.006 C 
ATOM     23  C   UNL     1      33.786 -22.946 -17.501  0.00  0.00    -0.000 C 
ATOM     24  C   UNL     1      36.066 -22.166 -17.672  0.00  0.00    -0.000 C 
ATOM     25  C   UNL     1      35.089 -22.907 -17.006  0.00  0.00    -0.000 C 
ENDBRANCH  19  20
BRANCH  19  26
ATOM     26  N   UNL     1      32.733 -20.193 -20.519  0.00  0.00    +0.390 N 
ATOM     27  H1  UNL     1      32.241 -20.564 -19.707  0.00  0.00    -0.088 HD
ATOM     28  H2  UNL     1      32.228 -20.447 -21.368  0.00  0.00    -0.088 HD
ATOM     29  H3  UNL     1      32.789 -19.177 -20.448  0.00  0.00    -0.088 HD
ENDBRANCH  19  26
ENDBRANCH   3  19
TORSDOF 6
ENDMDL
MODEL 3
REMARK VINA RESULT:      -9.3      5.891     10.941
REMARK  Name = 51039
REMARK  6 active torsions:
REMARK  status: ('A' for Active; 'I' for Inactive)
REMARK    1  A    between atoms: N_2  and  CA_10
REMARK    2  A    between atoms: C_3  and  CA_19
REMARK    3  A    between atoms: CA_12  and  C_16
REMARK    4  A    between atoms: C_16  and  O_17
REMARK    5  A    between atoms: CA_19  and  C_20
REMARK    6  A    between atoms: CA_19  and  N_26
REMARK                            x       y       z     vdW  Elec       q    Type
REMARK                         _______ _______ _______ _____ _____    ______ ____
ROOT
ATOM      1  O   UNL     1      31.398  -9.471 -19.819  0.00  0.00    -0.277 OA
ATOM      2  N   UNL     1      32.404 -10.178 -21.785  0.00  0.00    -0.298 N 
ATOM      3  C   UNL     1      32.207  -9.288 -20.728  0.00  0.00    +0.206 C 
ATOM      4  H   UNL     1      33.075  -9.954 -22.470  0.00  0.00    +0.150 HD
ENDROOT
BRANCH   2  10
ATOM      5 CL   UNL     1      35.020 -15.957 -23.565  0.00  0.00    -0.085 Cl
ATOM      6  S   UNL     1      33.461 -11.930 -24.075  0.00  0.00    -0.113 S 
ATOM      7  O   UNL     1      32.040 -12.655 -19.693  0.00  0.00    -0.273 OA
ATOM      8  N   UNL     1      32.647 -13.230 -21.898  0.00  0.00    -0.241 N 
ATOM      9  C   UNL     1      32.105 -12.445 -22.994  0.00  0.00    +0.155 C 
ATOM     10  CA  UNL     1      31.660 -11.430 -21.917  0.00  0.00    +0.178 C 
ATOM     11  C   UNL     1      32.091 -12.520 -20.894  0.00  0.00    +0.251 C 
ATOM     12  CA  UNL     1      33.440 -14.318 -22.075  0.00  0.00    +0.138 C 
ATOM     13  C   UNL     1      33.943 -13.647 -24.480  0.00  0.00    +0.098 C 
ATOM     14  C   UNL     1      34.025 -14.557 -23.268  0.00  0.00    +0.066 C 
BRANCH  12  16
ATOM     15  OXT UNL     1      34.679 -15.185 -20.241  0.00  0.00    -0.244 OA
ATOM     16  C   UNL     1      33.664 -15.184 -20.906  0.00  0.00    +0.353 C 
BRANCH  16  17
ATOM     17  O   UNL     1      32.577 -15.955 -20.708  0.00  0.00    -0.476 OA
ATOM     18  H   UNL     1      31.943 -15.715 -20.062  0.00  0.00    +0.295 HD
ENDBRANCH  16  17
ENDBRANCH  12  16
ENDBRANCH   2  10
BRANCH   3  19
ATOM     19  CA  UNL     1      33.087  -8.046 -20.825  0.00  0.00    +0.036 C 
BRANCH  19  20
ATOM     20  C   UNL     1      32.844  -7.313 -22.127  0.00  0.00    -0.034 C 
ATOM     21  C   UNL     1      31.650  -6.637 -22.307  0.00  0.00    -0.006 C 
ATOM     22  C   UNL     1      33.820  -7.335 -23.107  0.00  0.00    -0.006 C 
ATOM     23  C   UNL     1      31.425  -5.961 -23.506  0.00  0.00    -0.000 C 
ATOM     24  C   UNL     1      33.595  -6.660 -24.306  0.00  0.00    -0.000 C 
ATOM     25  C   UNL     1      32.398  -5.972 -24.506  0.00  0.00    -0.000 C 
ENDBRANCH  19  20
BRANCH  19  26
ATOM     26  N   UNL     1      32.810  -7.210 -19.653  0.00  0.00    +0.390 N 
ATOM     27  H1  UNL     1      32.250  -7.738 -18.983  0.00  0.00    -0.088 HD
ATOM     28  H2  UNL     1      32.298  -6.377 -19.943  0.00  0.00    -0.088 HD
ATOM     29  H3  UNL     1      33.690  -6.934 -19.217  0.00  0.00    -0.088 HD
ENDBRANCH  19  26
ENDBRANCH   3  19
TORSDOF 6
ENDMDL
MODEL 4
REMARK VINA RESULT:      -8.9      4.927      7.379
REMARK  Name = 51039
REMARK  6 active torsions:
REMARK  status: ('A' for Active; 'I' for Inactive)
REMARK    1  A    between atoms: N_2  and  CA_10
REMARK    2  A    between atoms: C_3  and  CA_19
REMARK    3  A    between atoms: CA_12  and  C_16
REMARK    4  A    between atoms: C_16  and  O_17
REMARK    5  A    between atoms: CA_19  and  C_20
REMARK    6  A    between atoms: CA_19  and  N_26
REMARK                            x       y       z     vdW  Elec       q    Type
REMARK                         _______ _______ _______ _____ _____    ______ ____
ROOT
ATOM      1  O   UNL     1      31.658 -15.341 -21.393  0.00  0.00    -0.277 OA
ATOM      2  N   UNL     1      33.126 -13.647 -21.984  0.00  0.00    -0.298 N 
ATOM      3  C   UNL     1      32.800 -14.885 -21.428  0.00  0.00    +0.206 C 
ATOM      4  H   UNL     1      34.068 -13.359 -21.970  0.00  0.00    +0.150 HD
ENDROOT
BRANCH   2  10
ATOM      5 CL   UNL     1      32.109  -7.375 -20.246  0.00  0.00    -0.085 Cl
ATOM      6  S   UNL     1      31.899 -11.707 -19.944  0.00  0.00    -0.113 S 
ATOM      7  O   UNL     1      33.436 -11.408 -24.336  0.00  0.00    -0.273 OA
ATOM      8  N   UNL     1      32.300 -10.725 -22.387  0.00  0.00    -0.241 N 
ATOM      9  C   UNL     1      31.460 -11.690 -21.699  0.00  0.00    +0.155 C 
ATOM     10  CA  UNL     1      32.132 -12.761 -22.587  0.00  0.00    +0.178 C 
ATOM     11  C   UNL     1      32.754 -11.556 -23.349  0.00  0.00    +0.251 C 
ATOM     12  CA  UNL     1      32.423  -9.428 -22.002  0.00  0.00    +0.138 C 
ATOM     13  C   UNL     1      31.465  -9.948 -19.700  0.00  0.00    +0.098 C 
ATOM     14  C   UNL     1      32.012  -9.031 -20.778  0.00  0.00    +0.066 C 
BRANCH  12  16
ATOM     15  OXT UNL     1      34.238  -8.220 -22.948  0.00  0.00    -0.244 OA
ATOM     16  C   UNL     1      33.058  -8.502 -22.953  0.00  0.00    +0.353 C 
BRANCH  16  17
ATOM     17  O   UNL     1      32.127  -8.033 -23.808  0.00  0.00    -0.476 OA
ATOM     18  H   UNL     1      31.751  -7.187 -23.672  0.00  0.00    +0.295 HD
ENDBRANCH  16  17
ENDBRANCH  12  16
ENDBRANCH   2  10
BRANCH   3  19
ATOM     19  CA  UNL     1      34.007 -15.611 -20.844  0.00  0.00    +0.036 C 
BRANCH  19  20
ATOM     20  C   UNL     1      34.392 -16.796 -21.703  0.00  0.00    -0.034 C 
ATOM     21  C   UNL     1      34.861 -16.575 -22.986  0.00  0.00    -0.006 C 
ATOM     22  C   UNL     1      34.266 -18.074 -21.187  0.00  0.00    -0.006 C 
ATOM     23  C   UNL     1      35.217 -17.667 -23.778  0.00  0.00    -0.000 C 
ATOM     24  C   UNL     1      34.621 -19.166 -21.979  0.00  0.00    -0.000 C 
ATOM     25  C   UNL     1      35.097 -18.962 -23.274  0.00  0.00    -0.000 C 
ENDBRANCH  19  20
BRANCH  19  26
ATOM     26  N   UNL     1      35.095 -14.637 -20.715  0.00  0.00    +0.390 N 
ATOM     27  H1  UNL     1      34.704 -13.712 -20.536  0.00  0.00    -0.088 HD
ATOM     28  H2  UNL     1      35.635 -14.615 -21.580  0.00  0.00    -0.088 HD
ATOM     29  H3  UNL     1      35.703 -14.905 -19.941  0.00  0.00    -0.088 HD
ENDBRANCH  19  26
ENDBRANCH   3  19
TORSDOF 6
ENDMDL
MODEL 5
REMARK VINA RESULT:      -8.7      5.642      9.312
REMARK  Name = 51039
REMARK  6 active torsions:
REMARK  status: ('A' for Active; 'I' for Inactive)
REMARK    1  A    between atoms: N_2  and  CA_10
REMARK    2  A    between atoms: C_3  and  CA_19
REMARK    3  A    between atoms: CA_12  and  C_16
REMARK    4  A    between atoms: C_16  and  O_17
REMARK    5  A    between atoms: CA_19  and  C_20
REMARK    6  A    between atoms: CA_19  and  N_26
REMARK                            x       y       z     vdW  Elec       q    Type
REMARK                         _______ _______ _______ _____ _____    ______ ____
ROOT
ATOM      1  O   UNL     1      34.163 -23.724 -19.515  0.00  0.00    -0.277 OA
ATOM      2  N   UNL     1      33.952 -22.878 -17.366  0.00  0.00    -0.298 N 
ATOM      3  C   UNL     1      33.906 -22.788 -18.759  0.00  0.00    +0.206 C 
ATOM      4  H   UNL     1      33.729 -22.079 -16.836  0.00  0.00    +0.150 HD
ENDROOT
BRANCH   2  10
ATOM      5 CL   UNL     1      37.534 -23.154 -11.845  0.00  0.00    -0.085 Cl
ATOM      6  S   UNL     1      36.744 -22.721 -16.099  0.00  0.00    -0.113 S 
ATOM      7  O   UNL     1      32.566 -24.331 -14.795  0.00  0.00    -0.273 OA
ATOM      8  N   UNL     1      34.904 -24.042 -14.698  0.00  0.00    -0.241 N 
ATOM      9  C   UNL     1      35.670 -24.167 -15.926  0.00  0.00    +0.155 C 
ATOM     10  CA  UNL     1      34.313 -24.108 -16.662  0.00  0.00    +0.178 C 
ATOM     11  C   UNL     1      33.683 -24.220 -15.245  0.00  0.00    +0.251 C 
ATOM     12  CA  UNL     1      35.467 -23.827 -13.481  0.00  0.00    +0.138 C 
ATOM     13  C   UNL     1      37.651 -23.067 -14.549  0.00  0.00    +0.098 C 
ATOM     14  C   UNL     1      36.748 -23.409 -13.379  0.00  0.00    +0.066 C 
BRANCH  12  16
ATOM     15  OXT UNL     1      34.847 -24.809 -11.407  0.00  0.00    -0.244 OA
ATOM     16  C   UNL     1      34.612 -24.022 -12.300  0.00  0.00    +0.353 C 
BRANCH  16  17
ATOM     17  O   UNL     1      33.548 -23.198 -12.380  0.00  0.00    -0.476 OA
ATOM     18  H   UNL     1      32.893 -23.211 -11.710  0.00  0.00    +0.295 HD
ENDBRANCH  16  17
ENDBRANCH  12  16
ENDBRANCH   2  10
BRANCH   3  19
ATOM     19  CA  UNL     1      33.523 -21.397 -19.252  0.00  0.00    +0.036 C 
BRANCH  19  20
ATOM     20  C   UNL     1      34.721 -20.687 -19.846  0.00  0.00    -0.034 C 
ATOM     21  C   UNL     1      34.517 -19.672 -20.765  0.00  0.00    -0.006 C 
ATOM     22  C   UNL     1      35.993 -21.068 -19.458  0.00  0.00    -0.006 C 
ATOM     23  C   UNL     1      35.620 -19.018 -21.312  0.00  0.00    -0.000 C 
ATOM     24  C   UNL     1      37.097 -20.414 -20.005  0.00  0.00    -0.000 C 
ATOM     25  C   UNL     1      36.910 -19.389 -20.932  0.00  0.00    -0.000 C 
ENDBRANCH  19  20
BRANCH  19  26
ATOM     26  N   UNL     1      32.430 -21.550 -20.216  0.00  0.00    +0.390 N 
ATOM     27  H1  UNL     1      31.536 -21.506 -19.726  0.00  0.00    -0.088 HD
ATOM     28  H2  UNL     1      32.516 -22.450 -20.688  0.00  0.00    -0.088 HD
ATOM     29  H3  UNL     1      32.476 -20.799 -20.905  0.00  0.00    -0.088 HD
ENDBRANCH  19  26
ENDBRANCH   3  19
TORSDOF 6
ENDMDL
MODEL 6
REMARK VINA RESULT:      -8.3      5.016     10.062
REMARK  Name = 51039
REMARK  6 active torsions:
REMARK  status: ('A' for Active; 'I' for Inactive)
REMARK    1  A    between atoms: N_2  and  CA_10
REMARK    2  A    between atoms: C_3  and  CA_19
REMARK    3  A    between atoms: CA_12  and  C_16
REMARK    4  A    between atoms: C_16  and  O_17
REMARK    5  A    between atoms: CA_19  and  C_20
REMARK    6  A    between atoms: CA_19  and  N_26
REMARK                            x       y       z     vdW  Elec       q    Type
REMARK                         _______ _______ _______ _____ _____    ______ ____
ROOT
ATOM      1  O   UNL     1      30.716 -10.607 -22.320  0.00  0.00    -0.277 OA
ATOM      2  N   UNL     1      32.503 -11.886 -23.058  0.00  0.00    -0.298 N 
ATOM      3  C   UNL     1      31.825 -10.684 -22.846  0.00  0.00    +0.206 C 
ATOM      4  H   UNL     1      33.390 -11.857 -23.486  0.00  0.00    +0.150 HD
ENDROOT
BRANCH   2  10
ATOM      5 CL   UNL     1      35.710 -17.623 -23.511  0.00  0.00    -0.085 Cl
ATOM      6  S   UNL     1      33.474 -14.156 -24.884  0.00  0.00    -0.113 S 
ATOM      7  O   UNL     1      32.849 -13.590 -20.298  0.00  0.00    -0.273 OA
ATOM      8  N   UNL     1      33.207 -14.771 -22.307  0.00  0.00    -0.241 N 
ATOM      9  C   UNL     1      32.392 -14.438 -23.463  0.00  0.00    +0.155 C 
ATOM     10  CA  UNL     1      31.956 -13.185 -22.671  0.00  0.00    +0.178 C 
ATOM     11  C   UNL     1      32.700 -13.840 -21.472  0.00  0.00    +0.251 C 
ATOM     12  CA  UNL     1      34.128 -15.770 -22.301  0.00  0.00    +0.138 C 
ATOM     13  C   UNL     1      34.157 -15.852 -24.847  0.00  0.00    +0.098 C 
ATOM     14  C   UNL     1      34.561 -16.314 -23.459  0.00  0.00    +0.066 C 
BRANCH  12  16
ATOM     15  OXT UNL     1      34.687 -17.338 -20.605  0.00  0.00    -0.244 OA
ATOM     16  C   UNL     1      34.656 -16.189 -20.994  0.00  0.00    +0.353 C 
BRANCH  16  17
ATOM     17  O   UNL     1      35.088 -15.104 -20.319  0.00  0.00    -0.476 OA
ATOM     18  H   UNL     1      36.005 -14.922 -20.263  0.00  0.00    +0.295 HD
ENDBRANCH  16  17
ENDBRANCH  12  16
ENDBRANCH   2  10
BRANCH   3  19
ATOM     19  CA  UNL     1      32.594  -9.470 -23.356  0.00  0.00    +0.036 C 
BRANCH  19  20
ATOM     20  C   UNL     1      32.367  -8.272 -22.460  0.00  0.00    -0.034 C 
ATOM     21  C   UNL     1      32.728  -8.349 -21.126  0.00  0.00    -0.006 C 
ATOM     22  C   UNL     1      31.804  -7.126 -22.993  0.00  0.00    -0.006 C 
ATOM     23  C   UNL     1      32.519  -7.245 -20.300  0.00  0.00    -0.000 C 
ATOM     24  C   UNL     1      31.596  -6.022 -22.167  0.00  0.00    -0.000 C 
ATOM     25  C   UNL     1      31.953  -6.081 -20.820  0.00  0.00    -0.000 C 
ENDBRANCH  19  20
BRANCH  19  26
ATOM     26  N   UNL     1      34.009  -9.842 -23.444  0.00  0.00    +0.390 N 
ATOM     27  H1  UNL     1      34.576  -9.137 -22.973  0.00  0.00    -0.088 HD
ATOM     28  H2  UNL     1      34.285  -9.900 -24.425  0.00  0.00    -0.088 HD
ATOM     29  H3  UNL     1      34.151 -10.748 -22.997  0.00  0.00    -0.088 HD
ENDBRANCH  19  26
ENDBRANCH   3  19
TORSDOF 6
ENDMDL
MODEL 7
REMARK VINA RESULT:      -8.1      3.789      5.707
REMARK  Name = 51039
REMARK  6 active torsions:
REMARK  status: ('A' for Active; 'I' for Inactive)
REMARK    1  A    between atoms: N_2  and  CA_10
REMARK    2  A    between atoms: C_3  and  CA_19
REMARK    3  A    between atoms: CA_12  and  C_16
REMARK    4  A    between atoms: C_16  and  O_17
REMARK    5  A    between atoms: CA_19  and  C_20
REMARK    6  A    between atoms: CA_19  and  N_26
REMARK                            x       y       z     vdW  Elec       q    Type
REMARK                         _______ _______ _______ _____ _____    ______ ____
ROOT
ATOM      1  O   UNL     1      33.897 -16.902 -24.034  0.00  0.00    -0.277 OA
ATOM      2  N   UNL     1      33.721 -15.206 -22.463  0.00  0.00    -0.298 N 
ATOM      3  C   UNL     1      34.232 -16.407 -22.958  0.00  0.00    +0.206 C 
ATOM      4  H   UNL     1      34.046 -14.881 -21.591  0.00  0.00    +0.150 HD
ENDROOT
BRANCH   2  10
ATOM      5 CL   UNL     1      32.082  -8.997 -20.996  0.00  0.00    -0.085 Cl
ATOM      6  S   UNL     1      32.161 -13.326 -20.602  0.00  0.00    -0.113 S 
ATOM      7  O   UNL     1      34.096 -12.995 -24.832  0.00  0.00    -0.273 OA
ATOM      8  N   UNL     1      32.727 -12.363 -23.020  0.00  0.00    -0.241 N 
ATOM      9  C   UNL     1      31.896 -13.375 -22.391  0.00  0.00    +0.155 C 
ATOM     10  CA  UNL     1      32.729 -14.409 -23.182  0.00  0.00    +0.178 C 
ATOM     11  C   UNL     1      33.333 -13.175 -23.911  0.00  0.00    +0.251 C 
ATOM     12  CA  UNL     1      32.716 -11.053 -22.659  0.00  0.00    +0.138 C 
ATOM     13  C   UNL     1      31.578 -11.600 -20.448  0.00  0.00    +0.098 C 
ATOM     14  C   UNL     1      32.160 -10.665 -21.491  0.00  0.00    +0.066 C 
BRANCH  12  16
ATOM     15  OXT UNL     1      34.575  -9.990 -23.691  0.00  0.00    -0.244 OA
ATOM     16  C   UNL     1      33.373 -10.100 -23.568  0.00  0.00    +0.353 C 
BRANCH  16  17
ATOM     17  O   UNL     1      32.433  -9.389 -24.223  0.00  0.00    -0.476 OA
ATOM     18  H   UNL     1      32.600  -9.078 -25.090  0.00  0.00    +0.295 HD
ENDBRANCH  16  17
ENDBRANCH  12  16
ENDBRANCH   2  10
BRANCH   3  19
ATOM     19  CA  UNL     1      35.236 -17.060 -22.015  0.00  0.00    +0.036 C 
BRANCH  19  20
ATOM     20  C   UNL     1      34.648 -18.299 -21.374  0.00  0.00    -0.034 C 
ATOM     21  C   UNL     1      33.283 -18.364 -21.159  0.00  0.00    -0.006 C 
ATOM     22  C   UNL     1      35.489 -19.339 -21.019  0.00  0.00    -0.006 C 
ATOM     23  C   UNL     1      32.741 -19.506 -20.569  0.00  0.00    -0.000 C 
ATOM     24  C   UNL     1      34.947 -20.481 -20.429  0.00  0.00    -0.000 C 
ATOM     25  C   UNL     1      33.573 -20.565 -20.204  0.00  0.00    -0.000 C 
ENDBRANCH  19  20
BRANCH  19  26
ATOM     26  N   UNL     1      36.449 -17.351 -22.786  0.00  0.00    +0.390 N 
ATOM     27  H1  UNL     1      37.256 -17.347 -22.163  0.00  0.00    -0.088 HD
ATOM     28  H2  UNL     1      36.572 -16.640 -23.506  0.00  0.00    -0.088 HD
ATOM     29  H3  UNL     1      36.361 -18.268 -23.224  0.00  0.00    -0.088 HD
ENDBRANCH  19  26
ENDBRANCH   3  19
TORSDOF 6
ENDMDL
MODEL 8
REMARK VINA RESULT:      -8.0      8.963     10.758
REMARK  Name = 51039
REMARK  6 active torsions:
REMARK  status: ('A' for Active; 'I' for Inactive)
REMARK    1  A    between atoms: N_2  and  CA_10
REMARK    2  A    between atoms: C_3  and  CA_19
REMARK    3  A    between atoms: CA_12  and  C_16
REMARK    4  A    between atoms: C_16  and  O_17
REMARK    5  A    between atoms: CA_19  and  C_20
REMARK    6  A    between atoms: CA_19  and  N_26
REMARK                            x       y       z     vdW  Elec       q    Type
REMARK                         _______ _______ _______ _____ _____    ______ ____
ROOT
ATOM      1  O   UNL     1      32.208 -23.143 -16.206  0.00  0.00    -0.277 OA
ATOM      2  N   UNL     1      33.258 -23.306 -14.145  0.00  0.00    -0.298 N 
ATOM      3  C   UNL     1      32.154 -23.366 -14.997  0.00  0.00    +0.206 C 
ATOM      4  H   UNL     1      33.125 -23.500 -13.189  0.00  0.00    +0.150 HD
ENDROOT
BRANCH   2  10
ATOM      5 CL   UNL     1      38.777 -26.384 -12.285  0.00  0.00    -0.085 Cl
ATOM      6  S   UNL     1      35.382 -23.688 -11.960  0.00  0.00    -0.113 S 
ATOM      7  O   UNL     1      35.067 -24.626 -16.517  0.00  0.00    -0.273 OA
ATOM      8  N   UNL     1      36.130 -24.329 -14.434  0.00  0.00    -0.241 N 
ATOM      9  C   UNL     1      35.790 -23.160 -13.642  0.00  0.00    +0.155 C 
ATOM     10  CA  UNL     1      34.603 -22.970 -14.611  0.00  0.00    +0.178 C 
ATOM     11  C   UNL     1      35.270 -24.099 -15.448  0.00  0.00    +0.251 C 
ATOM     12  CA  UNL     1      37.075 -25.235 -14.069  0.00  0.00    +0.138 C 
ATOM     13  C   UNL     1      37.036 -24.407 -11.661  0.00  0.00    +0.098 C 
ATOM     14  C   UNL     1      37.539 -25.272 -12.801  0.00  0.00    +0.066 C 
BRANCH  12  16
ATOM     15  OXT UNL     1      36.879 -27.148 -15.466  0.00  0.00    -0.244 OA
ATOM     16  C   UNL     1      37.524 -26.189 -15.095  0.00  0.00    +0.353 C 
BRANCH  16  17
ATOM     17  O   UNL     1      38.742 -25.824 -15.540  0.00  0.00    -0.476 OA
ATOM     18  H   UNL     1      39.482 -25.865 -14.968  0.00  0.00    +0.295 HD
ENDBRANCH  16  17
ENDBRANCH  12  16
ENDBRANCH   2  10
BRANCH   3  19
ATOM     19  CA  UNL     1      30.860 -23.715 -14.270  0.00  0.00    +0.036 C 
BRANCH  19  20
ATOM     20  C   UNL     1      29.659 -23.481 -15.161  0.00  0.00    -0.034 C 
ATOM     21  C   UNL     1      29.277 -24.469 -16.052  0.00  0.00    -0.006 C 
ATOM     22  C   UNL     1      28.970 -22.285 -15.066  0.00  0.00    -0.006 C 
ATOM     23  C   UNL     1      28.171 -24.253 -16.874  0.00  0.00    -0.000 C 
ATOM     24  C   UNL     1      27.864 -22.069 -15.887  0.00  0.00    -0.000 C 
ATOM     25  C   UNL     1      27.464 -23.053 -16.791  0.00  0.00    -0.000 C 
ENDBRANCH  19  20
BRANCH  19  26
ATOM     26  N   UNL     1      30.961 -25.108 -13.823  0.00  0.00    +0.390 N 
ATOM     27  H1  UNL     1      30.165 -25.637 -14.179  0.00  0.00    -0.088 HD
ATOM     28  H2  UNL     1      30.961 -25.139 -12.804  0.00  0.00    -0.088 HD
ATOM     29  H3  UNL     1      31.826 -25.517 -14.176  0.00  0.00    -0.088 HD
ENDBRANCH  19  26
ENDBRANCH   3  19
TORSDOF 6
ENDMDL
MODEL 9
REMARK VINA RESULT:      -8.0      5.451      8.189
REMARK  Name = 51039
REMARK  6 active torsions:
REMARK  status: ('A' for Active; 'I' for Inactive)
REMARK    1  A    between atoms: N_2  and  CA_10
REMARK    2  A    between atoms: C_3  and  CA_19
REMARK    3  A    between atoms: CA_12  and  C_16
REMARK    4  A    between atoms: C_16  and  O_17
REMARK    5  A    between atoms: CA_19  and  C_20
REMARK    6  A    between atoms: CA_19  and  N_26
REMARK                            x       y       z     vdW  Elec       q    Type
REMARK                         _______ _______ _______ _____ _____    ______ ____
ROOT
ATOM      1  O   UNL     1      32.235 -14.123 -23.833  0.00  0.00    -0.277 OA
ATOM      2  N   UNL     1      33.946 -12.600 -23.471  0.00  0.00    -0.298 N 
ATOM      3  C   UNL     1      33.268 -13.800 -23.248  0.00  0.00    +0.206 C 
ATOM      4  H   UNL     1      34.768 -12.422 -22.958  0.00  0.00    +0.150 HD
ENDROOT
BRANCH   2  10
ATOM      5 CL   UNL     1      32.315  -6.394 -21.985  0.00  0.00    -0.085 Cl
ATOM      6  S   UNL     1      31.842 -10.705 -22.284  0.00  0.00    -0.113 S 
ATOM      7  O   UNL     1      35.594 -10.245 -25.015  0.00  0.00    -0.273 OA
ATOM      8  N   UNL     1      33.579  -9.602 -23.975  0.00  0.00    -0.241 N 
ATOM      9  C   UNL     1      32.468 -10.539 -23.973  0.00  0.00    +0.155 C 
ATOM     10  CA  UNL     1      33.491 -11.600 -24.436  0.00  0.00    +0.178 C 
ATOM     11  C   UNL     1      34.470 -10.401 -24.596  0.00  0.00    +0.251 C 
ATOM     12  CA  UNL     1      33.502  -8.346 -23.461  0.00  0.00    +0.138 C 
ATOM     13  C   UNL     1      31.400  -8.936 -22.151  0.00  0.00    +0.098 C 
ATOM     14  C   UNL     1      32.486  -7.998 -22.642  0.00  0.00    +0.066 C 
BRANCH  12  16
ATOM     15  OXT UNL     1      34.552  -6.622 -24.715  0.00  0.00    -0.244 OA
ATOM     16  C   UNL     1      34.590  -7.415 -23.798  0.00  0.00    +0.353 C 
BRANCH  16  17
ATOM     17  O   UNL     1      35.610  -7.590 -22.934  0.00  0.00    -0.476 OA
ATOM     18  H   UNL     1      35.887  -6.883 -22.386  0.00  0.00    +0.295 HD
ENDBRANCH  16  17
ENDBRANCH  12  16
ENDBRANCH   2  10
BRANCH   3  19
ATOM     19  CA  UNL     1      33.928 -14.666 -22.180  0.00  0.00    +0.036 C 
BRANCH  19  20
ATOM     20  C   UNL     1      34.378 -15.989 -22.761  0.00  0.00    -0.034 C 
ATOM     21  C   UNL     1      34.477 -16.125 -24.135  0.00  0.00    -0.006 C 
ATOM     22  C   UNL     1      34.679 -17.035 -21.906  0.00  0.00    -0.006 C 
ATOM     23  C   UNL     1      34.892 -17.344 -24.669  0.00  0.00    -0.000 C 
ATOM     24  C   UNL     1      35.094 -18.254 -22.440  0.00  0.00    -0.000 C 
ATOM     25  C   UNL     1      35.200 -18.409 -23.823  0.00  0.00    -0.000 C 
ENDBRANCH  19  20
BRANCH  19  26
ATOM     26  N   UNL     1      35.040 -13.900 -21.609  0.00  0.00    +0.390 N 
ATOM     27  H1  UNL     1      35.893 -14.096 -22.133  0.00  0.00    -0.088 HD
ATOM     28  H2  UNL     1      35.172 -14.168 -20.633  0.00  0.00    -0.088 HD
ATOM     29  H3  UNL     1      34.830 -12.903 -21.663  0.00  0.00    -0.088 HD
ENDBRANCH  19  26
ENDBRANCH   3  19
TORSDOF 6
ENDMDL
