MODEL 1
REMARK VINA RESULT:      -9.8      0.000      0.000
REMARK  Name = 3357
REMARK  5 active torsions:
REMARK  status: ('A' for Active; 'I' for Inactive)
REMARK    1  A    between atoms: N_4  and  C_26
REMARK    2  A    between atoms: C_5  and  N_14
REMARK    3  A    between atoms: C_13  and  C_23
REMARK    4  A    between atoms: C_23  and  O_24
REMARK    5  A    between atoms: C_26  and  C_28
REMARK                            x       y       z     vdW  Elec       q    Type
REMARK                         _______ _______ _______ _____ _____    ______ ____
ROOT
ATOM      1  F   UNL     1      34.629 -16.532 -20.796  0.00  0.00    -0.201 F 
ATOM      2  F   UNL     1      34.957 -19.860 -24.118  0.00  0.00    -0.203 F 
ATOM      3  O   UNL     1      33.836 -15.680 -26.670  0.00  0.00    -0.286 OA
ATOM      4  N   UNL     1      34.013 -14.523 -22.764  0.00  0.00    -0.281 N 
ATOM      5  C   UNL     1      34.792 -18.185 -22.446  0.00  0.00    +0.105 C 
ATOM      6  C   UNL     1      34.257 -15.882 -23.071  0.00  0.00    +0.084 C 
ATOM      7  C   UNL     1      34.557 -16.852 -22.097  0.00  0.00    +0.169 C 
ATOM      8  C   UNL     1      34.733 -18.583 -23.777  0.00  0.00    +0.156 C 
ATOM      9  C   UNL     1      34.203 -16.314 -24.416  0.00  0.00    +0.057 C 
ATOM     10  C   UNL     1      34.438 -17.651 -24.766  0.00  0.00    +0.035 C 
ATOM     11  C   UNL     1      33.890 -15.339 -25.495  0.00  0.00    +0.204 C 
ATOM     12  C   UNL     1      33.722 -13.637 -23.785  0.00  0.00    +0.075 C 
ATOM     13  C   UNL     1      33.645 -13.934 -25.088  0.00  0.00    +0.129 C 
ENDROOT
BRANCH   5  14
ATOM     14  N   UNL     1      35.087 -19.125 -21.452  0.00  0.00    -0.308 N 
ATOM     15  N   UNL     1      35.697 -20.847 -19.255  0.00  0.00    +0.388 N 
ATOM     16  C   UNL     1      36.408 -19.065 -20.814  0.00  0.00    +0.068 C 
ATOM     17  C   UNL     1      34.006 -19.670 -20.623  0.00  0.00    +0.068 C 
ATOM     18  C   UNL     1      36.756 -20.410 -20.173  0.00  0.00    -0.056 C 
ATOM     19  C   UNL     1      34.433 -20.995 -19.987  0.00  0.00    -0.056 C 
ATOM     20  C   UNL     1      36.066 -22.104 -18.608  0.00  0.00    -0.101 C 
ATOM     21  H   UNL     1      35.577 -20.139 -18.530  0.00  0.00    -0.080 HD
ENDBRANCH   5  14
BRANCH  13  23
ATOM     22  O   UNL     1      33.717 -11.713 -25.931  0.00  0.00    -0.245 OA
ATOM     23  C   UNL     1      33.324 -12.862 -26.031  0.00  0.00    +0.342 C 
BRANCH  23  24
ATOM     24  O   UNL     1      32.534 -13.343 -27.013  0.00  0.00    -0.477 OA
ATOM     25  H   UNL     1      31.608 -13.412 -26.880  0.00  0.00    +0.295 HD
ENDBRANCH  23  24
ENDBRANCH  13  23
BRANCH   4  26
ATOM     26  C   UNL     1      34.068 -14.068 -21.375  0.00  0.00    +0.134 C 
BRANCH  26  28
ATOM     27  F   UNL     1      32.448 -14.852 -19.876  0.00  0.00    -0.232 F 
ATOM     28  C   UNL     1      32.665 -13.904 -20.826  0.00  0.00    +0.215 C 
ENDBRANCH  26  28
ENDBRANCH   4  26
TORSDOF 5
ENDMDL
MODEL 2
REMARK VINA RESULT:      -9.2      4.660      6.958
REMARK  Name = 3357
REMARK  5 active torsions:
REMARK  status: ('A' for Active; 'I' for Inactive)
REMARK    1  A    between atoms: N_4  and  C_26
REMARK    2  A    between atoms: C_5  and  N_14
REMARK    3  A    between atoms: C_13  and  C_23
REMARK    4  A    between atoms: C_23  and  O_24
REMARK    5  A    between atoms: C_26  and  C_28
REMARK                            x       y       z     vdW  Elec       q    Type
REMARK                         _______ _______ _______ _____ _____    ______ ____
ROOT
ATOM      1  F   UNL     1      32.074 -12.578 -22.337  0.00  0.00    -0.201 F 
ATOM      2  F   UNL     1      35.188 -11.506 -25.709  0.00  0.00    -0.203 F 
ATOM      3  O   UNL     1      33.836  -7.050 -23.823  0.00  0.00    -0.286 OA
ATOM      4  N   UNL     1      31.706  -9.796 -21.689  0.00  0.00    -0.281 N 
ATOM      5  C   UNL     1      33.621 -12.046 -24.011  0.00  0.00    +0.105 C 
ATOM      6  C   UNL     1      32.579 -10.264 -22.699  0.00  0.00    +0.084 C 
ATOM      7  C   UNL     1      32.747 -11.627 -23.003  0.00  0.00    +0.169 C 
ATOM      8  C   UNL     1      34.349 -11.112 -24.741  0.00  0.00    +0.156 C 
ATOM      9  C   UNL     1      33.331  -9.336 -23.456  0.00  0.00    +0.057 C 
ATOM     10  C   UNL     1      34.206  -9.756 -24.467  0.00  0.00    +0.035 C 
ATOM     11  C   UNL     1      33.198  -7.880 -23.186  0.00  0.00    +0.204 C 
ATOM     12  C   UNL     1      31.601  -8.437 -21.458  0.00  0.00    +0.075 C 
ATOM     13  C   UNL     1      32.261  -7.473 -22.111  0.00  0.00    +0.129 C 
ENDROOT
BRANCH   5  14
ATOM     14  N   UNL     1      33.763 -13.409 -24.289  0.00  0.00    -0.308 N 
ATOM     15  N   UNL     1      33.867 -16.237 -24.685  0.00  0.00    +0.388 N 
ATOM     16  C   UNL     1      34.254 -14.285 -23.218  0.00  0.00    +0.068 C 
ATOM     17  C   UNL     1      32.886 -14.046 -25.278  0.00  0.00    +0.068 C 
ATOM     18  C   UNL     1      34.835 -15.574 -23.802  0.00  0.00    -0.056 C 
ATOM     19  C   UNL     1      33.511 -15.344 -25.794  0.00  0.00    -0.056 C 
ATOM     20  C   UNL     1      34.413 -17.494 -25.193  0.00  0.00    -0.101 C 
ATOM     21  H   UNL     1      33.026 -16.450 -24.150  0.00  0.00    -0.080 HD
ENDBRANCH   5  14
BRANCH  13  23
ATOM     22  O   UNL     1      31.576  -5.226 -22.476  0.00  0.00    -0.245 OA
ATOM     23  C   UNL     1      32.021  -6.081 -21.729  0.00  0.00    +0.342 C 
BRANCH  23  24
ATOM     24  O   UNL     1      32.367  -5.898 -20.438  0.00  0.00    -0.477 OA
ATOM     25  H   UNL     1      33.266  -5.769 -20.207  0.00  0.00    +0.295 HD
ENDBRANCH  23  24
ENDBRANCH  13  23
BRANCH   4  26
ATOM     26  C   UNL     1      30.926 -10.749 -20.900  0.00  0.00    +0.134 C 
BRANCH  26  28
ATOM     27  F   UNL     1      31.930 -12.221 -19.378  0.00  0.00    -0.232 F 
ATOM     28  C   UNL     1      31.551 -10.924 -19.530  0.00  0.00    +0.215 C 
ENDBRANCH  26  28
ENDBRANCH   4  26
TORSDOF 5
ENDMDL
MODEL 3
REMARK VINA RESULT:      -8.8      3.659      5.631
REMARK  Name = 3357
REMARK  5 active torsions:
REMARK  status: ('A' for Active; 'I' for Inactive)
REMARK    1  A    between atoms: N_4  and  C_26
REMARK    2  A    between atoms: C_5  and  N_14
REMARK    3  A    between atoms: C_13  and  C_23
REMARK    4  A    between atoms: C_23  and  O_24
REMARK    5  A    between atoms: C_26  and  C_28
REMARK                            x       y       z     vdW  Elec       q    Type
REMARK                         _______ _______ _______ _____ _____    ______ ____
ROOT
ATOM      1  F   UNL     1      34.377 -13.604 -24.736  0.00  0.00    -0.201 F 
ATOM      2  F   UNL     1      32.227 -15.503 -20.996  0.00  0.00    -0.203 F 
ATOM      3  O   UNL     1      31.018 -10.631 -20.769  0.00  0.00    -0.286 OA
ATOM      4  N   UNL     1      33.365 -10.989 -24.085  0.00  0.00    -0.281 N 
ATOM      5  C   UNL     1      33.309 -14.547 -22.879  0.00  0.00    +0.105 C 
ATOM      6  C   UNL     1      33.097 -12.152 -23.326  0.00  0.00    +0.084 C 
ATOM      7  C   UNL     1      33.600 -13.423 -23.658  0.00  0.00    +0.169 C 
ATOM      8  C   UNL     1      32.509 -14.429 -21.747  0.00  0.00    +0.156 C 
ATOM      9  C   UNL     1      32.286 -12.060 -22.171  0.00  0.00    +0.057 C 
ATOM     10  C   UNL     1      31.996 -13.187 -21.390  0.00  0.00    +0.035 C 
ATOM     11  C   UNL     1      31.724 -10.745 -21.763  0.00  0.00    +0.204 C 
ATOM     12  C   UNL     1      32.831  -9.778 -23.683  0.00  0.00    +0.075 C 
ATOM     13  C   UNL     1      32.055  -9.575 -22.612  0.00  0.00    +0.129 C 
ENDROOT
BRANCH   5  14
ATOM     14  N   UNL     1      33.826 -15.797 -23.237  0.00  0.00    -0.308 N 
ATOM     15  N   UNL     1      35.087 -18.224 -24.064  0.00  0.00    +0.388 N 
ATOM     16  C   UNL     1      33.975 -16.099 -24.666  0.00  0.00    +0.068 C 
ATOM     17  C   UNL     1      34.769 -16.477 -22.343  0.00  0.00    +0.068 C 
ATOM     18  C   UNL     1      34.039 -17.611 -24.890  0.00  0.00    -0.056 C 
ATOM     19  C   UNL     1      34.809 -17.977 -22.644  0.00  0.00    -0.056 C 
ATOM     20  C   UNL     1      35.175 -19.659 -24.328  0.00  0.00    -0.101 C 
ATOM     21  H   UNL     1      35.984 -17.801 -24.303  0.00  0.00    -0.080 HD
ENDBRANCH   5  14
BRANCH  13  23
ATOM     22  O   UNL     1      30.934  -7.542 -23.123  0.00  0.00    -0.245 OA
ATOM     23  C   UNL     1      31.580  -8.217 -22.341  0.00  0.00    +0.342 C 
BRANCH  23  24
ATOM     24  O   UNL     1      31.966  -7.840 -21.105  0.00  0.00    -0.477 OA
ATOM     25  H   UNL     1      32.597  -7.154 -21.000  0.00  0.00    +0.295 HD
ENDBRANCH  23  24
ENDBRANCH  13  23
BRANCH   4  26
ATOM     26  C   UNL     1      34.201 -11.075 -25.282  0.00  0.00    +0.134 C 
BRANCH  26  28
ATOM     27  F   UNL     1      36.089 -10.161 -26.325  0.00  0.00    -0.232 F 
ATOM     28  C   UNL     1      35.327 -10.064 -25.203  0.00  0.00    +0.215 C 
ENDBRANCH  26  28
ENDBRANCH   4  26
TORSDOF 5
ENDMDL
MODEL 4
REMARK VINA RESULT:      -8.8      8.002     11.021
REMARK  Name = 3357
REMARK  5 active torsions:
REMARK  status: ('A' for Active; 'I' for Inactive)
REMARK    1  A    between atoms: N_4  and  C_26
REMARK    2  A    between atoms: C_5  and  N_14
REMARK    3  A    between atoms: C_13  and  C_23
REMARK    4  A    between atoms: C_23  and  O_24
REMARK    5  A    between atoms: C_26  and  C_28
REMARK                            x       y       z     vdW  Elec       q    Type
REMARK                         _______ _______ _______ _____ _____    ______ ____
ROOT
ATOM      1  F   UNL     1      35.338 -23.757 -16.756  0.00  0.00    -0.201 F 
ATOM      2  F   UNL     1      34.652 -24.925 -12.241  0.00  0.00    -0.203 F 
ATOM      3  O   UNL     1      30.131 -23.404 -13.819  0.00  0.00    -0.286 OA
ATOM      4  N   UNL     1      32.571 -23.021 -17.063  0.00  0.00    -0.281 N 
ATOM      5  C   UNL     1      34.997 -24.338 -14.513  0.00  0.00    +0.105 C 
ATOM      6  C   UNL     1      33.131 -23.506 -15.858  0.00  0.00    +0.084 C 
ATOM      7  C   UNL     1      34.486 -23.862 -15.725  0.00  0.00    +0.169 C 
ATOM      8  C   UNL     1      34.167 -24.470 -13.405  0.00  0.00    +0.156 C 
ATOM      9  C   UNL     1      32.310 -23.650 -14.716  0.00  0.00    +0.057 C 
ATOM     10  C   UNL     1      32.823 -24.126 -13.502  0.00  0.00    +0.035 C 
ATOM     11  C   UNL     1      30.869 -23.290 -14.789  0.00  0.00    +0.204 C 
ATOM     12  C   UNL     1      31.229 -22.692 -17.105  0.00  0.00    +0.075 C 
ATOM     13  C   UNL     1      30.362 -22.787 -16.089  0.00  0.00    +0.129 C 
ENDROOT
BRANCH   5  14
ATOM     14  N   UNL     1      36.350 -24.681 -14.414  0.00  0.00    -0.308 N 
ATOM     15  N   UNL     1      39.129 -25.341 -14.466  0.00  0.00    +0.388 N 
ATOM     16  C   UNL     1      36.805 -25.897 -15.100  0.00  0.00    +0.068 C 
ATOM     17  C   UNL     1      37.358 -23.629 -14.252  0.00  0.00    +0.068 C 
ATOM     18  C   UNL     1      38.113 -26.401 -14.486  0.00  0.00    -0.056 C 
ATOM     19  C   UNL     1      38.649 -24.206 -13.668  0.00  0.00    -0.056 C 
ATOM     20  C   UNL     1      40.390 -25.849 -13.929  0.00  0.00    -0.101 C 
ATOM     21  H   UNL     1      39.295 -25.025 -15.421  0.00  0.00    -0.080 HD
ENDBRANCH   5  14
BRANCH  13  23
ATOM     22  O   UNL     1      28.362 -22.577 -17.357  0.00  0.00    -0.245 OA
ATOM     23  C   UNL     1      28.972 -22.391 -16.318  0.00  0.00    +0.342 C 
BRANCH  23  24
ATOM     24  O   UNL     1      28.481 -21.797 -15.211  0.00  0.00    -0.477 OA
ATOM     25  H   UNL     1      27.909 -21.058 -15.290  0.00  0.00    +0.295 HD
ENDBRANCH  23  24
ENDBRANCH  13  23
BRANCH   4  26
ATOM     26  C   UNL     1      33.413 -22.870 -18.250  0.00  0.00    +0.134 C 
BRANCH  26  28
ATOM     27  F   UNL     1      34.163 -21.001 -19.447  0.00  0.00    -0.232 F 
ATOM     28  C   UNL     1      33.032 -21.610 -19.001  0.00  0.00    +0.215 C 
ENDBRANCH  26  28
ENDBRANCH   4  26
TORSDOF 5
ENDMDL
MODEL 5
REMARK VINA RESULT:      -8.4      9.443     12.150
REMARK  Name = 3357
REMARK  5 active torsions:
REMARK  status: ('A' for Active; 'I' for Inactive)
REMARK    1  A    between atoms: N_4  and  C_26
REMARK    2  A    between atoms: C_5  and  N_14
REMARK    3  A    between atoms: C_13  and  C_23
REMARK    4  A    between atoms: C_23  and  O_24
REMARK    5  A    between atoms: C_26  and  C_28
REMARK                            x       y       z     vdW  Elec       q    Type
REMARK                         _______ _______ _______ _____ _____    ______ ____
ROOT
ATOM      1  F   UNL     1      32.971 -22.678 -16.771  0.00  0.00    -0.201 F 
ATOM      2  F   UNL     1      31.365 -25.054 -13.030  0.00  0.00    -0.203 F 
ATOM      3  O   UNL     1      36.363 -25.409 -12.660  0.00  0.00    -0.286 OA
ATOM      4  N   UNL     1      35.702 -23.216 -16.034  0.00  0.00    -0.281 N 
ATOM      5  C   UNL     1      32.173 -23.857 -14.913  0.00  0.00    +0.105 C 
ATOM      6  C   UNL     1      34.580 -23.665 -15.298  0.00  0.00    +0.084 C 
ATOM      7  C   UNL     1      33.252 -23.393 -15.671  0.00  0.00    +0.169 C 
ATOM      8  C   UNL     1      32.395 -24.605 -13.761  0.00  0.00    +0.156 C 
ATOM      9  C   UNL     1      34.778 -24.427 -14.123  0.00  0.00    +0.057 C 
ATOM     10  C   UNL     1      33.696 -24.893 -13.363  0.00  0.00    +0.035 C 
ATOM     11  C   UNL     1      36.157 -24.751 -13.673  0.00  0.00    +0.204 C 
ATOM     12  C   UNL     1      36.974 -23.531 -15.595  0.00  0.00    +0.075 C 
ATOM     13  C   UNL     1      37.277 -24.244 -14.503  0.00  0.00    +0.129 C 
ENDROOT
BRANCH   5  14
ATOM     14  N   UNL     1      30.864 -23.570 -15.314  0.00  0.00    -0.308 N 
ATOM     15  N   UNL     1      28.111 -23.158 -15.958  0.00  0.00    +0.388 N 
ATOM     16  C   UNL     1      30.095 -24.633 -15.973  0.00  0.00    +0.068 C 
ATOM     17  C   UNL     1      30.074 -22.585 -14.568  0.00  0.00    +0.068 C 
ATOM     18  C   UNL     1      28.945 -24.037 -16.788  0.00  0.00    -0.056 C 
ATOM     19  C   UNL     1      28.923 -22.057 -15.426  0.00  0.00    -0.056 C 
ATOM     20  C   UNL     1      26.985 -22.638 -16.732  0.00  0.00    -0.101 C 
ATOM     21  H   UNL     1      27.737 -23.698 -15.178  0.00  0.00    -0.080 HD
ENDBRANCH   5  14
BRANCH  13  23
ATOM     22  O   UNL     1      39.537 -24.776 -15.016  0.00  0.00    -0.245 OA
ATOM     23  C   UNL     1      38.688 -24.480 -14.193  0.00  0.00    +0.342 C 
BRANCH  23  24
ATOM     24  O   UNL     1      38.894 -24.322 -12.869  0.00  0.00    -0.477 OA
ATOM     25  H   UNL     1      39.088 -23.472 -12.523  0.00  0.00    +0.295 HD
ENDBRANCH  23  24
ENDBRANCH  13  23
BRANCH   4  26
ATOM     26  C   UNL     1      35.507 -22.425 -17.249  0.00  0.00    +0.134 C 
BRANCH  26  28
ATOM     27  F   UNL     1      36.775 -21.461 -18.967  0.00  0.00    -0.232 F 
ATOM     28  C   UNL     1      36.802 -21.740 -17.637  0.00  0.00    +0.215 C 
ENDBRANCH  26  28
ENDBRANCH   4  26
TORSDOF 5
ENDMDL
MODEL 6
REMARK VINA RESULT:      -8.3      4.903      9.111
REMARK  Name = 3357
REMARK  5 active torsions:
REMARK  status: ('A' for Active; 'I' for Inactive)
REMARK    1  A    between atoms: N_4  and  C_26
REMARK    2  A    between atoms: C_5  and  N_14
REMARK    3  A    between atoms: C_13  and  C_23
REMARK    4  A    between atoms: C_23  and  O_24
REMARK    5  A    between atoms: C_26  and  C_28
REMARK                            x       y       z     vdW  Elec       q    Type
REMARK                         _______ _______ _______ _____ _____    ______ ____
ROOT
ATOM      1  F   UNL     1      33.154  -9.983 -24.255  0.00  0.00    -0.201 F 
ATOM      2  F   UNL     1      30.847 -10.427 -20.168  0.00  0.00    -0.203 F 
ATOM      3  O   UNL     1      32.442 -15.080 -21.192  0.00  0.00    -0.286 OA
ATOM      4  N   UNL     1      33.777 -12.794 -24.294  0.00  0.00    -0.281 N 
ATOM      5  C   UNL     1      32.008 -10.203 -22.225  0.00  0.00    +0.105 C 
ATOM      6  C   UNL     1      33.039 -12.161 -23.266  0.00  0.00    +0.084 C 
ATOM      7  C   UNL     1      32.742 -10.786 -23.262  0.00  0.00    +0.169 C 
ATOM      8  C   UNL     1      31.551 -10.980 -21.165  0.00  0.00    +0.156 C 
ATOM      9  C   UNL     1      32.562 -12.928 -22.177  0.00  0.00    +0.057 C 
ATOM     10  C   UNL     1      31.826 -12.343 -21.138  0.00  0.00    +0.035 C 
ATOM     11  C   UNL     1      32.840 -14.388 -22.121  0.00  0.00    +0.204 C 
ATOM     12  C   UNL     1      34.021 -14.153 -24.218  0.00  0.00    +0.075 C 
ATOM     13  C   UNL     1      33.620 -14.972 -23.240  0.00  0.00    +0.129 C 
ENDROOT
BRANCH   5  14
ATOM     14  N   UNL     1      31.730  -8.833 -22.252  0.00  0.00    -0.308 N 
ATOM     15  N   UNL     1      31.395  -6.000 -22.411  0.00  0.00    +0.388 N 
ATOM     16  C   UNL     1      32.531  -7.947 -21.398  0.00  0.00    +0.068 C 
ATOM     17  C   UNL     1      31.198  -8.223 -23.475  0.00  0.00    +0.068 C 
ATOM     18  C   UNL     1      31.793  -6.631 -21.146  0.00  0.00    -0.056 C 
ATOM     19  C   UNL     1      30.504  -6.896 -23.157  0.00  0.00    -0.056 C 
ATOM     20  C   UNL     1      30.740  -4.717 -22.159  0.00  0.00    -0.101 C 
ATOM     21  H   UNL     1      32.231  -5.825 -22.969  0.00  0.00    -0.080 HD
ENDBRANCH   5  14
BRANCH  13  23
ATOM     22  O   UNL     1      33.988 -17.035 -24.362  0.00  0.00    -0.245 OA
ATOM     23  C   UNL     1      33.971 -16.390 -23.328  0.00  0.00    +0.342 C 
BRANCH  23  24
ATOM     24  O   UNL     1      34.267 -16.862 -22.099  0.00  0.00    -0.477 OA
ATOM     25  H   UNL     1      34.895 -16.416 -21.564  0.00  0.00    +0.295 HD
ENDBRANCH  23  24
ENDBRANCH  13  23
BRANCH   4  26
ATOM     26  C   UNL     1      34.275 -12.008 -25.423  0.00  0.00    +0.134 C 
BRANCH  26  28
ATOM     27  F   UNL     1      34.446 -12.718 -27.649  0.00  0.00    -0.232 F 
ATOM     28  C   UNL     1      33.538 -12.394 -26.690  0.00  0.00    +0.215 C 
ENDBRANCH  26  28
ENDBRANCH   4  26
TORSDOF 5
ENDMDL
MODEL 7
REMARK VINA RESULT:      -8.1      3.655      5.580
REMARK  Name = 3357
REMARK  5 active torsions:
REMARK  status: ('A' for Active; 'I' for Inactive)
REMARK    1  A    between atoms: N_4  and  C_26
REMARK    2  A    between atoms: C_5  and  N_14
REMARK    3  A    between atoms: C_13  and  C_23
REMARK    4  A    between atoms: C_23  and  O_24
REMARK    5  A    between atoms: C_26  and  C_28
REMARK                            x       y       z     vdW  Elec       q    Type
REMARK                         _______ _______ _______ _____ _____    ______ ____
ROOT
ATOM      1  F   UNL     1      34.455 -13.591 -24.292  0.00  0.00    -0.201 F 
ATOM      2  F   UNL     1      32.368 -14.920 -20.280  0.00  0.00    -0.203 F 
ATOM      3  O   UNL     1      30.958 -10.134 -20.874  0.00  0.00    -0.286 OA
ATOM      4  N   UNL     1      33.332 -10.948 -24.088  0.00  0.00    -0.281 N 
ATOM      5  C   UNL     1      33.418 -14.251 -22.300  0.00  0.00    +0.105 C 
ATOM      6  C   UNL     1      33.109 -11.977 -23.144  0.00  0.00    +0.084 C 
ATOM      7  C   UNL     1      33.665 -13.264 -23.258  0.00  0.00    +0.169 C 
ATOM      8  C   UNL     1      32.609 -13.977 -21.202  0.00  0.00    +0.156 C 
ATOM      9  C   UNL     1      32.291 -11.725 -22.018  0.00  0.00    +0.057 C 
ATOM     10  C   UNL     1      32.043 -12.715 -21.057  0.00  0.00    +0.035 C 
ATOM     11  C   UNL     1      31.673 -10.385 -21.836  0.00  0.00    +0.204 C 
ATOM     12  C   UNL     1      32.747  -9.710 -23.895  0.00  0.00    +0.075 C 
ATOM     13  C   UNL     1      31.959  -9.361 -22.872  0.00  0.00    +0.129 C 
ENDROOT
BRANCH   5  14
ATOM     14  N   UNL     1      33.988 -15.521 -22.443  0.00  0.00    -0.308 N 
ATOM     15  N   UNL     1      34.920 -18.211 -22.678  0.00  0.00    +0.388 N 
ATOM     16  C   UNL     1      34.086 -16.373 -21.251  0.00  0.00    +0.068 C 
ATOM     17  C   UNL     1      33.873 -16.229 -23.722  0.00  0.00    +0.068 C 
ATOM     18  C   UNL     1      35.157 -17.448 -21.447  0.00  0.00    -0.056 C 
ATOM     19  C   UNL     1      34.950 -17.310 -23.837  0.00  0.00    -0.056 C 
ATOM     20  C   UNL     1      35.918 -19.270 -22.825  0.00  0.00    -0.101 C 
ATOM     21  H   UNL     1      34.000 -18.647 -22.623  0.00  0.00    -0.080 HD
ENDBRANCH   5  14
BRANCH  13  23
ATOM     22  O   UNL     1      30.754  -7.493 -23.713  0.00  0.00    -0.245 OA
ATOM     23  C   UNL     1      31.427  -7.998 -22.832  0.00  0.00    +0.342 C 
BRANCH  23  24
ATOM     24  O   UNL     1      31.795  -7.401 -21.680  0.00  0.00    -0.477 OA
ATOM     25  H   UNL     1      31.146  -7.156 -21.050  0.00  0.00    +0.295 HD
ENDBRANCH  23  24
ENDBRANCH  13  23
BRANCH   4  26
ATOM     26  C   UNL     1      34.176 -11.200 -25.256  0.00  0.00    +0.134 C 
BRANCH  26  28
ATOM     27  F   UNL     1      35.815 -10.143 -26.555  0.00  0.00    -0.232 F 
ATOM     28  C   UNL     1      35.327 -10.214 -25.288  0.00  0.00    +0.215 C 
ENDBRANCH  26  28
ENDBRANCH   4  26
TORSDOF 5
ENDMDL
MODEL 8
REMARK VINA RESULT:      -8.0      3.308      7.350
REMARK  Name = 3357
REMARK  5 active torsions:
REMARK  status: ('A' for Active; 'I' for Inactive)
REMARK    1  A    between atoms: N_4  and  C_26
REMARK    2  A    between atoms: C_5  and  N_14
REMARK    3  A    between atoms: C_13  and  C_23
REMARK    4  A    between atoms: C_23  and  O_24
REMARK    5  A    between atoms: C_26  and  C_28
REMARK                            x       y       z     vdW  Elec       q    Type
REMARK                         _______ _______ _______ _____ _____    ______ ____
ROOT
ATOM      1  F   UNL     1      33.754 -12.949 -21.729  0.00  0.00    -0.201 F 
ATOM      2  F   UNL     1      33.283 -12.249 -26.367  0.00  0.00    -0.203 F 
ATOM      3  O   UNL     1      34.264 -17.160 -25.957  0.00  0.00    -0.286 OA
ATOM      4  N   UNL     1      34.268 -15.754 -22.129  0.00  0.00    -0.281 N 
ATOM      5  C   UNL     1      33.520 -12.601 -24.033  0.00  0.00    +0.105 C 
ATOM      6  C   UNL     1      34.014 -14.839 -23.178  0.00  0.00    +0.084 C 
ATOM      7  C   UNL     1      33.765 -13.471 -22.965  0.00  0.00    +0.169 C 
ATOM      8  C   UNL     1      33.518 -13.077 -25.340  0.00  0.00    +0.156 C 
ATOM      9  C   UNL     1      34.007 -15.296 -24.516  0.00  0.00    +0.057 C 
ATOM     10  C   UNL     1      33.761 -14.424 -25.586  0.00  0.00    +0.035 C 
ATOM     11  C   UNL     1      34.265 -16.731 -24.810  0.00  0.00    +0.204 C 
ATOM     12  C   UNL     1      34.505 -17.082 -22.430  0.00  0.00    +0.075 C 
ATOM     13  C   UNL     1      34.523 -17.623 -23.653  0.00  0.00    +0.129 C 
ENDROOT
BRANCH   5  14
ATOM     14  N   UNL     1      33.277 -11.246 -23.786  0.00  0.00    -0.308 N 
ATOM     15  N   UNL     1      32.868  -8.517 -23.044  0.00  0.00    +0.388 N 
ATOM     16  C   UNL     1      32.240 -10.897 -22.807  0.00  0.00    +0.068 C 
ATOM     17  C   UNL     1      34.365 -10.273 -23.932  0.00  0.00    +0.068 C 
ATOM     18  C   UNL     1      31.747  -9.466 -23.034  0.00  0.00    -0.056 C 
ATOM     19  C   UNL     1      33.803  -8.862 -24.121  0.00  0.00    -0.056 C 
ATOM     20  C   UNL     1      32.380  -7.149 -23.206  0.00  0.00    -0.101 C 
ATOM     21  H   UNL     1      33.357  -8.576 -22.151  0.00  0.00    -0.080 HD
ENDBRANCH   5  14
BRANCH  13  23
ATOM     22  O   UNL     1      34.841 -19.660 -24.838  0.00  0.00    -0.245 OA
ATOM     23  C   UNL     1      34.794 -19.056 -23.781  0.00  0.00    +0.342 C 
BRANCH  23  24
ATOM     24  O   UNL     1      34.981 -19.593 -22.557  0.00  0.00    -0.477 OA
ATOM     25  H   UNL     1      35.843 -19.834 -22.277  0.00  0.00    +0.295 HD
ENDBRANCH  23  24
ENDBRANCH  13  23
BRANCH   4  26
ATOM     26  C   UNL     1      34.276 -15.290 -20.742  0.00  0.00    +0.134 C 
BRANCH  26  28
ATOM     27  F   UNL     1      32.416 -14.289 -19.727  0.00  0.00    -0.232 F 
ATOM     28  C   UNL     1      32.910 -15.494 -20.118  0.00  0.00    +0.215 C 
ENDBRANCH  26  28
ENDBRANCH   4  26
TORSDOF 5
ENDMDL
MODEL 9
REMARK VINA RESULT:      -8.0      4.495      6.927
REMARK  Name = 3357
REMARK  5 active torsions:
REMARK  status: ('A' for Active; 'I' for Inactive)
REMARK    1  A    between atoms: N_4  and  C_26
REMARK    2  A    between atoms: C_5  and  N_14
REMARK    3  A    between atoms: C_13  and  C_23
REMARK    4  A    between atoms: C_23  and  O_24
REMARK    5  A    between atoms: C_26  and  C_28
REMARK                            x       y       z     vdW  Elec       q    Type
REMARK                         _______ _______ _______ _____ _____    ______ ____
ROOT
ATOM      1  F   UNL     1      34.250 -11.886 -24.478  0.00  0.00    -0.201 F 
ATOM      2  F   UNL     1      31.847 -14.529 -21.401  0.00  0.00    -0.203 F 
ATOM      3  O   UNL     1      31.029  -9.813 -19.874  0.00  0.00    -0.286 OA
ATOM      4  N   UNL     1      33.433  -9.465 -23.149  0.00  0.00    -0.281 N 
ATOM      5  C   UNL     1      33.057 -13.199 -22.950  0.00  0.00    +0.105 C 
ATOM      6  C   UNL     1      33.051 -10.762 -22.735  0.00  0.00    +0.084 C 
ATOM      7  C   UNL     1      33.459 -11.935 -23.395  0.00  0.00    +0.169 C 
ATOM      8  C   UNL     1      32.236 -13.321 -21.833  0.00  0.00    +0.156 C 
ATOM      9  C   UNL     1      32.217 -10.915 -21.602  0.00  0.00    +0.057 C 
ATOM     10  C   UNL     1      31.815 -12.181 -21.156  0.00  0.00    +0.035 C 
ATOM     11  C   UNL     1      31.752  -9.715 -20.858  0.00  0.00    +0.204 C 
ATOM     12  C   UNL     1      32.987  -8.366 -22.439  0.00  0.00    +0.075 C 
ATOM     13  C   UNL     1      32.200  -8.392 -21.358  0.00  0.00    +0.129 C 
ENDROOT
BRANCH   5  14
ATOM     14  N   UNL     1      33.481 -14.345 -23.629  0.00  0.00    -0.308 N 
ATOM     15  N   UNL     1      34.518 -16.537 -25.141  0.00  0.00    +0.388 N 
ATOM     16  C   UNL     1      33.245 -14.419 -25.076  0.00  0.00    +0.068 C 
ATOM     17  C   UNL     1      34.643 -15.094 -23.137  0.00  0.00    +0.068 C 
ATOM     18  C   UNL     1      33.275 -15.872 -25.552  0.00  0.00    -0.056 C 
ATOM     19  C   UNL     1      34.628 -16.525 -23.677  0.00  0.00    -0.056 C 
ATOM     20  C   UNL     1      34.558 -17.908 -25.648  0.00  0.00    -0.101 C 
ATOM     21  H   UNL     1      35.309 -16.029 -25.536  0.00  0.00    -0.080 HD
ENDBRANCH   5  14
BRANCH  13  23
ATOM     22  O   UNL     1      31.254  -6.212 -21.305  0.00  0.00    -0.245 OA
ATOM     23  C   UNL     1      31.828  -7.122 -20.733  0.00  0.00    +0.342 C 
BRANCH  23  24
ATOM     24  O   UNL     1      32.216  -7.121 -19.441  0.00  0.00    -0.477 OA
ATOM     25  H   UNL     1      33.074  -7.421 -19.208  0.00  0.00    +0.295 HD
ENDBRANCH  23  24
ENDBRANCH  13  23
BRANCH   4  26
ATOM     26  C   UNL     1      34.293  -9.298 -24.320  0.00  0.00    +0.134 C 
BRANCH  26  28
ATOM     27  F   UNL     1      35.466  -7.463 -23.456  0.00  0.00    -0.232 F 
ATOM     28  C   UNL     1      34.664  -7.838 -24.488  0.00  0.00    +0.215 C 
ENDBRANCH  26  28
ENDBRANCH   4  26
TORSDOF 5
ENDMDL
