MODEL 1
REMARK VINA RESULT:     -10.1      0.000      0.000
REMARK  Name = 213053
REMARK  5 active torsions:
REMARK  status: ('A' for Active; 'I' for Inactive)
REMARK    1  A    between atoms: N_2  and  C_16
REMARK    2  A    between atoms: C_4  and  C_8
REMARK    3  A    between atoms: C_13  and  O_14
REMARK    4  A    between atoms: C_17  and  S_22
REMARK    5  A    between atoms: S_22  and  N_25
REMARK                            x       y       z     vdW  Elec       q    Type
REMARK                         _______ _______ _______ _____ _____    ______ ____
ROOT
ATOM      1 CL   UNL     1      31.013 -22.846 -15.448  0.00  0.00    -0.064 Cl
ATOM      2  N   UNL     1      34.396 -24.270 -14.309  0.00  0.00    -0.279 N 
ATOM      3  N   UNL     1      32.328 -24.174 -13.508  0.00  0.00    -0.239 NA
ATOM      4  C   UNL     1      33.663 -23.601 -15.250  0.00  0.00    +0.148 C 
ATOM      5  C   UNL     1      33.553 -24.594 -13.283  0.00  0.00    +0.221 C 
ATOM      6  C   UNL     1      32.389 -23.555 -14.731  0.00  0.00    +0.135 C 
ENDROOT
BRANCH   4   8
ATOM      7  F   UNL     1      37.197 -21.446 -17.726  0.00  0.00    -0.201 F 
ATOM      8  C   UNL     1      34.199 -23.091 -16.488  0.00  0.00    +0.005 C 
ATOM      9  C   UNL     1      35.463 -22.503 -16.512  0.00  0.00    +0.031 C 
ATOM     10  C   UNL     1      33.452 -23.187 -17.663  0.00  0.00    +0.001 C 
ATOM     11  C   UNL     1      35.982 -22.010 -17.710  0.00  0.00    +0.174 C 
ATOM     12  C   UNL     1      33.971 -22.695 -18.861  0.00  0.00    +0.039 C 
ATOM     13  C   UNL     1      35.235 -22.106 -18.884  0.00  0.00    +0.166 C 
BRANCH  13  14
ATOM     14  O   UNL     1      35.740 -21.625 -20.054  0.00  0.00    -0.469 OA
ATOM     15  C   UNL     1      35.276 -20.346 -20.484  0.00  0.00    +0.253 C 
ENDBRANCH  13  14
ENDBRANCH   4   8
BRANCH   2  16
ATOM     16  C   UNL     1      35.755 -24.578 -14.359  0.00  0.00    +0.050 C 
ATOM     17  C   UNL     1      38.462 -25.193 -14.459  0.00  0.00    +0.122 C 
ATOM     18  C   UNL     1      36.671 -23.744 -13.732  0.00  0.00    +0.016 C 
ATOM     19  C   UNL     1      36.176 -25.717 -15.036  0.00  0.00    +0.016 C 
ATOM     20  C   UNL     1      38.031 -24.053 -13.783  0.00  0.00    +0.021 C 
ATOM     21  C   UNL     1      37.535 -26.025 -15.086  0.00  0.00    +0.021 C 
BRANCH  17  22
ATOM     22  S   UNL     1      40.164 -25.579 -14.523  0.00  0.00    +0.057 S 
ATOM     23  O   UNL     1      40.919 -24.389 -14.157  0.00  0.00    -0.153 OA
ATOM     24  O   UNL     1      40.384 -26.826 -13.803  0.00  0.00    -0.153 OA
BRANCH  22  25
ATOM     25  N   UNL     1      40.369 -25.869 -16.195  0.00  0.00    -0.203 NA
ATOM     26  H   UNL     1      40.233 -26.862 -16.386  0.00  0.00    +0.144 HD
ATOM     27  H   UNL     1      41.310 -25.594 -16.475  0.00  0.00    +0.144 HD
ENDBRANCH  22  25
ENDBRANCH  17  22
ENDBRANCH   2  16
TORSDOF 5
ENDMDL
MODEL 2
REMARK VINA RESULT:      -9.1      4.251      6.547
REMARK  Name = 213053
REMARK  5 active torsions:
REMARK  status: ('A' for Active; 'I' for Inactive)
REMARK    1  A    between atoms: N_2  and  C_16
REMARK    2  A    between atoms: C_4  and  C_8
REMARK    3  A    between atoms: C_13  and  O_14
REMARK    4  A    between atoms: C_17  and  S_22
REMARK    5  A    between atoms: S_22  and  N_25
REMARK                            x       y       z     vdW  Elec       q    Type
REMARK                         _______ _______ _______ _____ _____    ______ ____
ROOT
ATOM      1 CL   UNL     1      37.206 -24.047 -14.095  0.00  0.00    -0.064 Cl
ATOM      2  N   UNL     1      33.367 -23.955 -14.231  0.00  0.00    -0.279 N 
ATOM      3  N   UNL     1      34.920 -24.582 -12.774  0.00  0.00    -0.239 NA
ATOM      4  C   UNL     1      34.567 -23.711 -14.840  0.00  0.00    +0.148 C 
ATOM      5  C   UNL     1      33.629 -24.476 -12.995  0.00  0.00    +0.221 C 
ATOM      6  C   UNL     1      35.511 -24.107 -13.919  0.00  0.00    +0.135 C 
ENDROOT
BRANCH   4   8
ATOM      7  F   UNL     1      37.126 -21.254 -18.107  0.00  0.00    -0.201 F 
ATOM      8  C   UNL     1      34.712 -23.156 -16.163  0.00  0.00    +0.005 C 
ATOM      9  C   UNL     1      35.870 -22.459 -16.505  0.00  0.00    +0.031 C 
ATOM     10  C   UNL     1      33.692 -23.317 -17.102  0.00  0.00    +0.001 C 
ATOM     11  C   UNL     1      36.010 -21.923 -17.785  0.00  0.00    +0.174 C 
ATOM     12  C   UNL     1      33.833 -22.781 -18.383  0.00  0.00    +0.039 C 
ATOM     13  C   UNL     1      34.992 -22.083 -18.723  0.00  0.00    +0.166 C 
BRANCH  13  14
ATOM     14  O   UNL     1      35.127 -21.560 -19.973  0.00  0.00    -0.469 OA
ATOM     15  C   UNL     1      34.267 -20.476 -20.319  0.00  0.00    +0.253 C 
ENDBRANCH  13  14
ENDBRANCH   4   8
BRANCH   2  16
ATOM     16  C   UNL     1      32.094 -23.725 -14.752  0.00  0.00    +0.050 C 
ATOM     17  C   UNL     1      29.558 -23.266 -15.790  0.00  0.00    +0.122 C 
ATOM     18  C   UNL     1      31.400 -24.767 -15.353  0.00  0.00    +0.016 C 
ATOM     19  C   UNL     1      31.535 -22.455 -14.664  0.00  0.00    +0.016 C 
ATOM     20  C   UNL     1      30.126 -24.536 -15.874  0.00  0.00    +0.021 C 
ATOM     21  C   UNL     1      30.262 -22.225 -15.185  0.00  0.00    +0.021 C 
BRANCH  17  22
ATOM     22  S   UNL     1      27.964 -22.977 -16.443  0.00  0.00    +0.057 S 
ATOM     23  O   UNL     1      27.009 -22.986 -15.344  0.00  0.00    -0.153 OA
ATOM     24  O   UNL     1      28.031 -21.828 -17.335  0.00  0.00    -0.153 OA
BRANCH  22  25
ATOM     25  N   UNL     1      27.738 -24.387 -17.382  0.00  0.00    -0.203 NA
ATOM     26  H   UNL     1      28.542 -24.518 -17.996  0.00  0.00    +0.144 HD
ATOM     27  H   UNL     1      26.893 -24.290 -17.944  0.00  0.00    +0.144 HD
ENDBRANCH  22  25
ENDBRANCH  17  22
ENDBRANCH   2  16
TORSDOF 5
ENDMDL
MODEL 3
REMARK VINA RESULT:      -7.8      4.394      6.259
REMARK  Name = 213053
REMARK  5 active torsions:
REMARK  status: ('A' for Active; 'I' for Inactive)
REMARK    1  A    between atoms: N_2  and  C_16
REMARK    2  A    between atoms: C_4  and  C_8
REMARK    3  A    between atoms: C_13  and  O_14
REMARK    4  A    between atoms: C_17  and  S_22
REMARK    5  A    between atoms: S_22  and  N_25
REMARK                            x       y       z     vdW  Elec       q    Type
REMARK                         _______ _______ _______ _____ _____    ______ ____
ROOT
ATOM      1 CL   UNL     1      38.494 -23.627 -15.728  0.00  0.00    -0.064 Cl
ATOM      2  N   UNL     1      34.716 -23.687 -15.031  0.00  0.00    -0.279 N 
ATOM      3  N   UNL     1      36.558 -24.417 -14.030  0.00  0.00    -0.239 NA
ATOM      4  C   UNL     1      35.751 -23.319 -15.845  0.00  0.00    +0.148 C 
ATOM      5  C   UNL     1      35.249 -24.342 -13.956  0.00  0.00    +0.221 C 
ATOM      6  C   UNL     1      36.879 -23.782 -15.204  0.00  0.00    +0.135 C 
ENDROOT
BRANCH   4   8
ATOM      7  F   UNL     1      33.134 -22.164 -19.727  0.00  0.00    -0.201 F 
ATOM      8  C   UNL     1      35.596 -22.603 -17.087  0.00  0.00    +0.005 C 
ATOM      9  C   UNL     1      34.418 -22.730 -17.823  0.00  0.00    +0.031 C 
ATOM     10  C   UNL     1      36.624 -21.783 -17.553  0.00  0.00    +0.001 C 
ATOM     11  C   UNL     1      34.268 -22.038 -19.025  0.00  0.00    +0.174 C 
ATOM     12  C   UNL     1      36.474 -21.090 -18.754  0.00  0.00    +0.039 C 
ATOM     13  C   UNL     1      35.295 -21.218 -19.490  0.00  0.00    +0.166 C 
BRANCH  13  14
ATOM     14  O   UNL     1      35.150 -20.542 -20.663  0.00  0.00    -0.469 OA
ATOM     15  C   UNL     1      36.086 -19.498 -20.930  0.00  0.00    +0.253 C 
ENDBRANCH  13  14
ENDBRANCH   4   8
BRANCH   2  16
ATOM     16  C   UNL     1      33.356 -23.452 -15.235  0.00  0.00    +0.050 C 
ATOM     17  C   UNL     1      30.648 -22.985 -15.643  0.00  0.00    +0.122 C 
ATOM     18  C   UNL     1      32.637 -22.725 -14.296  0.00  0.00    +0.016 C 
ATOM     19  C   UNL     1      32.738 -23.950 -16.376  0.00  0.00    +0.016 C 
ATOM     20  C   UNL     1      31.277 -22.491 -14.501  0.00  0.00    +0.021 C 
ATOM     21  C   UNL     1      31.379 -23.715 -16.581  0.00  0.00    +0.021 C 
BRANCH  17  22
ATOM     22  S   UNL     1      28.946 -22.692 -15.899  0.00  0.00    +0.057 S 
ATOM     23  O   UNL     1      28.500 -21.700 -14.931  0.00  0.00    -0.153 OA
ATOM     24  O   UNL     1      28.723 -22.468 -17.321  0.00  0.00    -0.153 OA
BRANCH  22  25
ATOM     25  N   UNL     1      28.288 -24.211 -15.474  0.00  0.00    -0.203 NA
ATOM     26  H   UNL     1      28.947 -24.712 -14.877  0.00  0.00    +0.144 HD
ATOM     27  H   UNL     1      28.113 -24.755 -16.319  0.00  0.00    +0.144 HD
ENDBRANCH  22  25
ENDBRANCH  17  22
ENDBRANCH   2  16
TORSDOF 5
ENDMDL
MODEL 4
REMARK VINA RESULT:      -7.7     14.327     17.077
REMARK  Name = 213053
REMARK  5 active torsions:
REMARK  status: ('A' for Active; 'I' for Inactive)
REMARK    1  A    between atoms: N_2  and  C_16
REMARK    2  A    between atoms: C_4  and  C_8
REMARK    3  A    between atoms: C_13  and  O_14
REMARK    4  A    between atoms: C_17  and  S_22
REMARK    5  A    between atoms: S_22  and  N_25
REMARK                            x       y       z     vdW  Elec       q    Type
REMARK                         _______ _______ _______ _____ _____    ______ ____
ROOT
ATOM      1 CL   UNL     1      32.390 -13.931 -20.392  0.00  0.00    -0.064 Cl
ATOM      2  N   UNL     1      31.781 -10.206 -21.110  0.00  0.00    -0.279 N 
ATOM      3  N   UNL     1      31.512 -11.589 -19.394  0.00  0.00    -0.239 NA
ATOM      4  C   UNL     1      32.210 -11.428 -21.547  0.00  0.00    +0.148 C 
ATOM      5  C   UNL     1      31.372 -10.351 -19.814  0.00  0.00    +0.221 C 
ATOM      6  C   UNL     1      32.033 -12.265 -20.469  0.00  0.00    +0.135 C 
ENDROOT
BRANCH   4   8
ATOM      7  F   UNL     1      34.899 -10.137 -25.337  0.00  0.00    -0.201 F 
ATOM      8  C   UNL     1      32.720 -11.687 -22.871  0.00  0.00    +0.005 C 
ATOM      9  C   UNL     1      33.580 -10.771 -23.479  0.00  0.00    +0.031 C 
ATOM     10  C   UNL     1      32.355 -12.853 -23.545  0.00  0.00    +0.001 C 
ATOM     11  C   UNL     1      34.074 -11.021 -24.759  0.00  0.00    +0.174 C 
ATOM     12  C   UNL     1      32.850 -13.103 -24.825  0.00  0.00    +0.039 C 
ATOM     13  C   UNL     1      33.709 -12.186 -25.432  0.00  0.00    +0.166 C 
BRANCH  13  14
ATOM     14  O   UNL     1      34.191 -12.431 -26.682  0.00  0.00    -0.469 OA
ATOM     15  C   UNL     1      33.541 -13.452 -27.439  0.00  0.00    +0.253 C 
ENDBRANCH  13  14
ENDBRANCH   4   8
BRANCH   2  16
ATOM     16  C   UNL     1      31.753  -9.013 -21.832  0.00  0.00    +0.050 C 
ATOM     17  C   UNL     1      31.697  -6.637 -23.270  0.00  0.00    +0.122 C 
ATOM     18  C   UNL     1      32.572  -7.959 -21.448  0.00  0.00    +0.016 C 
ATOM     19  C   UNL     1      30.906  -8.893 -22.927  0.00  0.00    +0.016 C 
ATOM     20  C   UNL     1      32.543  -6.766 -22.170  0.00  0.00    +0.021 C 
ATOM     21  C   UNL     1      30.878  -7.700 -23.649  0.00  0.00    +0.021 C 
BRANCH  17  22
ATOM     22  S   UNL     1      31.660  -5.143 -24.174  0.00  0.00    +0.057 S 
ATOM     23  O   UNL     1      32.888  -5.046 -24.951  0.00  0.00    -0.153 OA
ATOM     24  O   UNL     1      30.371  -5.037 -24.842  0.00  0.00    -0.153 OA
BRANCH  22  25
ATOM     25  N   UNL     1      31.717  -3.996 -22.908  0.00  0.00    -0.203 NA
ATOM     26  H   UNL     1      32.446  -4.259 -22.244  0.00  0.00    +0.144 HD
ATOM     27  H   UNL     1      30.817  -3.971 -22.431  0.00  0.00    +0.144 HD
ENDBRANCH  22  25
ENDBRANCH  17  22
ENDBRANCH   2  16
TORSDOF 5
ENDMDL
MODEL 5
REMARK VINA RESULT:      -7.5      2.996      5.690
REMARK  Name = 213053
REMARK  5 active torsions:
REMARK  status: ('A' for Active; 'I' for Inactive)
REMARK    1  A    between atoms: N_2  and  C_16
REMARK    2  A    between atoms: C_4  and  C_8
REMARK    3  A    between atoms: C_13  and  O_14
REMARK    4  A    between atoms: C_17  and  S_22
REMARK    5  A    between atoms: S_22  and  N_25
REMARK                            x       y       z     vdW  Elec       q    Type
REMARK                         _______ _______ _______ _____ _____    ______ ____
ROOT
ATOM      1 CL   UNL     1      31.644 -25.407 -13.115  0.00  0.00    -0.064 Cl
ATOM      2  N   UNL     1      32.749 -23.449 -16.231  0.00  0.00    -0.279 N 
ATOM      3  N   UNL     1      30.832 -24.127 -15.342  0.00  0.00    -0.239 NA
ATOM      4  C   UNL     1      33.086 -24.114 -15.085  0.00  0.00    +0.148 C 
ATOM      5  C   UNL     1      31.387 -23.482 -16.343  0.00  0.00    +0.221 C 
ATOM      6  C   UNL     1      31.884 -24.524 -14.554  0.00  0.00    +0.135 C 
ENDROOT
BRANCH   4   8
ATOM      7  F   UNL     1      36.742 -22.837 -12.210  0.00  0.00    -0.201 F 
ATOM      8  C   UNL     1      34.438 -24.297 -14.616  0.00  0.00    +0.005 C 
ATOM      9  C   UNL     1      34.949 -23.464 -13.621  0.00  0.00    +0.031 C 
ATOM     10  C   UNL     1      35.234 -25.306 -15.158  0.00  0.00    +0.001 C 
ATOM     11  C   UNL     1      36.256 -23.640 -13.167  0.00  0.00    +0.174 C 
ATOM     12  C   UNL     1      36.541 -25.483 -14.704  0.00  0.00    +0.039 C 
ATOM     13  C   UNL     1      37.052 -24.649 -13.709  0.00  0.00    +0.166 C 
BRANCH  13  14
ATOM     14  O   UNL     1      38.328 -24.822 -13.267  0.00  0.00    -0.469 OA
ATOM     15  C   UNL     1      39.272 -25.349 -14.198  0.00  0.00    +0.253 C 
ENDBRANCH  13  14
ENDBRANCH   4   8
BRANCH   2  16
ATOM     16  C   UNL     1      33.615 -22.839 -17.139  0.00  0.00    +0.050 C 
ATOM     17  C   UNL     1      35.338 -21.624 -18.948  0.00  0.00    +0.122 C 
ATOM     18  C   UNL     1      34.942 -22.629 -16.787  0.00  0.00    +0.016 C 
ATOM     19  C   UNL     1      33.138 -22.448 -18.385  0.00  0.00    +0.016 C 
ATOM     20  C   UNL     1      35.807 -22.019 -17.695  0.00  0.00    +0.021 C 
ATOM     21  C   UNL     1      34.004 -21.838 -19.293  0.00  0.00    +0.021 C 
BRANCH  17  22
ATOM     22  S   UNL     1      36.421 -20.859 -20.085  0.00  0.00    +0.057 S 
ATOM     23  O   UNL     1      37.092 -19.758 -19.410  0.00  0.00    -0.153 OA
ATOM     24  O   UNL     1      37.208 -21.893 -20.741  0.00  0.00    -0.153 OA
BRANCH  22  25
ATOM     25  N   UNL     1      35.308 -20.218 -21.213  0.00  0.00    -0.203 NA
ATOM     26  H   UNL     1      35.300 -20.802 -22.050  0.00  0.00    +0.144 HD
ATOM     27  H   UNL     1      35.585 -19.270 -21.463  0.00  0.00    +0.144 HD
ENDBRANCH  22  25
ENDBRANCH  17  22
ENDBRANCH   2  16
TORSDOF 5
ENDMDL
MODEL 6
REMARK VINA RESULT:      -7.3      4.552      6.424
REMARK  Name = 213053
REMARK  5 active torsions:
REMARK  status: ('A' for Active; 'I' for Inactive)
REMARK    1  A    between atoms: N_2  and  C_16
REMARK    2  A    between atoms: C_4  and  C_8
REMARK    3  A    between atoms: C_13  and  O_14
REMARK    4  A    between atoms: C_17  and  S_22
REMARK    5  A    between atoms: S_22  and  N_25
REMARK                            x       y       z     vdW  Elec       q    Type
REMARK                         _______ _______ _______ _____ _____    ______ ____
ROOT
ATOM      1 CL   UNL     1      37.989 -23.026 -16.037  0.00  0.00    -0.064 Cl
ATOM      2  N   UNL     1      34.254 -23.590 -15.335  0.00  0.00    -0.279 N 
ATOM      3  N   UNL     1      36.177 -24.043 -14.323  0.00  0.00    -0.239 NA
ATOM      4  C   UNL     1      35.230 -23.098 -16.156  0.00  0.00    +0.148 C 
ATOM      5  C   UNL     1      34.870 -24.146 -14.249  0.00  0.00    +0.221 C 
ATOM      6  C   UNL     1      36.410 -23.391 -15.508  0.00  0.00    +0.135 C 
ENDROOT
BRANCH   4   8
ATOM      7  F   UNL     1      36.831 -20.786 -20.075  0.00  0.00    -0.201 F 
ATOM      8  C   UNL     1      34.981 -22.432 -17.411  0.00  0.00    +0.005 C 
ATOM      9  C   UNL     1      36.045 -21.920 -18.153  0.00  0.00    +0.031 C 
ATOM     10  C   UNL     1      33.674 -22.300 -17.883  0.00  0.00    +0.001 C 
ATOM     11  C   UNL     1      35.804 -21.276 -19.366  0.00  0.00    +0.174 C 
ATOM     12  C   UNL     1      33.433 -21.657 -19.097  0.00  0.00    +0.039 C 
ATOM     13  C   UNL     1      34.498 -21.144 -19.838  0.00  0.00    +0.166 C 
BRANCH  13  14
ATOM     14  O   UNL     1      34.261 -20.515 -21.022  0.00  0.00    -0.469 OA
ATOM     15  C   UNL     1      33.063 -19.747 -21.120  0.00  0.00    +0.253 C 
ENDBRANCH  13  14
ENDBRANCH   4   8
BRANCH   2  16
ATOM     16  C   UNL     1      32.875 -23.546 -15.542  0.00  0.00    +0.050 C 
ATOM     17  C   UNL     1      30.129 -23.459 -15.953  0.00  0.00    +0.122 C 
ATOM     18  C   UNL     1      32.307 -24.324 -16.542  0.00  0.00    +0.016 C 
ATOM     19  C   UNL     1      32.087 -22.725 -14.744  0.00  0.00    +0.016 C 
ATOM     20  C   UNL     1      30.928 -24.280 -16.749  0.00  0.00    +0.021 C 
ATOM     21  C   UNL     1      30.709 -22.681 -14.952  0.00  0.00    +0.021 C 
BRANCH  17  22
ATOM     22  S   UNL     1      28.403 -23.404 -16.213  0.00  0.00    +0.057 S 
ATOM     23  O   UNL     1      28.041 -24.480 -17.124  0.00  0.00    -0.153 OA
ATOM     24  O   UNL     1      27.744 -23.298 -14.919  0.00  0.00    -0.153 OA
BRANCH  22  25
ATOM     25  N   UNL     1      28.246 -21.912 -17.032  0.00  0.00    -0.203 NA
ATOM     26  H   UNL     1      29.140 -21.659 -17.452  0.00  0.00    +0.144 HD
ATOM     27  H   UNL     1      27.964 -21.189 -16.370  0.00  0.00    +0.144 HD
ENDBRANCH  22  25
ENDBRANCH  17  22
ENDBRANCH   2  16
TORSDOF 5
ENDMDL
MODEL 7
REMARK VINA RESULT:      -7.3     15.472     18.668
REMARK  Name = 213053
REMARK  5 active torsions:
REMARK  status: ('A' for Active; 'I' for Inactive)
REMARK    1  A    between atoms: N_2  and  C_16
REMARK    2  A    between atoms: C_4  and  C_8
REMARK    3  A    between atoms: C_13  and  O_14
REMARK    4  A    between atoms: C_17  and  S_22
REMARK    5  A    between atoms: S_22  and  N_25
REMARK                            x       y       z     vdW  Elec       q    Type
REMARK                         _______ _______ _______ _____ _____    ______ ____
ROOT
ATOM      1 CL   UNL     1      32.169 -10.092 -19.471  0.00  0.00    -0.064 Cl
ATOM      2  N   UNL     1      32.627  -7.278 -22.047  0.00  0.00    -0.279 N 
ATOM      3  N   UNL     1      32.088  -7.434 -19.899  0.00  0.00    -0.239 NA
ATOM      4  C   UNL     1      32.647  -8.614 -21.755  0.00  0.00    +0.148 C 
ATOM      5  C   UNL     1      32.287  -6.611 -20.903  0.00  0.00    +0.221 C 
ATOM      6  C   UNL     1      32.311  -8.684 -20.422  0.00  0.00    +0.135 C 
ENDROOT
BRANCH   4   8
ATOM      7  F   UNL     1      35.338 -10.305 -25.382  0.00  0.00    -0.201 F 
ATOM      8  C   UNL     1      32.964  -9.651 -22.706  0.00  0.00    +0.005 C 
ATOM      9  C   UNL     1      34.018  -9.476 -23.603  0.00  0.00    +0.031 C 
ATOM     10  C   UNL     1      32.217 -10.829 -22.729  0.00  0.00    +0.001 C 
ATOM     11  C   UNL     1      34.325 -10.479 -24.523  0.00  0.00    +0.174 C 
ATOM     12  C   UNL     1      32.524 -11.832 -23.648  0.00  0.00    +0.039 C 
ATOM     13  C   UNL     1      33.578 -11.656 -24.545  0.00  0.00    +0.166 C 
BRANCH  13  14
ATOM     14  O   UNL     1      33.876 -12.636 -25.442  0.00  0.00    -0.469 OA
ATOM     15  C   UNL     1      33.173 -13.871 -25.313  0.00  0.00    +0.253 C 
ENDBRANCH  13  14
ENDBRANCH   4   8
BRANCH   2  16
ATOM     16  C   UNL     1      32.898  -6.678 -23.276  0.00  0.00    +0.050 C 
ATOM     17  C   UNL     1      33.437  -5.482 -25.725  0.00  0.00    +0.122 C 
ATOM     18  C   UNL     1      34.153  -6.829 -23.851  0.00  0.00    +0.016 C 
ATOM     19  C   UNL     1      31.909  -5.936 -23.910  0.00  0.00    +0.016 C 
ATOM     20  C   UNL     1      34.423  -6.228 -25.081  0.00  0.00    +0.021 C 
ATOM     21  C   UNL     1      32.179  -5.336 -25.139  0.00  0.00    +0.021 C 
BRANCH  17  22
ATOM     22  S   UNL     1      33.776  -4.730 -27.264  0.00  0.00    +0.057 S 
ATOM     23  O   UNL     1      35.176  -4.959 -27.589  0.00  0.00    -0.153 OA
ATOM     24  O   UNL     1      32.740  -5.123 -28.209  0.00  0.00    -0.153 OA
BRANCH  22  25
ATOM     25  N   UNL     1      33.563  -3.080 -26.873  0.00  0.00    -0.203 NA
ATOM     26  H   UNL     1      34.373  -2.548 -27.193  0.00  0.00    +0.144 HD
ATOM     27  H   UNL     1      33.468  -2.979 -25.863  0.00  0.00    +0.144 HD
ENDBRANCH  22  25
ENDBRANCH  17  22
ENDBRANCH   2  16
TORSDOF 5
ENDMDL
MODEL 8
REMARK VINA RESULT:      -7.2     14.610     17.482
REMARK  Name = 213053
REMARK  5 active torsions:
REMARK  status: ('A' for Active; 'I' for Inactive)
REMARK    1  A    between atoms: N_2  and  C_16
REMARK    2  A    between atoms: C_4  and  C_8
REMARK    3  A    between atoms: C_13  and  O_14
REMARK    4  A    between atoms: C_17  and  S_22
REMARK    5  A    between atoms: S_22  and  N_25
REMARK                            x       y       z     vdW  Elec       q    Type
REMARK                         _______ _______ _______ _____ _____    ______ ____
ROOT
ATOM      1 CL   UNL     1      32.480 -13.788 -21.112  0.00  0.00    -0.064 Cl
ATOM      2  N   UNL     1      31.660 -10.060 -21.552  0.00  0.00    -0.279 N 
ATOM      3  N   UNL     1      31.251 -11.641 -20.048  0.00  0.00    -0.239 NA
ATOM      4  C   UNL     1      32.259 -11.192 -22.031  0.00  0.00    +0.148 C 
ATOM      5  C   UNL     1      31.069 -10.378 -20.362  0.00  0.00    +0.221 C 
ATOM      6  C   UNL     1      31.992 -12.155 -21.083  0.00  0.00    +0.135 C 
ENDROOT
BRANCH   4   8
ATOM      7  F   UNL     1      33.387 -13.499 -26.113  0.00  0.00    -0.201 F 
ATOM      8  C   UNL     1      32.991 -11.265 -23.271  0.00  0.00    +0.005 C 
ATOM      9  C   UNL     1      32.835 -12.367 -24.111  0.00  0.00    +0.031 C 
ATOM     10  C   UNL     1      33.857 -10.231 -23.631  0.00  0.00    +0.001 C 
ATOM     11  C   UNL     1      33.543 -12.437 -25.311  0.00  0.00    +0.174 C 
ATOM     12  C   UNL     1      34.565 -10.301 -24.832  0.00  0.00    +0.039 C 
ATOM     13  C   UNL     1      34.407 -11.404 -25.671  0.00  0.00    +0.166 C 
BRANCH  13  14
ATOM     14  O   UNL     1      35.099 -11.471 -26.842  0.00  0.00    -0.469 OA
ATOM     15  C   UNL     1      36.052 -10.439 -27.092  0.00  0.00    +0.253 C 
ENDBRANCH  13  14
ENDBRANCH   4   8
BRANCH   2  16
ATOM     16  C   UNL     1      31.638  -8.800 -22.149  0.00  0.00    +0.050 C 
ATOM     17  C   UNL     1      31.596  -6.288 -23.335  0.00  0.00    +0.122 C 
ATOM     18  C   UNL     1      30.923  -8.609 -23.324  0.00  0.00    +0.016 C 
ATOM     19  C   UNL     1      32.333  -7.750 -21.559  0.00  0.00    +0.016 C 
ATOM     20  C   UNL     1      30.902  -7.348 -23.920  0.00  0.00    +0.021 C 
ATOM     21  C   UNL     1      32.311  -6.490 -22.156  0.00  0.00    +0.021 C 
BRANCH  17  22
ATOM     22  S   UNL     1      31.570  -4.710 -24.082  0.00  0.00    +0.057 S 
ATOM     23  O   UNL     1      30.284  -4.536 -24.743  0.00  0.00    -0.153 OA
ATOM     24  O   UNL     1      32.021  -3.728 -23.106  0.00  0.00    -0.153 OA
BRANCH  22  25
ATOM     25  N   UNL     1      32.782  -4.894 -25.274  0.00  0.00    -0.203 NA
ATOM     26  H   UNL     1      32.471  -4.460 -26.143  0.00  0.00    +0.144 HD
ATOM     27  H   UNL     1      32.955  -5.886 -25.432  0.00  0.00    +0.144 HD
ENDBRANCH  22  25
ENDBRANCH  17  22
ENDBRANCH   2  16
TORSDOF 5
ENDMDL
