MODEL 1
REMARK VINA RESULT:     -11.1      0.000      0.000
REMARK  Name = 6323185
REMARK  11 active torsions:
REMARK  status: ('A' for Active; 'I' for Inactive)
REMARK    1  A    between atoms: C_3  and  C_10
REMARK    2  A    between atoms: C_7  and  C_24
REMARK    3  A    between atoms: N_9  and  C_12
REMARK    4  A    between atoms: C_12  and  C_13
REMARK    5  A    between atoms: C_12  and  C_17
REMARK    6  A    between atoms: C_13  and  O_15
REMARK    7  A    between atoms: C_17  and  C_18
REMARK    8  A    between atoms: C_24  and  N_27
REMARK    9  A    between atoms: C_28  and  O_30
REMARK   10  A    between atoms: O_30  and  C_31
REMARK   11  A    between atoms: C_31  and  C_32
REMARK                            x       y       z     vdW  Elec       q    Type
REMARK                         _______ _______ _______ _____ _____    ______ ____
ROOT
ATOM      1  O   UNL     1      32.959 -14.775 -24.779  0.00  0.00    -0.273 OA
ATOM      2  N   UNL     1      33.454 -14.957 -22.526  0.00  0.00    -0.272 N 
ATOM      3  C   UNL     1      32.333 -14.160 -22.044  0.00  0.00    +0.152 C 
ATOM      4  C   UNL     1      32.258 -14.460 -20.552  0.00  0.00    +0.031 C 
ATOM      5  C   UNL     1      33.703 -14.784 -20.181  0.00  0.00    +0.024 C 
ATOM      6  C   UNL     1      34.225 -15.506 -21.414  0.00  0.00    +0.094 C 
ATOM      7  C   UNL     1      33.631 -15.259 -23.867  0.00  0.00    +0.244 C 
ENDROOT
BRANCH   3  10
ATOM      8  O   UNL     1      33.500 -12.395 -23.148  0.00  0.00    -0.273 OA
ATOM      9  N   UNL     1      31.955 -11.862 -21.491  0.00  0.00    -0.302 N 
ATOM     10  C   UNL     1      32.667 -12.724 -22.307  0.00  0.00    +0.241 C 
ATOM     11  H   UNL     1      31.311 -12.245 -20.854  0.00  0.00    +0.150 HD
BRANCH   9  12
ATOM     12  C   UNL     1      32.110 -10.425 -21.531  0.00  0.00    +0.103 C 
BRANCH  12  13
ATOM     13  C   UNL     1      31.691  -9.793 -20.188  0.00  0.00    +0.129 C 
ATOM     14  C   UNL     1      31.444 -10.828 -19.093  0.00  0.00    +0.033 C 
BRANCH  13  15
ATOM     15  O   UNL     1      32.694  -8.880 -19.749  0.00  0.00    -0.383 OA
ATOM     16  H   UNL     1      32.460  -8.543 -18.869  0.00  0.00    +0.210 HD
ENDBRANCH  13  15
ENDBRANCH  12  13
BRANCH  12  17
ATOM     17  C   UNL     1      31.329  -9.872 -22.739  0.00  0.00    +0.048 C 
BRANCH  17  18
ATOM     18  C   UNL     1      31.923  -8.619 -23.331  0.00  0.00    -0.020 C 
ATOM     19  C   UNL     1      33.307  -8.452 -23.367  0.00  0.00    -0.004 C 
ATOM     20  C   UNL     1      31.087  -7.626 -23.844  0.00  0.00    -0.004 C 
ATOM     21  C   UNL     1      33.856  -7.293 -23.914  0.00  0.00    -0.000 C 
ATOM     22  C   UNL     1      31.636  -6.467 -24.391  0.00  0.00    -0.000 C 
ATOM     23  C   UNL     1      33.020  -6.299 -24.426  0.00  0.00    -0.000 C 
ENDBRANCH  17  18
ENDBRANCH  12  17
ENDBRANCH   9  12
ENDBRANCH   3  10
BRANCH   7  24
ATOM     24  C   UNL     1      34.737 -16.237 -24.172  0.00  0.00    +0.151 C 
ATOM     25  C   UNL     1      34.941 -16.368 -25.663  0.00  0.00    +0.031 C 
BRANCH  24  27
ATOM     26  O   UNL     1      36.385 -18.347 -23.047  0.00  0.00    -0.226 OA
ATOM     27  N   UNL     1      34.304 -17.463 -23.572  0.00  0.00    -0.264 N 
ATOM     28  C   UNL     1      35.161 -18.423 -23.056  0.00  0.00    +0.402 C 
ATOM     29  H   UNL     1      33.336 -17.635 -23.522  0.00  0.00    +0.153 HD
BRANCH  28  30
ATOM     30  O   UNL     1      34.444 -19.473 -22.556  0.00  0.00    -0.430 OA
BRANCH  30  31
ATOM     31  C   UNL     1      33.790 -19.242 -21.302  0.00  0.00    +0.237 C 
BRANCH  31  32
ATOM     32  C   UNL     1      34.149 -20.347 -20.353  0.00  0.00    +0.021 C 
ATOM     33  C   UNL     1      33.143 -21.080 -19.723  0.00  0.00    -0.001 C 
ATOM     34  C   UNL     1      35.489 -20.641 -20.100  0.00  0.00    -0.001 C 
ATOM     35  C   UNL     1      33.477 -22.107 -18.841  0.00  0.00    -0.000 C 
ATOM     36  C   UNL     1      35.822 -21.669 -19.217  0.00  0.00    -0.000 C 
ATOM     37  C   UNL     1      34.817 -22.402 -18.588  0.00  0.00    -0.000 C 
ENDBRANCH  31  32
ENDBRANCH  30  31
ENDBRANCH  28  30
ENDBRANCH  24  27
ENDBRANCH   7  24
TORSDOF 11
ENDMDL
MODEL 2
REMARK VINA RESULT:     -10.7      1.931     10.628
REMARK  Name = 6323185
REMARK  11 active torsions:
REMARK  status: ('A' for Active; 'I' for Inactive)
REMARK    1  A    between atoms: C_3  and  C_10
REMARK    2  A    between atoms: C_7  and  C_24
REMARK    3  A    between atoms: N_9  and  C_12
REMARK    4  A    between atoms: C_12  and  C_13
REMARK    5  A    between atoms: C_12  and  C_17
REMARK    6  A    between atoms: C_13  and  O_15
REMARK    7  A    between atoms: C_17  and  C_18
REMARK    8  A    between atoms: C_24  and  N_27
REMARK    9  A    between atoms: C_28  and  O_30
REMARK   10  A    between atoms: O_30  and  C_31
REMARK   11  A    between atoms: C_31  and  C_32
REMARK                            x       y       z     vdW  Elec       q    Type
REMARK                         _______ _______ _______ _____ _____    ______ ____
ROOT
ATOM      1  O   UNL     1      35.099 -14.499 -23.904  0.00  0.00    -0.273 OA
ATOM      2  N   UNL     1      33.519 -14.129 -22.255  0.00  0.00    -0.272 N 
ATOM      3  C   UNL     1      34.219 -14.839 -21.192  0.00  0.00    +0.152 C 
ATOM      4  C   UNL     1      33.521 -14.402 -19.909  0.00  0.00    +0.031 C 
ATOM      5  C   UNL     1      32.097 -14.095 -20.366  0.00  0.00    +0.024 C 
ATOM      6  C   UNL     1      32.296 -13.507 -21.755  0.00  0.00    +0.094 C 
ATOM      7  C   UNL     1      34.062 -13.957 -23.518  0.00  0.00    +0.244 C 
ENDROOT
BRANCH   3  10
ATOM      8  O   UNL     1      32.977 -16.877 -21.233  0.00  0.00    -0.273 OA
ATOM      9  N   UNL     1      35.200 -16.897 -21.923  0.00  0.00    -0.302 N 
ATOM     10  C   UNL     1      34.042 -16.305 -21.450  0.00  0.00    +0.241 C 
ATOM     11  H   UNL     1      35.994 -16.332 -22.059  0.00  0.00    +0.150 HD
BRANCH   9  12
ATOM     12  C   UNL     1      35.299 -18.307 -22.228  0.00  0.00    +0.103 C 
BRANCH  12  13
ATOM     13  C   UNL     1      35.532 -18.522 -23.738  0.00  0.00    +0.129 C 
ATOM     14  C   UNL     1      34.548 -19.509 -24.360  0.00  0.00    +0.033 C 
BRANCH  13  15
ATOM     15  O   UNL     1      35.440 -17.276 -24.424  0.00  0.00    -0.383 OA
ATOM     16  H   UNL     1      36.171 -17.201 -25.058  0.00  0.00    +0.210 HD
ENDBRANCH  13  15
ENDBRANCH  12  13
BRANCH  12  17
ATOM     17  C   UNL     1      34.044 -19.023 -21.693  0.00  0.00    +0.048 C 
BRANCH  17  18
ATOM     18  C   UNL     1      34.340 -20.116 -20.697  0.00  0.00    -0.020 C 
ATOM     19  C   UNL     1      35.661 -20.461 -20.412  0.00  0.00    -0.004 C 
ATOM     20  C   UNL     1      33.292 -20.782 -20.061  0.00  0.00    -0.004 C 
ATOM     21  C   UNL     1      35.934 -21.473 -19.492  0.00  0.00    -0.000 C 
ATOM     22  C   UNL     1      33.565 -21.794 -19.141  0.00  0.00    -0.000 C 
ATOM     23  C   UNL     1      34.886 -22.139 -18.856  0.00  0.00    -0.000 C 
ENDBRANCH  17  18
ENDBRANCH  12  17
ENDBRANCH   9  12
ENDBRANCH   3  10
BRANCH   7  24
ATOM     24  C   UNL     1      33.288 -13.049 -24.440  0.00  0.00    +0.151 C 
ATOM     25  C   UNL     1      33.166 -13.660 -25.816  0.00  0.00    +0.031 C 
BRANCH  24  27
ATOM     26  O   UNL     1      32.497 -10.465 -23.376  0.00  0.00    -0.226 OA
ATOM     27  N   UNL     1      34.037 -11.829 -24.450  0.00  0.00    -0.264 N 
ATOM     28  C   UNL     1      33.584 -10.632 -23.918  0.00  0.00    +0.402 C 
ATOM     29  H   UNL     1      34.932 -11.841 -24.862  0.00  0.00    +0.153 HD
BRANCH  28  30
ATOM     30  O   UNL     1      34.527  -9.657 -24.084  0.00  0.00    -0.430 OA
BRANCH  30  31
ATOM     31  C   UNL     1      34.369  -8.490 -23.267  0.00  0.00    +0.237 C 
BRANCH  31  32
ATOM     32  C   UNL     1      33.874  -7.360 -24.120  0.00  0.00    +0.021 C 
ATOM     33  C   UNL     1      32.572  -6.885 -23.962  0.00  0.00    -0.001 C 
ATOM     34  C   UNL     1      34.716  -6.783 -25.071  0.00  0.00    -0.001 C 
ATOM     35  C   UNL     1      32.112  -5.834 -24.755  0.00  0.00    -0.000 C 
ATOM     36  C   UNL     1      34.255  -5.731 -25.864  0.00  0.00    -0.000 C 
ATOM     37  C   UNL     1      32.954  -5.256 -25.706  0.00  0.00    -0.000 C 
ENDBRANCH  31  32
ENDBRANCH  30  31
ENDBRANCH  28  30
ENDBRANCH  24  27
ENDBRANCH   7  24
TORSDOF 11
ENDMDL
MODEL 3
REMARK VINA RESULT:     -10.6      2.678      5.469
REMARK  Name = 6323185
REMARK  11 active torsions:
REMARK  status: ('A' for Active; 'I' for Inactive)
REMARK    1  A    between atoms: C_3  and  C_10
REMARK    2  A    between atoms: C_7  and  C_24
REMARK    3  A    between atoms: N_9  and  C_12
REMARK    4  A    between atoms: C_12  and  C_13
REMARK    5  A    between atoms: C_12  and  C_17
REMARK    6  A    between atoms: C_13  and  O_15
REMARK    7  A    between atoms: C_17  and  C_18
REMARK    8  A    between atoms: C_24  and  N_27
REMARK    9  A    between atoms: C_28  and  O_30
REMARK   10  A    between atoms: O_30  and  C_31
REMARK   11  A    between atoms: C_31  and  C_32
REMARK                            x       y       z     vdW  Elec       q    Type
REMARK                         _______ _______ _______ _____ _____    ______ ____
ROOT
ATOM      1  O   UNL     1      35.433 -17.867 -20.630  0.00  0.00    -0.273 OA
ATOM      2  N   UNL     1      34.848 -18.545 -22.764  0.00  0.00    -0.272 N 
ATOM      3  C   UNL     1      35.328 -17.354 -23.453  0.00  0.00    +0.152 C 
ATOM      4  C   UNL     1      35.375 -17.751 -24.925  0.00  0.00    +0.031 C 
ATOM      5  C   UNL     1      34.277 -18.806 -25.043  0.00  0.00    +0.024 C 
ATOM      6  C   UNL     1      34.352 -19.538 -23.712  0.00  0.00    +0.094 C 
ATOM      7  C   UNL     1      35.010 -18.731 -21.400  0.00  0.00    +0.244 C 
ENDROOT
BRANCH   3  10
ATOM      8  O   UNL     1      33.786 -16.124 -22.110  0.00  0.00    -0.273 OA
ATOM      9  N   UNL     1      34.100 -15.495 -24.329  0.00  0.00    -0.302 N 
ATOM     10  C   UNL     1      34.329 -16.266 -23.203  0.00  0.00    +0.241 C 
ATOM     11  H   UNL     1      34.599 -15.705 -25.150  0.00  0.00    +0.150 HD
BRANCH   9  12
ATOM     12  C   UNL     1      33.163 -14.394 -24.356  0.00  0.00    +0.103 C 
BRANCH  12  13
ATOM     13  C   UNL     1      32.635 -14.164 -25.787  0.00  0.00    +0.129 C 
ATOM     14  C   UNL     1      33.336 -13.014 -26.505  0.00  0.00    +0.033 C 
BRANCH  13  15
ATOM     15  O   UNL     1      32.785 -15.355 -26.556  0.00  0.00    -0.383 OA
ATOM     16  H   UNL     1      33.576 -15.832 -26.260  0.00  0.00    +0.210 HD
ENDBRANCH  13  15
ENDBRANCH  12  13
BRANCH  12  17
ATOM     17  C   UNL     1      33.836 -13.151 -23.744  0.00  0.00    +0.048 C 
BRANCH  17  18
ATOM     18  C   UNL     1      32.906 -12.292 -22.923  0.00  0.00    -0.020 C 
ATOM     19  C   UNL     1      32.716 -10.952 -23.259  0.00  0.00    -0.004 C 
ATOM     20  C   UNL     1      32.236 -12.839 -21.829  0.00  0.00    -0.004 C 
ATOM     21  C   UNL     1      31.857 -10.158 -22.499  0.00  0.00    -0.000 C 
ATOM     22  C   UNL     1      31.376 -12.046 -21.069  0.00  0.00    -0.000 C 
ATOM     23  C   UNL     1      31.187 -10.705 -21.404  0.00  0.00    -0.000 C 
ENDBRANCH  17  18
ENDBRANCH  12  17
ENDBRANCH   9  12
ENDBRANCH   3  10
BRANCH   7  24
ATOM     24  C   UNL     1      34.616 -20.090 -20.879  0.00  0.00    +0.151 C 
ATOM     25  C   UNL     1      33.264 -20.036 -20.207  0.00  0.00    +0.031 C 
BRANCH  24  27
ATOM     26  O   UNL     1      35.046 -22.638 -19.552  0.00  0.00    -0.226 OA
ATOM     27  N   UNL     1      35.663 -20.439 -19.967  0.00  0.00    -0.264 N 
ATOM     28  C   UNL     1      35.797 -21.685 -19.374  0.00  0.00    +0.402 C 
ATOM     29  H   UNL     1      36.332 -19.750 -19.747  0.00  0.00    +0.153 HD
BRANCH  28  30
ATOM     30  O   UNL     1      36.892 -21.702 -18.557  0.00  0.00    -0.430 OA
BRANCH  30  31
ATOM     31  C   UNL     1      36.670 -21.280 -17.206  0.00  0.00    +0.237 C 
BRANCH  31  32
ATOM     32  C   UNL     1      36.594 -22.491 -16.323  0.00  0.00    +0.021 C 
ATOM     33  C   UNL     1      37.763 -23.063 -15.822  0.00  0.00    -0.001 C 
ATOM     34  C   UNL     1      35.354 -23.043 -16.003  0.00  0.00    -0.001 C 
ATOM     35  C   UNL     1      37.691 -24.189 -15.001  0.00  0.00    -0.000 C 
ATOM     36  C   UNL     1      35.283 -24.169 -15.181  0.00  0.00    -0.000 C 
ATOM     37  C   UNL     1      36.452 -24.742 -14.679  0.00  0.00    -0.000 C 
ENDBRANCH  31  32
ENDBRANCH  30  31
ENDBRANCH  28  30
ENDBRANCH  24  27
ENDBRANCH   7  24
TORSDOF 11
ENDMDL
MODEL 4
REMARK VINA RESULT:     -10.6      2.136      9.863
REMARK  Name = 6323185
REMARK  11 active torsions:
REMARK  status: ('A' for Active; 'I' for Inactive)
REMARK    1  A    between atoms: C_3  and  C_10
REMARK    2  A    between atoms: C_7  and  C_24
REMARK    3  A    between atoms: N_9  and  C_12
REMARK    4  A    between atoms: C_12  and  C_13
REMARK    5  A    between atoms: C_12  and  C_17
REMARK    6  A    between atoms: C_13  and  O_15
REMARK    7  A    between atoms: C_17  and  C_18
REMARK    8  A    between atoms: C_24  and  N_27
REMARK    9  A    between atoms: C_28  and  O_30
REMARK   10  A    between atoms: O_30  and  C_31
REMARK   11  A    between atoms: C_31  and  C_32
REMARK                            x       y       z     vdW  Elec       q    Type
REMARK                         _______ _______ _______ _____ _____    ______ ____
ROOT
ATOM      1  O   UNL     1      35.342 -15.182 -24.020  0.00  0.00    -0.273 OA
ATOM      2  N   UNL     1      33.752 -14.965 -22.352  0.00  0.00    -0.272 N 
ATOM      3  C   UNL     1      34.665 -15.137 -21.229  0.00  0.00    +0.152 C 
ATOM      4  C   UNL     1      33.878 -14.660 -20.014  0.00  0.00    +0.031 C 
ATOM      5  C   UNL     1      32.427 -14.948 -20.394  0.00  0.00    +0.024 C 
ATOM      6  C   UNL     1      32.398 -14.674 -21.890  0.00  0.00    +0.094 C 
ATOM      7  C   UNL     1      34.189 -14.930 -23.667  0.00  0.00    +0.244 C 
ENDROOT
BRANCH   3  10
ATOM      8  O   UNL     1      35.533 -17.084 -20.156  0.00  0.00    -0.273 OA
ATOM      9  N   UNL     1      34.626 -17.283 -22.291  0.00  0.00    -0.302 N 
ATOM     10  C   UNL     1      34.989 -16.598 -21.144  0.00  0.00    +0.241 C 
ATOM     11  H   UNL     1      34.194 -16.783 -23.018  0.00  0.00    +0.150 HD
BRANCH   9  12
ATOM     12  C   UNL     1      34.852 -18.700 -22.469  0.00  0.00    +0.103 C 
BRANCH  12  13
ATOM     13  C   UNL     1      35.021 -19.041 -23.964  0.00  0.00    +0.129 C 
ATOM     14  C   UNL     1      33.724 -19.502 -24.623  0.00  0.00    +0.033 C 
BRANCH  13  15
ATOM     15  O   UNL     1      35.522 -17.904 -24.665  0.00  0.00    -0.383 OA
ATOM     16  H   UNL     1      34.813 -17.250 -24.769  0.00  0.00    +0.210 HD
ENDBRANCH  13  15
ENDBRANCH  12  13
BRANCH  12  17
ATOM     17  C   UNL     1      33.708 -19.477 -21.789  0.00  0.00    +0.048 C 
BRANCH  17  18
ATOM     18  C   UNL     1      34.166 -20.413 -20.699  0.00  0.00    -0.020 C 
ATOM     19  C   UNL     1      33.229 -21.142 -19.966  0.00  0.00    -0.004 C 
ATOM     20  C   UNL     1      35.526 -20.550 -20.424  0.00  0.00    -0.004 C 
ATOM     21  C   UNL     1      33.653 -22.007 -18.957  0.00  0.00    -0.000 C 
ATOM     22  C   UNL     1      35.951 -21.414 -19.415  0.00  0.00    -0.000 C 
ATOM     23  C   UNL     1      35.015 -22.143 -18.682  0.00  0.00    -0.000 C 
ENDBRANCH  17  18
ENDBRANCH  12  17
ENDBRANCH   9  12
ENDBRANCH   3  10
BRANCH   7  24
ATOM     24  C   UNL     1      33.141 -14.568 -24.690  0.00  0.00    +0.151 C 
ATOM     25  C   UNL     1      33.331 -15.367 -25.958  0.00  0.00    +0.031 C 
BRANCH  24  27
ATOM     26  O   UNL     1      33.577 -13.185 -27.206  0.00  0.00    -0.226 OA
ATOM     27  N   UNL     1      33.319 -13.163 -24.899  0.00  0.00    -0.264 N 
ATOM     28  C   UNL     1      33.523 -12.580 -26.141  0.00  0.00    +0.402 C 
ATOM     29  H   UNL     1      33.295 -12.572 -24.112  0.00  0.00    +0.153 HD
BRANCH  28  30
ATOM     30  O   UNL     1      33.658 -11.227 -26.009  0.00  0.00    -0.430 OA
BRANCH  30  31
ATOM     31  C   UNL     1      34.749 -10.785 -25.193  0.00  0.00    +0.237 C 
BRANCH  31  32
ATOM     32  C   UNL     1      34.255  -9.734 -24.243  0.00  0.00    +0.021 C 
ATOM     33  C   UNL     1      33.090  -9.949 -23.509  0.00  0.00    -0.001 C 
ATOM     34  C   UNL     1      34.962  -8.540 -24.095  0.00  0.00    -0.001 C 
ATOM     35  C   UNL     1      32.630  -8.971 -22.627  0.00  0.00    -0.000 C 
ATOM     36  C   UNL     1      34.503  -7.562 -23.212  0.00  0.00    -0.000 C 
ATOM     37  C   UNL     1      33.337  -7.777 -22.478  0.00  0.00    -0.000 C 
ENDBRANCH  31  32
ENDBRANCH  30  31
ENDBRANCH  28  30
ENDBRANCH  24  27
ENDBRANCH   7  24
TORSDOF 11
ENDMDL
MODEL 5
REMARK VINA RESULT:     -10.5      2.638      4.672
REMARK  Name = 6323185
REMARK  11 active torsions:
REMARK  status: ('A' for Active; 'I' for Inactive)
REMARK    1  A    between atoms: C_3  and  C_10
REMARK    2  A    between atoms: C_7  and  C_24
REMARK    3  A    between atoms: N_9  and  C_12
REMARK    4  A    between atoms: C_12  and  C_13
REMARK    5  A    between atoms: C_12  and  C_17
REMARK    6  A    between atoms: C_13  and  O_15
REMARK    7  A    between atoms: C_17  and  C_18
REMARK    8  A    between atoms: C_24  and  N_27
REMARK    9  A    between atoms: C_28  and  O_30
REMARK   10  A    between atoms: O_30  and  C_31
REMARK   11  A    between atoms: C_31  and  C_32
REMARK                            x       y       z     vdW  Elec       q    Type
REMARK                         _______ _______ _______ _____ _____    ______ ____
ROOT
ATOM      1  O   UNL     1      35.679 -17.808 -20.523  0.00  0.00    -0.273 OA
ATOM      2  N   UNL     1      34.910 -18.175 -22.675  0.00  0.00    -0.272 N 
ATOM      3  C   UNL     1      35.344 -16.898 -23.227  0.00  0.00    +0.152 C 
ATOM      4  C   UNL     1      35.263 -17.082 -24.738  0.00  0.00    +0.031 C 
ATOM      5  C   UNL     1      34.148 -18.110 -24.912  0.00  0.00    +0.024 C 
ATOM      6  C   UNL     1      34.325 -19.024 -23.709  0.00  0.00    +0.094 C 
ATOM      7  C   UNL     1      35.183 -18.553 -21.370  0.00  0.00    +0.244 C 
ENDROOT
BRANCH   3  10
ATOM      8  O   UNL     1      33.410 -16.146 -22.048  0.00  0.00    -0.273 OA
ATOM      9  N   UNL     1      34.716 -14.588 -23.183  0.00  0.00    -0.302 N 
ATOM     10  C   UNL     1      34.382 -15.857 -22.741  0.00  0.00    +0.241 C 
ATOM     11  H   UNL     1      35.523 -14.482 -23.734  0.00  0.00    +0.150 HD
BRANCH   9  12
ATOM     12  C   UNL     1      33.935 -13.412 -22.871  0.00  0.00    +0.103 C 
BRANCH  12  13
ATOM     13  C   UNL     1      32.633 -13.800 -22.140  0.00  0.00    +0.129 C 
ATOM     14  C   UNL     1      32.371 -12.955 -20.897  0.00  0.00    +0.033 C 
BRANCH  13  15
ATOM     15  O   UNL     1      31.525 -13.678 -23.029  0.00  0.00    -0.383 OA
ATOM     16  H   UNL     1      31.638 -14.292 -23.772  0.00  0.00    +0.210 HD
ENDBRANCH  13  15
ENDBRANCH  12  13
BRANCH  12  17
ATOM     17  C   UNL     1      33.696 -12.614 -24.167  0.00  0.00    +0.048 C 
BRANCH  17  18
ATOM     18  C   UNL     1      33.822 -11.120 -23.998  0.00  0.00    -0.020 C 
ATOM     19  C   UNL     1      32.843 -10.413 -23.301  0.00  0.00    -0.004 C 
ATOM     20  C   UNL     1      34.916 -10.446 -24.539  0.00  0.00    -0.004 C 
ATOM     21  C   UNL     1      32.958  -9.031 -23.146  0.00  0.00    -0.000 C 
ATOM     22  C   UNL     1      35.033  -9.065 -24.384  0.00  0.00    -0.000 C 
ATOM     23  C   UNL     1      34.053  -8.358 -23.688  0.00  0.00    -0.000 C 
ENDBRANCH  17  18
ENDBRANCH  12  17
ENDBRANCH   9  12
ENDBRANCH   3  10
BRANCH   7  24
ATOM     24  C   UNL     1      34.819 -19.973 -21.016  0.00  0.00    +0.151 C 
ATOM     25  C   UNL     1      33.432 -20.038 -20.419  0.00  0.00    +0.031 C 
BRANCH  24  27
ATOM     26  O   UNL     1      35.046 -22.516 -19.631  0.00  0.00    -0.226 OA
ATOM     27  N   UNL     1      35.830 -20.379 -20.087  0.00  0.00    -0.264 N 
ATOM     28  C   UNL     1      35.866 -21.618 -19.467  0.00  0.00    +0.402 C 
ATOM     29  H   UNL     1      36.547 -19.737 -19.876  0.00  0.00    +0.153 HD
BRANCH  28  30
ATOM     30  O   UNL     1      36.951 -21.699 -18.640  0.00  0.00    -0.430 OA
BRANCH  30  31
ATOM     31  C   UNL     1      36.747 -21.248 -17.296  0.00  0.00    +0.237 C 
BRANCH  31  32
ATOM     32  C   UNL     1      36.601 -22.441 -16.397  0.00  0.00    +0.021 C 
ATOM     33  C   UNL     1      37.728 -23.010 -15.804  0.00  0.00    -0.001 C 
ATOM     34  C   UNL     1      35.338 -22.980 -16.155  0.00  0.00    -0.001 C 
ATOM     35  C   UNL     1      37.592 -24.118 -14.969  0.00  0.00    -0.000 C 
ATOM     36  C   UNL     1      35.202 -24.090 -15.318  0.00  0.00    -0.000 C 
ATOM     37  C   UNL     1      36.329 -24.658 -14.725  0.00  0.00    -0.000 C 
ENDBRANCH  31  32
ENDBRANCH  30  31
ENDBRANCH  28  30
ENDBRANCH  24  27
ENDBRANCH   7  24
TORSDOF 11
ENDMDL
MODEL 6
REMARK VINA RESULT:     -10.4      1.901     10.787
REMARK  Name = 6323185
REMARK  11 active torsions:
REMARK  status: ('A' for Active; 'I' for Inactive)
REMARK    1  A    between atoms: C_3  and  C_10
REMARK    2  A    between atoms: C_7  and  C_24
REMARK    3  A    between atoms: N_9  and  C_12
REMARK    4  A    between atoms: C_12  and  C_13
REMARK    5  A    between atoms: C_12  and  C_17
REMARK    6  A    between atoms: C_13  and  O_15
REMARK    7  A    between atoms: C_17  and  C_18
REMARK    8  A    between atoms: C_24  and  N_27
REMARK    9  A    between atoms: C_28  and  O_30
REMARK   10  A    between atoms: O_30  and  C_31
REMARK   11  A    between atoms: C_31  and  C_32
REMARK                            x       y       z     vdW  Elec       q    Type
REMARK                         _______ _______ _______ _____ _____    ______ ____
ROOT
ATOM      1  O   UNL     1      31.581 -13.183 -21.387  0.00  0.00    -0.273 OA
ATOM      2  N   UNL     1      32.875 -12.237 -23.056  0.00  0.00    -0.272 N 
ATOM      3  C   UNL     1      32.925 -13.413 -23.916  0.00  0.00    +0.152 C 
ATOM      4  C   UNL     1      33.425 -12.892 -25.258  0.00  0.00    +0.031 C 
ATOM      5  C   UNL     1      34.285 -11.690 -24.874  0.00  0.00    +0.024 C 
ATOM      6  C   UNL     1      33.549 -11.101 -23.680  0.00  0.00    +0.094 C 
ATOM      7  C   UNL     1      32.137 -12.202 -21.884  0.00  0.00    +0.244 C 
ENDROOT
BRANCH   3  10
ATOM      8  O   UNL     1      34.701 -14.017 -22.440  0.00  0.00    -0.273 OA
ATOM      9  N   UNL     1      33.773 -15.650 -23.815  0.00  0.00    -0.302 N 
ATOM     10  C   UNL     1      33.894 -14.373 -23.295  0.00  0.00    +0.241 C 
ATOM     11  H   UNL     1      33.084 -15.814 -24.498  0.00  0.00    +0.150 HD
BRANCH   9  12
ATOM     12  C   UNL     1      34.607 -16.755 -23.400  0.00  0.00    +0.103 C 
BRANCH  12  13
ATOM     13  C   UNL     1      35.020 -17.612 -24.614  0.00  0.00    +0.129 C 
ATOM     14  C   UNL     1      34.251 -18.927 -24.707  0.00  0.00    +0.033 C 
BRANCH  13  15
ATOM     15  O   UNL     1      34.825 -16.872 -25.817  0.00  0.00    -0.383 OA
ATOM     16  H   UNL     1      34.066 -16.277 -25.711  0.00  0.00    +0.210 HD
ENDBRANCH  13  15
ENDBRANCH  12  13
BRANCH  12  17
ATOM     17  C   UNL     1      33.870 -17.554 -22.307  0.00  0.00    +0.048 C 
BRANCH  17  18
ATOM     18  C   UNL     1      34.744 -18.543 -21.576  0.00  0.00    -0.020 C 
ATOM     19  C   UNL     1      36.124 -18.347 -21.523  0.00  0.00    -0.004 C 
ATOM     20  C   UNL     1      34.173 -19.652 -20.954  0.00  0.00    -0.004 C 
ATOM     21  C   UNL     1      36.933 -19.262 -20.849  0.00  0.00    -0.000 C 
ATOM     22  C   UNL     1      34.980 -20.567 -20.278  0.00  0.00    -0.000 C 
ATOM     23  C   UNL     1      36.360 -20.372 -20.226  0.00  0.00    -0.000 C 
ENDBRANCH  17  18
ENDBRANCH  12  17
ENDBRANCH   9  12
ENDBRANCH   3  10
BRANCH   7  24
ATOM     24  C   UNL     1      32.052 -10.856 -21.210  0.00  0.00    +0.151 C 
ATOM     25  C   UNL     1      31.122 -10.910 -20.021  0.00  0.00    +0.031 C 
BRANCH  24  27
ATOM     26  O   UNL     1      32.010  -7.952 -21.180  0.00  0.00    -0.226 OA
ATOM     27  N   UNL     1      31.577  -9.975 -22.233  0.00  0.00    -0.264 N 
ATOM     28  C   UNL     1      31.592  -8.591 -22.140  0.00  0.00    +0.402 C 
ATOM     29  H   UNL     1      31.216 -10.376 -23.057  0.00  0.00    +0.153 HD
BRANCH  28  30
ATOM     30  O   UNL     1      31.072  -8.037 -23.275  0.00  0.00    -0.430 OA
BRANCH  30  31
ATOM     31  C   UNL     1      31.200  -6.615 -23.390  0.00  0.00    +0.237 C 
BRANCH  31  32
ATOM     32  C   UNL     1      32.342  -6.300 -24.312  0.00  0.00    +0.021 C 
ATOM     33  C   UNL     1      32.168  -5.388 -25.352  0.00  0.00    -0.001 C 
ATOM     34  C   UNL     1      33.577  -6.921 -24.128  0.00  0.00    -0.001 C 
ATOM     35  C   UNL     1      33.229  -5.096 -26.209  0.00  0.00    -0.000 C 
ATOM     36  C   UNL     1      34.639  -6.628 -24.985  0.00  0.00    -0.000 C 
ATOM     37  C   UNL     1      34.465  -5.715 -26.025  0.00  0.00    -0.000 C 
ENDBRANCH  31  32
ENDBRANCH  30  31
ENDBRANCH  28  30
ENDBRANCH  24  27
ENDBRANCH   7  24
TORSDOF 11
ENDMDL
MODEL 7
REMARK VINA RESULT:     -10.4      1.871      2.730
REMARK  Name = 6323185
REMARK  11 active torsions:
REMARK  status: ('A' for Active; 'I' for Inactive)
REMARK    1  A    between atoms: C_3  and  C_10
REMARK    2  A    between atoms: C_7  and  C_24
REMARK    3  A    between atoms: N_9  and  C_12
REMARK    4  A    between atoms: C_12  and  C_13
REMARK    5  A    between atoms: C_12  and  C_17
REMARK    6  A    between atoms: C_13  and  O_15
REMARK    7  A    between atoms: C_17  and  C_18
REMARK    8  A    between atoms: C_24  and  N_27
REMARK    9  A    between atoms: C_28  and  O_30
REMARK   10  A    between atoms: O_30  and  C_31
REMARK   11  A    between atoms: C_31  and  C_32
REMARK                            x       y       z     vdW  Elec       q    Type
REMARK                         _______ _______ _______ _____ _____    ______ ____
ROOT
ATOM      1  O   UNL     1      34.635 -13.579 -21.929  0.00  0.00    -0.273 OA
ATOM      2  N   UNL     1      33.524 -13.583 -23.959  0.00  0.00    -0.272 N 
ATOM      3  C   UNL     1      34.221 -12.439 -24.533  0.00  0.00    +0.152 C 
ATOM      4  C   UNL     1      33.898 -12.495 -26.021  0.00  0.00    +0.031 C 
ATOM      5  C   UNL     1      32.528 -13.167 -26.062  0.00  0.00    +0.024 C 
ATOM      6  C   UNL     1      32.597 -14.172 -24.922  0.00  0.00    +0.094 C 
ATOM      7  C   UNL     1      33.847 -14.105 -22.716  0.00  0.00    +0.244 C 
ENDROOT
BRANCH   3  10
ATOM      8  O   UNL     1      33.995 -10.081 -24.236  0.00  0.00    -0.273 OA
ATOM      9  N   UNL     1      32.764 -11.511 -22.874  0.00  0.00    -0.302 N 
ATOM     10  C   UNL     1      33.658 -11.209 -23.887  0.00  0.00    +0.241 C 
ATOM     11  H   UNL     1      32.572 -12.458 -22.686  0.00  0.00    +0.150 HD
BRANCH   9  12
ATOM     12  C   UNL     1      32.098 -10.503 -22.080  0.00  0.00    +0.103 C 
BRANCH  12  13
ATOM     13  C   UNL     1      31.438 -11.136 -20.838  0.00  0.00    +0.129 C 
ATOM     14  C   UNL     1      31.475 -10.227 -19.613  0.00  0.00    +0.033 C 
BRANCH  13  15
ATOM     15  O   UNL     1      30.083 -11.471 -21.129  0.00  0.00    -0.383 OA
ATOM     16  H   UNL     1      29.955 -11.493 -22.091  0.00  0.00    +0.210 HD
ENDBRANCH  13  15
ENDBRANCH  12  13
BRANCH  12  17
ATOM     17  C   UNL     1      31.109  -9.735 -22.977  0.00  0.00    +0.048 C 
BRANCH  17  18
ATOM     18  C   UNL     1      31.351  -8.247 -23.022  0.00  0.00    -0.020 C 
ATOM     19  C   UNL     1      31.977  -7.610 -21.951  0.00  0.00    -0.004 C 
ATOM     20  C   UNL     1      30.949  -7.508 -24.135  0.00  0.00    -0.004 C 
ATOM     21  C   UNL     1      32.200  -6.233 -21.992  0.00  0.00    -0.000 C 
ATOM     22  C   UNL     1      31.172  -6.132 -24.177  0.00  0.00    -0.000 C 
ATOM     23  C   UNL     1      31.797  -5.495 -23.105  0.00  0.00    -0.000 C 
ENDBRANCH  17  18
ENDBRANCH  12  17
ENDBRANCH   9  12
ENDBRANCH   3  10
BRANCH   7  24
ATOM     24  C   UNL     1      33.151 -15.392 -22.352  0.00  0.00    +0.151 C 
ATOM     25  C   UNL     1      32.531 -15.296 -20.978  0.00  0.00    +0.031 C 
BRANCH  24  27
ATOM     26  O   UNL     1      34.959 -16.219 -20.236  0.00  0.00    -0.226 OA
ATOM     27  N   UNL     1      34.181 -16.384 -22.416  0.00  0.00    -0.264 N 
ATOM     28  C   UNL     1      35.006 -16.721 -21.354  0.00  0.00    +0.402 C 
ATOM     29  H   UNL     1      34.313 -16.858 -23.270  0.00  0.00    +0.153 HD
BRANCH  28  30
ATOM     30  O   UNL     1      35.884 -17.698 -21.731  0.00  0.00    -0.430 OA
BRANCH  30  31
ATOM     31  C   UNL     1      35.305 -18.854 -22.347  0.00  0.00    +0.237 C 
BRANCH  31  32
ATOM     32  C   UNL     1      34.809 -19.782 -21.278  0.00  0.00    +0.021 C 
ATOM     33  C   UNL     1      33.443 -19.882 -21.019  0.00  0.00    -0.001 C 
ATOM     34  C   UNL     1      35.716 -20.545 -20.542  0.00  0.00    -0.001 C 
ATOM     35  C   UNL     1      32.983 -20.745 -20.024  0.00  0.00    -0.000 C 
ATOM     36  C   UNL     1      35.256 -21.408 -19.547  0.00  0.00    -0.000 C 
ATOM     37  C   UNL     1      33.889 -21.509 -19.288  0.00  0.00    -0.000 C 
ENDBRANCH  31  32
ENDBRANCH  30  31
ENDBRANCH  28  30
ENDBRANCH  24  27
ENDBRANCH   7  24
TORSDOF 11
ENDMDL
MODEL 8
REMARK VINA RESULT:     -10.3      1.584      2.857
REMARK  Name = 6323185
REMARK  11 active torsions:
REMARK  status: ('A' for Active; 'I' for Inactive)
REMARK    1  A    between atoms: C_3  and  C_10
REMARK    2  A    between atoms: C_7  and  C_24
REMARK    3  A    between atoms: N_9  and  C_12
REMARK    4  A    between atoms: C_12  and  C_13
REMARK    5  A    between atoms: C_12  and  C_17
REMARK    6  A    between atoms: C_13  and  O_15
REMARK    7  A    between atoms: C_17  and  C_18
REMARK    8  A    between atoms: C_24  and  N_27
REMARK    9  A    between atoms: C_28  and  O_30
REMARK   10  A    between atoms: O_30  and  C_31
REMARK   11  A    between atoms: C_31  and  C_32
REMARK                            x       y       z     vdW  Elec       q    Type
REMARK                         _______ _______ _______ _____ _____    ______ ____
ROOT
ATOM      1  O   UNL     1      32.984 -13.662 -23.114  0.00  0.00    -0.273 OA
ATOM      2  N   UNL     1      32.113 -12.598 -21.253  0.00  0.00    -0.272 N 
ATOM      3  C   UNL     1      31.249 -11.676 -21.977  0.00  0.00    +0.152 C 
ATOM      4  C   UNL     1      30.299 -11.124 -20.921  0.00  0.00    +0.031 C 
ATOM      5  C   UNL     1      31.121 -11.187 -19.636  0.00  0.00    +0.024 C 
ATOM      6  C   UNL     1      31.942 -12.456 -19.809  0.00  0.00    +0.094 C 
ATOM      7  C   UNL     1      32.863 -13.573 -21.891  0.00  0.00    +0.244 C 
ENDROOT
BRANCH   3  10
ATOM      8  O   UNL     1      32.954 -10.843 -23.426  0.00  0.00    -0.273 OA
ATOM      9  N   UNL     1      31.902  -9.372 -21.961  0.00  0.00    -0.302 N 
ATOM     10  C   UNL     1      32.127 -10.604 -22.549  0.00  0.00    +0.241 C 
ATOM     11  H   UNL     1      31.208  -9.304 -21.267  0.00  0.00    +0.150 HD
BRANCH   9  12
ATOM     12  C   UNL     1      32.635  -8.178 -22.320  0.00  0.00    +0.103 C 
BRANCH  12  13
ATOM     13  C   UNL     1      33.003  -7.366 -21.061  0.00  0.00    +0.129 C 
ATOM     14  C   UNL     1      32.101  -6.155 -20.846  0.00  0.00    +0.033 C 
BRANCH  13  15
ATOM     15  O   UNL     1      32.941  -8.205 -19.909  0.00  0.00    -0.383 OA
ATOM     16  H   UNL     1      33.659  -7.971 -19.300  0.00  0.00    +0.210 HD
ENDBRANCH  13  15
ENDBRANCH  12  13
BRANCH  12  17
ATOM     17  C   UNL     1      31.812  -7.377 -23.348  0.00  0.00    +0.048 C 
BRANCH  17  18
ATOM     18  C   UNL     1      32.650  -6.649 -24.369  0.00  0.00    -0.020 C 
ATOM     19  C   UNL     1      32.081  -5.640 -25.146  0.00  0.00    -0.004 C 
ATOM     20  C   UNL     1      33.994  -6.983 -24.535  0.00  0.00    -0.004 C 
ATOM     21  C   UNL     1      32.855  -4.967 -26.091  0.00  0.00    -0.000 C 
ATOM     22  C   UNL     1      34.769  -6.310 -25.479  0.00  0.00    -0.000 C 
ATOM     23  C   UNL     1      34.200  -5.303 -26.257  0.00  0.00    -0.000 C 
ENDBRANCH  17  18
ENDBRANCH  12  17
ENDBRANCH   9  12
ENDBRANCH   3  10
BRANCH   7  24
ATOM     24  C   UNL     1      33.561 -14.554 -20.983  0.00  0.00    +0.151 C 
ATOM     25  C   UNL     1      34.950 -14.069 -20.638  0.00  0.00    +0.031 C 
BRANCH  24  27
ATOM     26  O   UNL     1      35.251 -16.875 -20.546  0.00  0.00    -0.226 OA
ATOM     27  N   UNL     1      33.581 -15.777 -21.727  0.00  0.00    -0.264 N 
ATOM     28  C   UNL     1      34.424 -16.843 -21.451  0.00  0.00    +0.402 C 
ATOM     29  H   UNL     1      32.956 -15.867 -22.482  0.00  0.00    +0.153 HD
BRANCH  28  30
ATOM     30  O   UNL     1      34.202 -17.859 -22.337  0.00  0.00    -0.430 OA
BRANCH  30  31
ATOM     31  C   UNL     1      35.121 -18.956 -22.272  0.00  0.00    +0.237 C 
BRANCH  31  32
ATOM     32  C   UNL     1      34.684 -19.896 -21.188  0.00  0.00    +0.021 C 
ATOM     33  C   UNL     1      33.329 -20.037 -20.891  0.00  0.00    -0.001 C 
ATOM     34  C   UNL     1      35.634 -20.630 -20.478  0.00  0.00    -0.001 C 
ATOM     35  C   UNL     1      32.924 -20.912 -19.883  0.00  0.00    -0.000 C 
ATOM     36  C   UNL     1      35.228 -21.506 -19.470  0.00  0.00    -0.000 C 
ATOM     37  C   UNL     1      33.873 -21.647 -19.173  0.00  0.00    -0.000 C 
ENDBRANCH  31  32
ENDBRANCH  30  31
ENDBRANCH  28  30
ENDBRANCH  24  27
ENDBRANCH   7  24
TORSDOF 11
ENDMDL
MODEL 9
REMARK VINA RESULT:     -10.1      1.883      3.304
REMARK  Name = 6323185
REMARK  11 active torsions:
REMARK  status: ('A' for Active; 'I' for Inactive)
REMARK    1  A    between atoms: C_3  and  C_10
REMARK    2  A    between atoms: C_7  and  C_24
REMARK    3  A    between atoms: N_9  and  C_12
REMARK    4  A    between atoms: C_12  and  C_13
REMARK    5  A    between atoms: C_12  and  C_17
REMARK    6  A    between atoms: C_13  and  O_15
REMARK    7  A    between atoms: C_17  and  C_18
REMARK    8  A    between atoms: C_24  and  N_27
REMARK    9  A    between atoms: C_28  and  O_30
REMARK   10  A    between atoms: O_30  and  C_31
REMARK   11  A    between atoms: C_31  and  C_32
REMARK                            x       y       z     vdW  Elec       q    Type
REMARK                         _______ _______ _______ _____ _____    ______ ____
ROOT
ATOM      1  O   UNL     1      32.040 -13.713 -22.854  0.00  0.00    -0.273 OA
ATOM      2  N   UNL     1      31.955 -12.368 -20.973  0.00  0.00    -0.272 N 
ATOM      3  C   UNL     1      30.778 -11.605 -21.368  0.00  0.00    +0.152 C 
ATOM      4  C   UNL     1      30.325 -10.904 -20.092  0.00  0.00    +0.031 C 
ATOM      5  C   UNL     1      31.621 -10.726 -19.306  0.00  0.00    +0.024 C 
ATOM      6  C   UNL     1      32.407 -11.984 -19.639  0.00  0.00    +0.094 C 
ATOM      7  C   UNL     1      32.448 -13.419 -21.729  0.00  0.00    +0.244 C 
ENDROOT
BRANCH   3  10
ATOM      8  O   UNL     1      30.472  -9.739 -22.824  0.00  0.00    -0.273 OA
ATOM      9  N   UNL     1      32.507 -10.868 -22.851  0.00  0.00    -0.302 N 
ATOM     10  C   UNL     1      31.216 -10.626 -22.415  0.00  0.00    +0.241 C 
ATOM     11  H   UNL     1      33.007 -11.611 -22.444  0.00  0.00    +0.150 HD
BRANCH   9  12
ATOM     12  C   UNL     1      33.157 -10.079 -23.873  0.00  0.00    +0.103 C 
BRANCH  12  13
ATOM     13  C   UNL     1      33.963 -10.983 -24.829  0.00  0.00    +0.129 C 
ATOM     14  C   UNL     1      35.258 -10.337 -25.312  0.00  0.00    +0.033 C 
BRANCH  13  15
ATOM     15  O   UNL     1      34.269 -12.217 -24.184  0.00  0.00    -0.383 OA
ATOM     16  H   UNL     1      35.113 -12.134 -23.712  0.00  0.00    +0.210 HD
ENDBRANCH  13  15
ENDBRANCH  12  13
BRANCH  12  17
ATOM     17  C   UNL     1      34.010  -8.989 -23.195  0.00  0.00    +0.048 C 
BRANCH  17  18
ATOM     18  C   UNL     1      33.206  -7.841 -22.636  0.00  0.00    -0.020 C 
ATOM     19  C   UNL     1      32.669  -6.883 -23.496  0.00  0.00    -0.004 C 
ATOM     20  C   UNL     1      32.999  -7.739 -21.261  0.00  0.00    -0.004 C 
ATOM     21  C   UNL     1      31.926  -5.821 -22.980  0.00  0.00    -0.000 C 
ATOM     22  C   UNL     1      32.256  -6.678 -20.744  0.00  0.00    -0.000 C 
ATOM     23  C   UNL     1      31.720  -5.719 -21.603  0.00  0.00    -0.000 C 
ENDBRANCH  17  18
ENDBRANCH  12  17
ENDBRANCH   9  12
ENDBRANCH   3  10
BRANCH   7  24
ATOM     24  C   UNL     1      33.561 -14.211 -21.091  0.00  0.00    +0.151 C 
ATOM     25  C   UNL     1      34.893 -13.862 -21.713  0.00  0.00    +0.031 C 
BRANCH  24  27
ATOM     26  O   UNL     1      35.064 -16.591 -20.375  0.00  0.00    -0.226 OA
ATOM     27  N   UNL     1      33.198 -15.578 -21.313  0.00  0.00    -0.264 N 
ATOM     28  C   UNL     1      33.977 -16.662 -20.939  0.00  0.00    +0.402 C 
ATOM     29  H   UNL     1      32.340 -15.761 -21.761  0.00  0.00    +0.153 HD
BRANCH  28  30
ATOM     30  O   UNL     1      33.359 -17.829 -21.289  0.00  0.00    -0.430 OA
BRANCH  30  31
ATOM     31  C   UNL     1      34.206 -18.840 -21.849  0.00  0.00    +0.237 C 
BRANCH  31  32
ATOM     32  C   UNL     1      34.371 -19.947 -20.849  0.00  0.00    +0.021 C 
ATOM     33  C   UNL     1      33.249 -20.526 -20.257  0.00  0.00    -0.001 C 
ATOM     34  C   UNL     1      35.648 -20.398 -20.513  0.00  0.00    -0.001 C 
ATOM     35  C   UNL     1      33.404 -21.555 -19.328  0.00  0.00    -0.000 C 
ATOM     36  C   UNL     1      35.802 -21.428 -19.584  0.00  0.00    -0.000 C 
ATOM     37  C   UNL     1      34.680 -22.006 -18.992  0.00  0.00    -0.000 C 
ENDBRANCH  31  32
ENDBRANCH  30  31
ENDBRANCH  28  30
ENDBRANCH  24  27
ENDBRANCH   7  24
TORSDOF 11
ENDMDL
