MODEL 1
REMARK VINA RESULT:      -8.1      0.000      0.000
REMARK  Name = 97577
REMARK  6 active torsions:
REMARK  status: ('A' for Active; 'I' for Inactive)
REMARK    1  A    between atoms: C2*_2  and  O2*_16
REMARK    2  A    between atoms: C3*_3  and  O3*_18
REMARK    3  A    between atoms: C1*_4  and  N_7
REMARK    4  A    between atoms: C4*_5  and  C5*_20
REMARK    5  A    between atoms: C_12  and  N_13
REMARK    6  A    between atoms: C5*_20  and  O5*_21
REMARK                            x       y       z     vdW  Elec       q    Type
REMARK                         _______ _______ _______ _____ _____    ______ ____
ROOT
ATOM      1  O4* UNL     1      35.130 -17.024 -20.748  0.00  0.00    -0.333 OA
ATOM      2  C2* UNL     1      34.492 -17.993 -22.813  0.00  0.00    +0.187 C 
ATOM      3  C3* UNL     1      34.540 -16.489 -22.977  0.00  0.00    +0.171 C 
ATOM      4  C1* UNL     1      35.314 -18.204 -21.551  0.00  0.00    +0.228 C 
ATOM      5  C4* UNL     1      34.471 -16.008 -21.535  0.00  0.00    +0.175 C 
ENDROOT
BRANCH   4   7
ATOM      6  O   UNL     1      37.015 -19.998 -20.157  0.00  0.00    -0.269 OA
ATOM      7  N   UNL     1      34.868 -19.378 -20.845  0.00  0.00    -0.229 N 
ATOM      8  C   UNL     1      35.802 -20.199 -20.186  0.00  0.00    +0.256 C 
ATOM      9  C   UNL     1      33.512 -19.698 -20.818  0.00  0.00    +0.071 C 
ATOM     10  C   UNL     1      35.255 -21.397 -19.478  0.00  0.00    +0.072 C 
ATOM     11  C   UNL     1      33.040 -20.774 -20.178  0.00  0.00    +0.030 C 
ATOM     12  C   UNL     1      33.938 -21.670 -19.474  0.00  0.00    +0.047 C 
BRANCH  12  13
ATOM     13  N   UNL     1      33.395 -22.752 -18.840  0.00  0.00    -0.357 N 
ATOM     14  H   UNL     1      32.656 -23.249 -19.260  0.00  0.00    +0.142 HD
ATOM     15  H   UNL     1      33.742 -23.034 -17.963  0.00  0.00    +0.142 HD
ENDBRANCH  12  13
ENDBRANCH   4   7
BRANCH   2  16
ATOM     16  O2* UNL     1      35.029 -18.671 -23.931  0.00  0.00    -0.378 OA
ATOM     17  H2* UNL     1      34.535 -19.491 -24.081  0.00  0.00    +0.211 HD
ENDBRANCH   2  16
BRANCH   3  18
ATOM     18  O3* UNL     1      35.802 -16.090 -23.514  0.00  0.00    -0.379 OA
ATOM     19  H3* UNL     1      35.891 -15.127 -23.447  0.00  0.00    +0.211 HD
ENDBRANCH   3  18
BRANCH   5  20
ATOM     20  C5* UNL     1      33.046 -15.858 -21.018  0.00  0.00    +0.169 C 
BRANCH  20  21
ATOM     21  O5* UNL     1      32.339 -14.989 -21.884  0.00  0.00    -0.379 OA
ATOM     22  H5* UNL     1      32.932 -14.678 -22.586  0.00  0.00    +0.211 HD
ENDBRANCH  20  21
ENDBRANCH   5  20
TORSDOF 6
ENDMDL
MODEL 2
REMARK VINA RESULT:      -7.5      6.733     10.078
REMARK  Name = 97577
REMARK  6 active torsions:
REMARK  status: ('A' for Active; 'I' for Inactive)
REMARK    1  A    between atoms: C2*_2  and  O2*_16
REMARK    2  A    between atoms: C3*_3  and  O3*_18
REMARK    3  A    between atoms: C1*_4  and  N_7
REMARK    4  A    between atoms: C4*_5  and  C5*_20
REMARK    5  A    between atoms: C_12  and  N_13
REMARK    6  A    between atoms: C5*_20  and  O5*_21
REMARK                            x       y       z     vdW  Elec       q    Type
REMARK                         _______ _______ _______ _____ _____    ______ ____
ROOT
ATOM      1  O4* UNL     1      37.910 -24.063 -13.639  0.00  0.00    -0.333 OA
ATOM      2  C2* UNL     1      36.834 -25.818 -14.812  0.00  0.00    +0.187 C 
ATOM      3  C3* UNL     1      37.667 -26.417 -13.699  0.00  0.00    +0.171 C 
ATOM      4  C1* UNL     1      36.710 -24.367 -14.372  0.00  0.00    +0.228 C 
ATOM      5  C4* UNL     1      38.634 -25.285 -13.379  0.00  0.00    +0.175 C 
ENDROOT
BRANCH   4   7
ATOM      6  O   UNL     1      34.294 -23.934 -15.799  0.00  0.00    -0.269 OA
ATOM      7  N   UNL     1      36.574 -23.501 -15.516  0.00  0.00    -0.229 N 
ATOM      8  C   UNL     1      35.324 -23.360 -16.148  0.00  0.00    +0.256 C 
ATOM      9  C   UNL     1      37.683 -22.805 -15.994  0.00  0.00    +0.071 C 
ATOM     10  C   UNL     1      35.272 -22.442 -17.326  0.00  0.00    +0.072 C 
ATOM     11  C   UNL     1      37.617 -21.987 -17.050  0.00  0.00    +0.030 C 
ATOM     12  C   UNL     1      36.365 -21.787 -17.755  0.00  0.00    +0.047 C 
BRANCH  12  13
ATOM     13  N   UNL     1      36.363 -20.938 -18.827  0.00  0.00    -0.357 N 
ATOM     14  H   UNL     1      37.108 -20.956 -19.470  0.00  0.00    +0.142 HD
ATOM     15  H   UNL     1      35.617 -20.309 -18.955  0.00  0.00    +0.142 HD
ENDBRANCH  12  13
ENDBRANCH   4   7
BRANCH   2  16
ATOM     16  O2* UNL     1      35.579 -26.455 -14.942  0.00  0.00    -0.378 OA
ATOM     17  H2* UNL     1      35.709 -27.414 -15.008  0.00  0.00    +0.211 HD
ENDBRANCH   2  16
BRANCH   3  18
ATOM     18  O3* UNL     1      36.860 -26.646 -12.544  0.00  0.00    -0.379 OA
ATOM     19  H3* UNL     1      37.204 -27.410 -12.056  0.00  0.00    +0.211 HD
ENDBRANCH   3  18
BRANCH   5  20
ATOM     20  C5* UNL     1      39.881 -25.293 -14.254  0.00  0.00    +0.169 C 
BRANCH  20  21
ATOM     21  O5* UNL     1      40.191 -26.633 -14.589  0.00  0.00    -0.379 OA
ATOM     22  H5* UNL     1      40.343 -27.143 -13.778  0.00  0.00    +0.211 HD
ENDBRANCH  20  21
ENDBRANCH   5  20
TORSDOF 6
ENDMDL
MODEL 3
REMARK VINA RESULT:      -7.3      7.498      9.358
REMARK  Name = 97577
REMARK  6 active torsions:
REMARK  status: ('A' for Active; 'I' for Inactive)
REMARK    1  A    between atoms: C2*_2  and  O2*_16
REMARK    2  A    between atoms: C3*_3  and  O3*_18
REMARK    3  A    between atoms: C1*_4  and  N_7
REMARK    4  A    between atoms: C4*_5  and  C5*_20
REMARK    5  A    between atoms: C_12  and  N_13
REMARK    6  A    between atoms: C5*_20  and  O5*_21
REMARK                            x       y       z     vdW  Elec       q    Type
REMARK                         _______ _______ _______ _____ _____    ______ ____
ROOT
ATOM      1  O4* UNL     1      35.891 -23.399 -13.837  0.00  0.00    -0.333 OA
ATOM      2  C2* UNL     1      35.928 -25.372 -15.147  0.00  0.00    +0.187 C 
ATOM      3  C3* UNL     1      37.329 -25.095 -14.647  0.00  0.00    +0.171 C 
ATOM      4  C1* UNL     1      35.081 -24.529 -14.206  0.00  0.00    +0.228 C 
ATOM      5  C4* UNL     1      37.249 -23.622 -14.273  0.00  0.00    +0.175 C 
ENDROOT
BRANCH   4   7
ATOM      6  O   UNL     1      32.480 -24.714 -13.084  0.00  0.00    -0.269 OA
ATOM      7  N   UNL     1      33.871 -24.099 -14.861  0.00  0.00    -0.229 N 
ATOM      8  C   UNL     1      32.631 -24.239 -14.208  0.00  0.00    +0.256 C 
ATOM      9  C   UNL     1      33.931 -23.548 -16.139  0.00  0.00    +0.071 C 
ATOM     10  C   UNL     1      31.426 -23.769 -14.958  0.00  0.00    +0.072 C 
ATOM     11  C   UNL     1      32.842 -23.132 -16.794  0.00  0.00    +0.030 C 
ATOM     12  C   UNL     1      31.528 -23.240 -16.190  0.00  0.00    +0.047 C 
BRANCH  12  13
ATOM     13  N   UNL     1      30.454 -22.797 -16.911  0.00  0.00    -0.357 N 
ATOM     14  H   UNL     1      30.591 -22.204 -17.685  0.00  0.00    +0.142 HD
ATOM     15  H   UNL     1      29.543 -23.070 -16.656  0.00  0.00    +0.142 HD
ENDBRANCH  12  13
ENDBRANCH   4   7
BRANCH   2  16
ATOM     16  O2* UNL     1      35.601 -26.746 -15.088  0.00  0.00    -0.378 OA
ATOM     17  H2* UNL     1      35.210 -26.949 -14.224  0.00  0.00    +0.211 HD
ENDBRANCH   2  16
BRANCH   3  18
ATOM     18  O3* UNL     1      37.587 -25.838 -13.456  0.00  0.00    -0.379 OA
ATOM     19  H3* UNL     1      38.325 -26.447 -13.608  0.00  0.00    +0.211 HD
ENDBRANCH   3  18
BRANCH   5  20
ATOM     20  C5* UNL     1      37.532 -22.687 -15.442  0.00  0.00    +0.169 C 
BRANCH  20  21
ATOM     21  O5* UNL     1      38.630 -23.197 -16.175  0.00  0.00    -0.379 OA
ATOM     22  H5* UNL     1      39.123 -23.826 -15.624  0.00  0.00    +0.211 HD
ENDBRANCH  20  21
ENDBRANCH   5  20
TORSDOF 6
ENDMDL
MODEL 4
REMARK VINA RESULT:      -7.3      6.523      8.861
REMARK  Name = 97577
REMARK  6 active torsions:
REMARK  status: ('A' for Active; 'I' for Inactive)
REMARK    1  A    between atoms: C2*_2  and  O2*_16
REMARK    2  A    between atoms: C3*_3  and  O3*_18
REMARK    3  A    between atoms: C1*_4  and  N_7
REMARK    4  A    between atoms: C4*_5  and  C5*_20
REMARK    5  A    between atoms: C_12  and  N_13
REMARK    6  A    between atoms: C5*_20  and  O5*_21
REMARK                            x       y       z     vdW  Elec       q    Type
REMARK                         _______ _______ _______ _____ _____    ______ ____
ROOT
ATOM      1  O4* UNL     1      35.485 -24.914 -14.351  0.00  0.00    -0.333 OA
ATOM      2  C2* UNL     1      36.216 -22.747 -14.967  0.00  0.00    +0.187 C 
ATOM      3  C3* UNL     1      37.212 -23.337 -13.992  0.00  0.00    +0.171 C 
ATOM      4  C1* UNL     1      35.469 -23.982 -15.447  0.00  0.00    +0.228 C 
ATOM      5  C4* UNL     1      36.401 -24.446 -13.338  0.00  0.00    +0.175 C 
ENDROOT
BRANCH   4   7
ATOM      6  O   UNL     1      34.675 -23.030 -18.000  0.00  0.00    -0.269 OA
ATOM      7  N   UNL     1      34.117 -23.646 -15.815  0.00  0.00    -0.229 N 
ATOM      8  C   UNL     1      33.837 -23.182 -17.114  0.00  0.00    +0.256 C 
ATOM      9  C   UNL     1      33.091 -23.781 -14.882  0.00  0.00    +0.071 C 
ATOM     10  C   UNL     1      32.408 -22.856 -17.412  0.00  0.00    +0.072 C 
ATOM     11  C   UNL     1      31.818 -23.485 -15.167  0.00  0.00    +0.030 C 
ATOM     12  C   UNL     1      31.446 -23.002 -16.484  0.00  0.00    +0.047 C 
BRANCH  12  13
ATOM     13  N   UNL     1      30.129 -22.717 -16.713  0.00  0.00    -0.357 N 
ATOM     14  H   UNL     1      29.481 -22.755 -15.972  0.00  0.00    +0.142 HD
ATOM     15  H   UNL     1      29.828 -22.476 -17.618  0.00  0.00    +0.142 HD
ENDBRANCH  12  13
ENDBRANCH   4   7
BRANCH   2  16
ATOM     16  O2* UNL     1      36.849 -22.051 -16.022  0.00  0.00    -0.378 OA
ATOM     17  H2* UNL     1      37.255 -21.241 -15.678  0.00  0.00    +0.211 HD
ENDBRANCH   2  16
BRANCH   3  18
ATOM     18  O3* UNL     1      38.297 -23.942 -14.696  0.00  0.00    -0.379 OA
ATOM     19  H3* UNL     1      38.091 -24.874 -14.867  0.00  0.00    +0.211 HD
ENDBRANCH   3  18
BRANCH   5  20
ATOM     20  C5* UNL     1      35.584 -23.970 -12.143  0.00  0.00    +0.169 C 
BRANCH  20  21
ATOM     21  O5* UNL     1      34.596 -24.943 -11.853  0.00  0.00    -0.379 OA
ATOM     22  H5* UNL     1      34.612 -25.148 -10.905  0.00  0.00    +0.211 HD
ENDBRANCH  20  21
ENDBRANCH   5  20
TORSDOF 6
ENDMDL
MODEL 5
REMARK VINA RESULT:      -7.3      7.434      9.913
REMARK  Name = 97577
REMARK  6 active torsions:
REMARK  status: ('A' for Active; 'I' for Inactive)
REMARK    1  A    between atoms: C2*_2  and  O2*_16
REMARK    2  A    between atoms: C3*_3  and  O3*_18
REMARK    3  A    between atoms: C1*_4  and  N_7
REMARK    4  A    between atoms: C4*_5  and  C5*_20
REMARK    5  A    between atoms: C_12  and  N_13
REMARK    6  A    between atoms: C5*_20  and  O5*_21
REMARK                            x       y       z     vdW  Elec       q    Type
REMARK                         _______ _______ _______ _____ _____    ______ ____
ROOT
ATOM      1  O4* UNL     1      36.829 -26.091 -14.447  0.00  0.00    -0.333 OA
ATOM      2  C2* UNL     1      37.707 -23.943 -14.925  0.00  0.00    +0.187 C 
ATOM      3  C3* UNL     1      38.846 -24.854 -14.523  0.00  0.00    +0.171 C 
ATOM      4  C1* UNL     1      36.612 -24.937 -15.279  0.00  0.00    +0.228 C 
ATOM      5  C4* UNL     1      38.117 -25.979 -13.803  0.00  0.00    +0.175 C 
ENDROOT
BRANCH   4   7
ATOM      6  O   UNL     1      35.210 -23.264 -17.094  0.00  0.00    -0.269 OA
ATOM      7  N   UNL     1      35.311 -24.368 -15.035  0.00  0.00    -0.229 N 
ATOM      8  C   UNL     1      34.707 -23.549 -16.009  0.00  0.00    +0.256 C 
ATOM      9  C   UNL     1      34.654 -24.628 -13.834  0.00  0.00    +0.071 C 
ATOM     10  C   UNL     1      33.357 -23.000 -15.674  0.00  0.00    +0.072 C 
ATOM     11  C   UNL     1      33.446 -24.127 -13.552  0.00  0.00    +0.030 C 
ATOM     12  C   UNL     1      32.757 -23.276 -14.504  0.00  0.00    +0.047 C 
BRANCH  12  13
ATOM     13  N   UNL     1      31.525 -22.796 -14.157  0.00  0.00    -0.357 N 
ATOM     14  H   UNL     1      30.715 -23.167 -14.579  0.00  0.00    +0.142 HD
ATOM     15  H   UNL     1      31.446 -22.080 -13.487  0.00  0.00    +0.142 HD
ENDBRANCH  12  13
ENDBRANCH   4   7
BRANCH   2  16
ATOM     16  O2* UNL     1      38.050 -23.104 -16.009  0.00  0.00    -0.378 OA
ATOM     17  H2* UNL     1      38.079 -22.182 -15.708  0.00  0.00    +0.211 HD
ENDBRANCH   2  16
BRANCH   3  18
ATOM     18  O3* UNL     1      39.471 -25.407 -15.683  0.00  0.00    -0.379 OA
ATOM     19  H3* UNL     1      40.146 -24.793 -16.010  0.00  0.00    +0.211 HD
ENDBRANCH   3  18
BRANCH   5  20
ATOM     20  C5* UNL     1      37.884 -25.697 -12.324  0.00  0.00    +0.169 C 
BRANCH  20  21
ATOM     21  O5* UNL     1      36.829 -26.522 -11.866  0.00  0.00    -0.379 OA
ATOM     22  H5* UNL     1      36.501 -27.066 -12.600  0.00  0.00    +0.211 HD
ENDBRANCH  20  21
ENDBRANCH   5  20
TORSDOF 6
ENDMDL
MODEL 6
REMARK VINA RESULT:      -7.2      6.940      9.532
REMARK  Name = 97577
REMARK  6 active torsions:
REMARK  status: ('A' for Active; 'I' for Inactive)
REMARK    1  A    between atoms: C2*_2  and  O2*_16
REMARK    2  A    between atoms: C3*_3  and  O3*_18
REMARK    3  A    between atoms: C1*_4  and  N_7
REMARK    4  A    between atoms: C4*_5  and  C5*_20
REMARK    5  A    between atoms: C_12  and  N_13
REMARK    6  A    between atoms: C5*_20  and  O5*_21
REMARK                            x       y       z     vdW  Elec       q    Type
REMARK                         _______ _______ _______ _____ _____    ______ ____
ROOT
ATOM      1  O4* UNL     1      36.477 -24.521 -15.697  0.00  0.00    -0.333 OA
ATOM      2  C2* UNL     1      35.892 -24.181 -13.426  0.00  0.00    +0.187 C 
ATOM      3  C3* UNL     1      37.269 -24.807 -13.484  0.00  0.00    +0.171 C 
ATOM      4  C1* UNL     1      35.726 -23.643 -14.839  0.00  0.00    +0.228 C 
ATOM      5  C4* UNL     1      37.293 -25.396 -14.888  0.00  0.00    +0.175 C 
ENDROOT
BRANCH   4   7
ATOM      6  O   UNL     1      34.747 -22.854 -17.384  0.00  0.00    -0.269 OA
ATOM      7  N   UNL     1      34.335 -23.626 -15.216  0.00  0.00    -0.229 N 
ATOM      8  C   UNL     1      33.962 -23.215 -16.510  0.00  0.00    +0.256 C 
ATOM      9  C   UNL     1      33.363 -24.016 -14.297  0.00  0.00    +0.071 C 
ATOM     10  C   UNL     1      32.499 -23.228 -16.817  0.00  0.00    +0.072 C 
ATOM     11  C   UNL     1      32.058 -24.020 -14.590  0.00  0.00    +0.030 C 
ATOM     12  C   UNL     1      31.592 -23.613 -15.901  0.00  0.00    +0.047 C 
BRANCH  12  13
ATOM     13  N   UNL     1      30.246 -23.640 -16.139  0.00  0.00    -0.357 N 
ATOM     14  H   UNL     1      29.843 -22.991 -16.761  0.00  0.00    +0.142 HD
ATOM     15  H   UNL     1      29.680 -24.307 -15.689  0.00  0.00    +0.142 HD
ENDBRANCH  12  13
ENDBRANCH   4   7
BRANCH   2  16
ATOM     16  O2* UNL     1      35.807 -23.167 -12.446  0.00  0.00    -0.378 OA
ATOM     17  H2* UNL     1      36.109 -22.326 -12.823  0.00  0.00    +0.211 HD
ENDBRANCH   2  16
BRANCH   3  18
ATOM     18  O3* UNL     1      38.276 -23.798 -13.414  0.00  0.00    -0.379 OA
ATOM     19  H3* UNL     1      38.987 -24.006 -14.039  0.00  0.00    +0.211 HD
ENDBRANCH   3  18
BRANCH   5  20
ATOM     20  C5* UNL     1      36.703 -26.799 -14.962  0.00  0.00    +0.169 C 
BRANCH  20  21
ATOM     21  O5* UNL     1      36.808 -27.264 -16.296  0.00  0.00    -0.379 OA
ATOM     22  H5* UNL     1      37.098 -26.537 -16.870  0.00  0.00    +0.211 HD
ENDBRANCH  20  21
ENDBRANCH   5  20
TORSDOF 6
ENDMDL
MODEL 7
REMARK VINA RESULT:      -7.2      7.628     10.023
REMARK  Name = 97577
REMARK  6 active torsions:
REMARK  status: ('A' for Active; 'I' for Inactive)
REMARK    1  A    between atoms: C2*_2  and  O2*_16
REMARK    2  A    between atoms: C3*_3  and  O3*_18
REMARK    3  A    between atoms: C1*_4  and  N_7
REMARK    4  A    between atoms: C4*_5  and  C5*_20
REMARK    5  A    between atoms: C_12  and  N_13
REMARK    6  A    between atoms: C5*_20  and  O5*_21
REMARK                            x       y       z     vdW  Elec       q    Type
REMARK                         _______ _______ _______ _____ _____    ______ ____
ROOT
ATOM      1  O4* UNL     1      37.303 -23.166 -13.753  0.00  0.00    -0.333 OA
ATOM      2  C2* UNL     1      36.000 -24.918 -12.830  0.00  0.00    +0.187 C 
ATOM      3  C3* UNL     1      37.406 -25.015 -12.278  0.00  0.00    +0.171 C 
ATOM      4  C1* UNL     1      35.960 -23.489 -13.350  0.00  0.00    +0.228 C 
ATOM      5  C4* UNL     1      38.202 -24.193 -13.282  0.00  0.00    +0.175 C 
ENDROOT
BRANCH   4   7
ATOM      6  O   UNL     1      33.137 -23.735 -13.166  0.00  0.00    -0.269 OA
ATOM      7  N   UNL     1      35.051 -23.379 -14.463  0.00  0.00    -0.229 N 
ATOM      8  C   UNL     1      33.665 -23.519 -14.255  0.00  0.00    +0.256 C 
ATOM      9  C   UNL     1      35.546 -23.136 -15.742  0.00  0.00    +0.071 C 
ATOM     10  C   UNL     1      32.793 -23.390 -15.463  0.00  0.00    +0.072 C 
ATOM     11  C   UNL     1      34.751 -23.025 -16.811  0.00  0.00    +0.030 C 
ATOM     12  C   UNL     1      33.312 -23.154 -16.681  0.00  0.00    +0.047 C 
BRANCH  12  13
ATOM     13  N   UNL     1      32.553 -23.029 -17.811  0.00  0.00    -0.357 N 
ATOM     14  H   UNL     1      32.046 -22.201 -17.975  0.00  0.00    +0.142 HD
ATOM     15  H   UNL     1      32.513 -23.767 -18.461  0.00  0.00    +0.142 HD
ENDBRANCH  12  13
ENDBRANCH   4   7
BRANCH   2  16
ATOM     16  O2* UNL     1      35.020 -25.165 -11.844  0.00  0.00    -0.378 OA
ATOM     17  H2* UNL     1      34.429 -24.399 -11.775  0.00  0.00    +0.211 HD
ENDBRANCH   2  16
BRANCH   3  18
ATOM     18  O3* UNL     1      37.487 -24.359 -11.012  0.00  0.00    -0.379 OA
ATOM     19  H3* UNL     1      37.793 -24.989 -10.341  0.00  0.00    +0.211 HD
ENDBRANCH   3  18
BRANCH   5  20
ATOM     20  C5* UNL     1      38.670 -25.002 -14.485  0.00  0.00    +0.169 C 
BRANCH  20  21
ATOM     21  O5* UNL     1      39.005 -24.107 -15.530  0.00  0.00    -0.379 OA
ATOM     22  H5* UNL     1      38.839 -23.196 -15.242  0.00  0.00    +0.211 HD
ENDBRANCH  20  21
ENDBRANCH   5  20
TORSDOF 6
ENDMDL
MODEL 8
REMARK VINA RESULT:      -7.1      5.932      9.424
REMARK  Name = 97577
REMARK  6 active torsions:
REMARK  status: ('A' for Active; 'I' for Inactive)
REMARK    1  A    between atoms: C2*_2  and  O2*_16
REMARK    2  A    between atoms: C3*_3  and  O3*_18
REMARK    3  A    between atoms: C1*_4  and  N_7
REMARK    4  A    between atoms: C4*_5  and  C5*_20
REMARK    5  A    between atoms: C_12  and  N_13
REMARK    6  A    between atoms: C5*_20  and  O5*_21
REMARK                            x       y       z     vdW  Elec       q    Type
REMARK                         _______ _______ _______ _____ _____    ______ ____
ROOT
ATOM      1  O4* UNL     1      37.597 -24.626 -15.074  0.00  0.00    -0.333 OA
ATOM      2  C2* UNL     1      35.840 -24.214 -13.539  0.00  0.00    +0.187 C 
ATOM      3  C3* UNL     1      36.852 -25.129 -12.884  0.00  0.00    +0.171 C 
ATOM      4  C1* UNL     1      36.641 -23.622 -14.688  0.00  0.00    +0.228 C 
ATOM      5  C4* UNL     1      37.610 -25.678 -14.084  0.00  0.00    +0.175 C 
ENDROOT
BRANCH   4   7
ATOM      6  O   UNL     1      37.365 -21.952 -16.866  0.00  0.00    -0.269 OA
ATOM      7  N   UNL     1      35.776 -23.289 -15.791  0.00  0.00    -0.229 N 
ATOM      8  C   UNL     1      36.241 -22.448 -16.821  0.00  0.00    +0.256 C 
ATOM      9  C   UNL     1      34.480 -23.798 -15.835  0.00  0.00    +0.071 C 
ATOM     10  C   UNL     1      35.279 -22.153 -17.927  0.00  0.00    +0.072 C 
ATOM     11  C   UNL     1      33.632 -23.522 -16.833  0.00  0.00    +0.030 C 
ATOM     12  C   UNL     1      34.036 -22.666 -17.932  0.00  0.00    +0.047 C 
BRANCH  12  13
ATOM     13  N   UNL     1      33.125 -22.423 -18.922  0.00  0.00    -0.357 N 
ATOM     14  H   UNL     1      33.103 -22.997 -19.722  0.00  0.00    +0.142 HD
ATOM     15  H   UNL     1      32.493 -21.674 -18.835  0.00  0.00    +0.142 HD
ENDBRANCH  12  13
ENDBRANCH   4   7
BRANCH   2  16
ATOM     16  O2* UNL     1      35.356 -23.229 -12.650  0.00  0.00    -0.378 OA
ATOM     17  H2* UNL     1      34.875 -23.655 -11.923  0.00  0.00    +0.211 HD
ENDBRANCH   2  16
BRANCH   3  18
ATOM     18  O3* UNL     1      37.768 -24.371 -12.095  0.00  0.00    -0.379 OA
ATOM     19  H3* UNL     1      37.580 -23.426 -12.201  0.00  0.00    +0.211 HD
ENDBRANCH   3  18
BRANCH   5  20
ATOM     20  C5* UNL     1      36.960 -26.912 -14.695  0.00  0.00    +0.169 C 
BRANCH  20  21
ATOM     21  O5* UNL     1      37.170 -26.890 -16.096  0.00  0.00    -0.379 OA
ATOM     22  H5* UNL     1      36.623 -26.194 -16.494  0.00  0.00    +0.211 HD
ENDBRANCH  20  21
ENDBRANCH   5  20
TORSDOF 6
ENDMDL
MODEL 9
REMARK VINA RESULT:      -7.0      2.873      4.028
REMARK  Name = 97577
REMARK  6 active torsions:
REMARK  status: ('A' for Active; 'I' for Inactive)
REMARK    1  A    between atoms: C2*_2  and  O2*_16
REMARK    2  A    between atoms: C3*_3  and  O3*_18
REMARK    3  A    between atoms: C1*_4  and  N_7
REMARK    4  A    between atoms: C4*_5  and  C5*_20
REMARK    5  A    between atoms: C_12  and  N_13
REMARK    6  A    between atoms: C5*_20  and  O5*_21
REMARK                            x       y       z     vdW  Elec       q    Type
REMARK                         _______ _______ _______ _____ _____    ______ ____
ROOT
ATOM      1  O4* UNL     1      34.502 -14.126 -23.003  0.00  0.00    -0.333 OA
ATOM      2  C2* UNL     1      33.210 -15.080 -24.743  0.00  0.00    +0.187 C 
ATOM      3  C3* UNL     1      32.898 -13.602 -24.662  0.00  0.00    +0.171 C 
ATOM      4  C1* UNL     1      34.529 -15.170 -23.992  0.00  0.00    +0.228 C 
ATOM      5  C4* UNL     1      33.385 -13.249 -23.264  0.00  0.00    +0.175 C 
ENDROOT
BRANCH   4   7
ATOM      6  O   UNL     1      34.905 -17.611 -25.391  0.00  0.00    -0.269 OA
ATOM      7  N   UNL     1      34.670 -16.462 -23.368  0.00  0.00    -0.229 N 
ATOM      8  C   UNL     1      34.854 -17.610 -24.163  0.00  0.00    +0.256 C 
ATOM      9  C   UNL     1      34.624 -16.571 -21.980  0.00  0.00    +0.071 C 
ATOM     10  C   UNL     1      34.992 -18.909 -23.436  0.00  0.00    +0.072 C 
ATOM     11  C   UNL     1      34.750 -17.743 -21.347  0.00  0.00    +0.030 C 
ATOM     12  C   UNL     1      34.944 -18.971 -22.094  0.00  0.00    +0.047 C 
BRANCH  12  13
ATOM     13  N   UNL     1      35.066 -20.136 -21.389  0.00  0.00    -0.357 N 
ATOM     14  H   UNL     1      35.683 -20.838 -21.701  0.00  0.00    +0.142 HD
ATOM     15  H   UNL     1      34.537 -20.274 -20.570  0.00  0.00    +0.142 HD
ENDBRANCH  12  13
ENDBRANCH   4   7
BRANCH   2  16
ATOM     16  O2* UNL     1      33.313 -15.532 -26.078  0.00  0.00    -0.378 OA
ATOM     17  H2* UNL     1      33.854 -14.911 -26.590  0.00  0.00    +0.211 HD
ENDBRANCH   2  16
BRANCH   3  18
ATOM     18  O3* UNL     1      33.691 -12.875 -25.601  0.00  0.00    -0.379 OA
ATOM     19  H3* UNL     1      33.132 -12.243 -26.077  0.00  0.00    +0.211 HD
ENDBRANCH   3  18
BRANCH   5  20
ATOM     20  C5* UNL     1      32.337 -13.481 -22.184  0.00  0.00    +0.169 C 
BRANCH  20  21
ATOM     21  O5* UNL     1      31.432 -12.392 -22.189  0.00  0.00    -0.379 OA
ATOM     22  H5* UNL     1      31.108 -12.235 -21.288  0.00  0.00    +0.211 HD
ENDBRANCH  20  21
ENDBRANCH   5  20
TORSDOF 6
ENDMDL
