MODEL 1
REMARK VINA RESULT:     -10.7      0.000      0.000
REMARK  Name = 4327
REMARK  4 active torsions:
REMARK  status: ('A' for Active; 'I' for Inactive)
REMARK    1  A    between atoms: C_1  and  N_8
REMARK    2  A    between atoms: C_3  and  N_23
REMARK    3  A    between atoms: C_12  and  C_17
REMARK    4  A    between atoms: C_24  and  C_27
REMARK                            x       y       z     vdW  Elec       q    Type
REMARK                         _______ _______ _______ _____ _____    ______ ____
ROOT
ATOM      1  C   UNL     1      33.336 -21.072 -19.657  0.00  0.00    +0.055 C 
ATOM      2  C   UNL     1      34.563 -21.687 -19.909  0.00  0.00    -0.008 C 
ATOM      3  C   UNL     1      34.042 -19.144 -20.929  0.00  0.00    +0.052 C 
ATOM      4  C   UNL     1      33.076 -19.801 -20.167  0.00  0.00    +0.030 C 
ATOM      5  C   UNL     1      35.530 -21.030 -20.670  0.00  0.00    -0.002 C 
ATOM      6  C   UNL     1      35.269 -19.759 -21.180  0.00  0.00    +0.014 C 
ATOM      7  C   UNL     1      34.868 -23.048 -19.373  0.00  0.00    +0.032 C 
ENDROOT
BRANCH   1   8
ATOM      8  N   UNL     1      32.346 -21.725 -18.889  0.00  0.00    -0.248 N 
ATOM      9  N   UNL     1      33.605 -22.522 -17.075  0.00  0.00    -0.337 NA
ATOM     10  N   UNL     1      31.234 -22.934 -17.214  0.00  0.00    -0.170 NA
ATOM     11  C   UNL     1      32.397 -22.426 -17.669  0.00  0.00    +0.149 C 
ATOM     12  C   UNL     1      33.616 -23.201 -15.909  0.00  0.00    +0.147 C 
ATOM     13  C   UNL     1      32.494 -23.766 -15.339  0.00  0.00    +0.055 C 
ATOM     14  C   UNL     1      31.318 -23.599 -16.043  0.00  0.00    +0.114 C 
ATOM     15  H   UNL     1      31.446 -21.681 -19.283  0.00  0.00    +0.165 HD
BRANCH  12  17
ATOM     16  N   UNL     1      36.228 -24.047 -13.389  0.00  0.00    -0.242 NA
ATOM     17  C   UNL     1      34.908 -23.303 -15.272  0.00  0.00    +0.050 C 
ATOM     18  C   UNL     1      36.049 -22.790 -15.879  0.00  0.00    +0.006 C 
ATOM     19  C   UNL     1      35.050 -23.918 -14.038  0.00  0.00    +0.101 C 
ATOM     20  C   UNL     1      37.279 -22.903 -15.241  0.00  0.00    +0.021 C 
ATOM     21  C   UNL     1      37.316 -23.536 -14.009  0.00  0.00    +0.099 C 
ENDBRANCH  12  17
ENDBRANCH   1   8
BRANCH   3  23
ATOM     22  O   UNL     1      35.239 -16.489 -20.221  0.00  0.00    -0.270 OA
ATOM     23  N   UNL     1      33.782 -17.872 -21.441  0.00  0.00    -0.280 N 
ATOM     24  C   UNL     1      34.373 -16.657 -21.071  0.00  0.00    +0.251 C 
ATOM     25  H   UNL     1      33.098 -17.823 -22.147  0.00  0.00    +0.155 HD
BRANCH  24  27
ATOM     26  N   UNL     1      34.095 -13.915 -23.593  0.00  0.00    -0.242 NA
ATOM     27  C   UNL     1      33.861 -15.457 -21.784  0.00  0.00    +0.073 C 
ATOM     28  C   UNL     1      32.741 -14.813 -21.318  0.00  0.00    +0.008 C 
ATOM     29  C   UNL     1      34.508 -15.000 -22.900  0.00  0.00    +0.103 C 
ATOM     30  C   UNL     1      32.286 -13.693 -22.005  0.00  0.00    +0.021 C 
ATOM     31  C   UNL     1      32.991 -13.288 -23.126  0.00  0.00    +0.099 C 
ENDBRANCH  24  27
ENDBRANCH   3  23
TORSDOF 4
ENDMDL
MODEL 2
REMARK VINA RESULT:     -10.6      3.241      5.762
REMARK  Name = 4327
REMARK  4 active torsions:
REMARK  status: ('A' for Active; 'I' for Inactive)
REMARK    1  A    between atoms: C_1  and  N_8
REMARK    2  A    between atoms: C_3  and  N_23
REMARK    3  A    between atoms: C_12  and  C_17
REMARK    4  A    between atoms: C_24  and  C_27
REMARK                            x       y       z     vdW  Elec       q    Type
REMARK                         _______ _______ _______ _____ _____    ______ ____
ROOT
ATOM      1  C   UNL     1      31.580 -24.006 -14.645  0.00  0.00    +0.055 C 
ATOM      2  C   UNL     1      30.241 -24.369 -14.791  0.00  0.00    -0.008 C 
ATOM      3  C   UNL     1      31.510 -22.891 -16.787  0.00  0.00    +0.052 C 
ATOM      4  C   UNL     1      32.214 -23.267 -15.643  0.00  0.00    +0.030 C 
ATOM      5  C   UNL     1      29.536 -23.994 -15.935  0.00  0.00    -0.002 C 
ATOM      6  C   UNL     1      30.171 -23.255 -16.932  0.00  0.00    +0.014 C 
ATOM      7  C   UNL     1      29.538 -25.162 -13.738  0.00  0.00    +0.032 C 
ENDROOT
BRANCH   1   8
ATOM      8  N   UNL     1      32.307 -24.377 -13.492  0.00  0.00    -0.248 N 
ATOM      9  N   UNL     1      34.507 -23.881 -14.141  0.00  0.00    -0.337 NA
ATOM     10  N   UNL     1      34.035 -24.790 -11.959  0.00  0.00    -0.170 NA
ATOM     11  C   UNL     1      33.680 -24.348 -13.183  0.00  0.00    +0.149 C 
ATOM     12  C   UNL     1      35.816 -23.867 -13.810  0.00  0.00    +0.147 C 
ATOM     13  C   UNL     1      36.304 -24.292 -12.592  0.00  0.00    +0.055 C 
ATOM     14  C   UNL     1      35.357 -24.748 -11.695  0.00  0.00    +0.114 C 
ATOM     15  H   UNL     1      31.744 -24.725 -12.764  0.00  0.00    +0.165 HD
BRANCH  12  17
ATOM     16  N   UNL     1      38.878 -23.412 -15.885  0.00  0.00    -0.242 NA
ATOM     17  C   UNL     1      36.701 -23.366 -14.834  0.00  0.00    +0.050 C 
ATOM     18  C   UNL     1      36.278 -22.396 -15.737  0.00  0.00    +0.006 C 
ATOM     19  C   UNL     1      37.999 -23.837 -14.950  0.00  0.00    +0.101 C 
ATOM     20  C   UNL     1      37.154 -21.933 -16.712  0.00  0.00    +0.021 C 
ATOM     21  C   UNL     1      38.432 -22.468 -16.745  0.00  0.00    +0.099 C 
ENDBRANCH  12  17
ENDBRANCH   1   8
BRANCH   3  23
ATOM     22  O   UNL     1      34.005 -23.473 -18.341  0.00  0.00    -0.270 OA
ATOM     23  N   UNL     1      32.144 -22.150 -17.786  0.00  0.00    -0.280 N 
ATOM     24  C   UNL     1      33.315 -22.470 -18.483  0.00  0.00    +0.251 C 
ATOM     25  H   UNL     1      31.715 -21.298 -18.028  0.00  0.00    +0.155 HD
BRANCH  24  27
ATOM     26  N   UNL     1      35.560 -20.439 -20.671  0.00  0.00    -0.242 NA
ATOM     27  C   UNL     1      33.761 -21.458 -19.477  0.00  0.00    +0.073 C 
ATOM     28  C   UNL     1      32.834 -20.648 -20.087  0.00  0.00    +0.008 C 
ATOM     29  C   UNL     1      35.090 -21.338 -19.779  0.00  0.00    +0.103 C 
ATOM     30  C   UNL     1      33.280 -19.710 -21.012  0.00  0.00    +0.021 C 
ATOM     31  C   UNL     1      34.640 -19.646 -21.267  0.00  0.00    +0.099 C 
ENDBRANCH  24  27
ENDBRANCH   3  23
TORSDOF 4
ENDMDL
MODEL 3
REMARK VINA RESULT:     -10.5      3.438      6.071
REMARK  Name = 4327
REMARK  4 active torsions:
REMARK  status: ('A' for Active; 'I' for Inactive)
REMARK    1  A    between atoms: C_1  and  N_8
REMARK    2  A    between atoms: C_3  and  N_23
REMARK    3  A    between atoms: C_12  and  C_17
REMARK    4  A    between atoms: C_24  and  C_27
REMARK                            x       y       z     vdW  Elec       q    Type
REMARK                         _______ _______ _______ _____ _____    ______ ____
ROOT
ATOM      1  C   UNL     1      32.897 -23.732 -14.241  0.00  0.00    +0.055 C 
ATOM      2  C   UNL     1      31.735 -24.427 -14.574  0.00  0.00    -0.008 C 
ATOM      3  C   UNL     1      33.051 -22.903 -16.504  0.00  0.00    +0.052 C 
ATOM      4  C   UNL     1      33.555 -22.970 -15.205  0.00  0.00    +0.030 C 
ATOM      5  C   UNL     1      31.230 -24.361 -15.873  0.00  0.00    -0.002 C 
ATOM      6  C   UNL     1      31.888 -23.598 -16.838  0.00  0.00    +0.014 C 
ATOM      7  C   UNL     1      31.011 -25.253 -13.561  0.00  0.00    +0.032 C 
ENDROOT
BRANCH   1   8
ATOM      8  N   UNL     1      33.421 -23.789 -12.930  0.00  0.00    -0.248 N 
ATOM      9  N   UNL     1      35.697 -24.182 -13.345  0.00  0.00    -0.337 NA
ATOM     10  N   UNL     1      34.865 -23.990 -11.091  0.00  0.00    -0.170 NA
ATOM     11  C   UNL     1      34.721 -23.996 -12.433  0.00  0.00    +0.149 C 
ATOM     12  C   UNL     1      36.930 -24.378 -12.834  0.00  0.00    +0.147 C 
ATOM     13  C   UNL     1      37.206 -24.393 -11.482  0.00  0.00    +0.055 C 
ATOM     14  C   UNL     1      36.124 -24.191 -10.649  0.00  0.00    +0.114 C 
ATOM     15  H   UNL     1      32.744 -23.659 -12.227  0.00  0.00    +0.165 HD
BRANCH  12  17
ATOM     16  N   UNL     1      39.020 -23.896 -15.881  0.00  0.00    -0.242 NA
ATOM     17  C   UNL     1      37.975 -24.575 -13.810  0.00  0.00    +0.050 C 
ATOM     18  C   UNL     1      38.921 -25.582 -13.655  0.00  0.00    +0.006 C 
ATOM     19  C   UNL     1      38.068 -23.766 -14.931  0.00  0.00    +0.101 C 
ATOM     20  C   UNL     1      39.916 -25.748 -14.612  0.00  0.00    +0.021 C 
ATOM     21  C   UNL     1      39.922 -24.886 -15.697  0.00  0.00    +0.099 C 
ENDBRANCH  12  17
ENDBRANCH   1   8
BRANCH   3  23
ATOM     22  O   UNL     1      33.890 -23.613 -19.292  0.00  0.00    -0.270 OA
ATOM     23  N   UNL     1      33.708 -22.139 -17.470  0.00  0.00    -0.280 N 
ATOM     24  C   UNL     1      34.079 -22.523 -18.765  0.00  0.00    +0.251 C 
ATOM     25  H   UNL     1      33.940 -21.219 -17.208  0.00  0.00    +0.155 HD
BRANCH  24  27
ATOM     26  N   UNL     1      36.877 -20.493 -20.181  0.00  0.00    -0.242 NA
ATOM     27  C   UNL     1      34.799 -21.488 -19.553  0.00  0.00    +0.073 C 
ATOM     28  C   UNL     1      34.089 -20.614 -20.340  0.00  0.00    +0.008 C 
ATOM     29  C   UNL     1      36.163 -21.410 -19.491  0.00  0.00    +0.103 C 
ATOM     30  C   UNL     1      34.788 -19.655 -21.065  0.00  0.00    +0.021 C 
ATOM     31  C   UNL     1      36.169 -19.637 -20.952  0.00  0.00    +0.099 C 
ENDBRANCH  24  27
ENDBRANCH   3  23
TORSDOF 4
ENDMDL
MODEL 4
REMARK VINA RESULT:     -10.4      1.122      1.271
REMARK  Name = 4327
REMARK  4 active torsions:
REMARK  status: ('A' for Active; 'I' for Inactive)
REMARK    1  A    between atoms: C_1  and  N_8
REMARK    2  A    between atoms: C_3  and  N_23
REMARK    3  A    between atoms: C_12  and  C_17
REMARK    4  A    between atoms: C_24  and  C_27
REMARK                            x       y       z     vdW  Elec       q    Type
REMARK                         _______ _______ _______ _____ _____    ______ ____
ROOT
ATOM      1  C   UNL     1      33.171 -21.521 -19.265  0.00  0.00    +0.055 C 
ATOM      2  C   UNL     1      34.369 -22.230 -19.184  0.00  0.00    -0.008 C 
ATOM      3  C   UNL     1      34.235 -19.884 -20.687  0.00  0.00    +0.052 C 
ATOM      4  C   UNL     1      33.103 -20.349 -20.017  0.00  0.00    +0.030 C 
ATOM      5  C   UNL     1      35.501 -21.766 -19.854  0.00  0.00    -0.002 C 
ATOM      6  C   UNL     1      35.434 -20.594 -20.606  0.00  0.00    +0.014 C 
ATOM      7  C   UNL     1      34.468 -23.488 -18.384  0.00  0.00    +0.032 C 
ENDROOT
BRANCH   1   8
ATOM      8  N   UNL     1      32.015 -21.978 -18.593  0.00  0.00    -0.248 N 
ATOM      9  N   UNL     1      32.916 -22.736 -16.563  0.00  0.00    -0.337 NA
ATOM     10  N   UNL     1      30.550 -22.884 -16.999  0.00  0.00    -0.170 NA
ATOM     11  C   UNL     1      31.818 -22.559 -17.326  0.00  0.00    +0.149 C 
ATOM     12  C   UNL     1      32.691 -23.296 -15.356  0.00  0.00    +0.147 C 
ATOM     13  C   UNL     1      31.442 -23.670 -14.905  0.00  0.00    +0.055 C 
ATOM     14  C   UNL     1      30.398 -23.438 -15.778  0.00  0.00    +0.114 C 
ATOM     15  H   UNL     1      31.186 -21.869 -19.112  0.00  0.00    +0.165 HD
BRANCH  12  17
ATOM     16  N   UNL     1      34.848 -24.333 -12.499  0.00  0.00    -0.242 NA
ATOM     17  C   UNL     1      33.866 -23.484 -14.539  0.00  0.00    +0.050 C 
ATOM     18  C   UNL     1      35.112 -23.031 -14.958  0.00  0.00    +0.006 C 
ATOM     19  C   UNL     1      33.789 -24.123 -13.312  0.00  0.00    +0.101 C 
ATOM     20  C   UNL     1      36.226 -23.227 -14.149  0.00  0.00    +0.021 C 
ATOM     21  C   UNL     1      36.043 -23.878 -12.940  0.00  0.00    +0.099 C 
ENDBRANCH  12  17
ENDBRANCH   1   8
BRANCH   3  23
ATOM     22  O   UNL     1      35.591 -17.242 -20.281  0.00  0.00    -0.270 OA
ATOM     23  N   UNL     1      34.169 -18.711 -21.440  0.00  0.00    -0.280 N 
ATOM     24  C   UNL     1      34.827 -17.497 -21.204  0.00  0.00    +0.251 C 
ATOM     25  H   UNL     1      33.587 -18.741 -22.234  0.00  0.00    +0.155 HD
BRANCH  24  27
ATOM     26  N   UNL     1      34.085 -15.776 -24.435  0.00  0.00    -0.242 NA
ATOM     27  C   UNL     1      34.530 -16.413 -22.177  0.00  0.00    +0.073 C 
ATOM     28  C   UNL     1      34.432 -15.114 -21.741  0.00  0.00    +0.008 C 
ATOM     29  C   UNL     1      34.356 -16.714 -23.500  0.00  0.00    +0.103 C 
ATOM     30  C   UNL     1      34.154 -14.121 -22.674  0.00  0.00    +0.021 C 
ATOM     31  C   UNL     1      33.991 -14.500 -23.996  0.00  0.00    +0.099 C 
ENDBRANCH  24  27
ENDBRANCH   3  23
TORSDOF 4
ENDMDL
MODEL 5
REMARK VINA RESULT:     -10.2      8.985     12.739
REMARK  Name = 4327
REMARK  4 active torsions:
REMARK  status: ('A' for Active; 'I' for Inactive)
REMARK    1  A    between atoms: C_1  and  N_8
REMARK    2  A    between atoms: C_3  and  N_23
REMARK    3  A    between atoms: C_12  and  C_17
REMARK    4  A    between atoms: C_24  and  C_27
REMARK                            x       y       z     vdW  Elec       q    Type
REMARK                         _______ _______ _______ _____ _____    ______ ____
ROOT
ATOM      1  C   UNL     1      31.802 -10.077 -21.010  0.00  0.00    +0.055 C 
ATOM      2  C   UNL     1      31.754  -9.541 -19.724  0.00  0.00    -0.008 C 
ATOM      3  C   UNL     1      31.996  -7.852 -21.930  0.00  0.00    +0.052 C 
ATOM      4  C   UNL     1      31.923  -9.233 -22.113  0.00  0.00    +0.030 C 
ATOM      5  C   UNL     1      31.827  -8.159 -19.540  0.00  0.00    -0.002 C 
ATOM      6  C   UNL     1      31.948  -7.316 -20.643  0.00  0.00    +0.014 C 
ATOM      7  C   UNL     1      31.623 -10.422 -18.524  0.00  0.00    +0.032 C 
ENDROOT
BRANCH   1   8
ATOM      8  N   UNL     1      31.730 -11.473 -21.213  0.00  0.00    -0.248 N 
ATOM      9  N   UNL     1      32.959 -11.727 -23.196  0.00  0.00    -0.337 NA
ATOM     10  N   UNL     1      31.978 -13.633 -22.095  0.00  0.00    -0.170 NA
ATOM     11  C   UNL     1      32.247 -12.317 -22.214  0.00  0.00    +0.149 C 
ATOM     12  C   UNL     1      33.439 -12.565 -24.139  0.00  0.00    +0.147 C 
ATOM     13  C   UNL     1      33.234 -13.929 -24.128  0.00  0.00    +0.055 C 
ATOM     14  C   UNL     1      32.489 -14.413 -23.071  0.00  0.00    +0.114 C 
ATOM     15  H   UNL     1      31.218 -11.948 -20.520  0.00  0.00    +0.165 HD
BRANCH  12  17
ATOM     16  N   UNL     1      34.927 -11.926 -27.495  0.00  0.00    -0.242 NA
ATOM     17  C   UNL     1      34.202 -11.934 -25.189  0.00  0.00    +0.050 C 
ATOM     18  C   UNL     1      34.928 -10.772 -24.950  0.00  0.00    +0.006 C 
ATOM     19  C   UNL     1      34.235 -12.466 -26.468  0.00  0.00    +0.101 C 
ATOM     20  C   UNL     1      35.653 -10.187 -25.981  0.00  0.00    +0.021 C 
ATOM     21  C   UNL     1      35.621 -10.797 -27.225  0.00  0.00    +0.099 C 
ENDBRANCH  12  17
ENDBRANCH   1   8
BRANCH   3  23
ATOM     22  O   UNL     1      34.319  -7.387 -23.767  0.00  0.00    -0.270 OA
ATOM     23  N   UNL     1      32.118  -7.006 -23.034  0.00  0.00    -0.280 N 
ATOM     24  C   UNL     1      33.233  -6.826 -23.862  0.00  0.00    +0.251 C 
ATOM     25  H   UNL     1      31.323  -6.470 -23.256  0.00  0.00    +0.155 HD
BRANCH  24  27
ATOM     26  N   UNL     1      31.745  -4.089 -25.922  0.00  0.00    -0.242 NA
ATOM     27  C   UNL     1      33.064  -5.825 -24.948  0.00  0.00    +0.073 C 
ATOM     28  C   UNL     1      34.018  -5.717 -25.931  0.00  0.00    +0.008 C 
ATOM     29  C   UNL     1      31.959  -5.018 -24.964  0.00  0.00    +0.103 C 
ATOM     30  C   UNL     1      33.832  -4.772 -26.934  0.00  0.00    +0.021 C 
ATOM     31  C   UNL     1      32.689  -3.990 -26.886  0.00  0.00    +0.099 C 
ENDBRANCH  24  27
ENDBRANCH   3  23
TORSDOF 4
ENDMDL
MODEL 6
REMARK VINA RESULT:     -10.1      1.738      3.068
REMARK  Name = 4327
REMARK  4 active torsions:
REMARK  status: ('A' for Active; 'I' for Inactive)
REMARK    1  A    between atoms: C_1  and  N_8
REMARK    2  A    between atoms: C_3  and  N_23
REMARK    3  A    between atoms: C_12  and  C_17
REMARK    4  A    between atoms: C_24  and  C_27
REMARK                            x       y       z     vdW  Elec       q    Type
REMARK                         _______ _______ _______ _____ _____    ______ ____
ROOT
ATOM      1  C   UNL     1      35.092 -20.983 -19.519  0.00  0.00    +0.055 C 
ATOM      2  C   UNL     1      34.000 -21.844 -19.631  0.00  0.00    -0.008 C 
ATOM      3  C   UNL     1      33.935 -19.341 -20.861  0.00  0.00    +0.052 C 
ATOM      4  C   UNL     1      35.059 -19.732 -20.134  0.00  0.00    +0.030 C 
ATOM      5  C   UNL     1      32.875 -21.454 -20.359  0.00  0.00    -0.002 C 
ATOM      6  C   UNL     1      32.843 -20.203 -20.973  0.00  0.00    +0.014 C 
ATOM      7  C   UNL     1      34.010 -23.190 -18.984  0.00  0.00    +0.032 C 
ENDROOT
BRANCH   1   8
ATOM      8  N   UNL     1      36.238 -21.362 -18.786  0.00  0.00    -0.248 N 
ATOM      9  N   UNL     1      35.278 -22.361 -16.892  0.00  0.00    -0.337 NA
ATOM     10  N   UNL     1      37.672 -22.218 -17.137  0.00  0.00    -0.170 NA
ATOM     11  C   UNL     1      36.403 -22.011 -17.548  0.00  0.00    +0.149 C 
ATOM     12  C   UNL     1      35.474 -22.981 -15.709  0.00  0.00    +0.147 C 
ATOM     13  C   UNL     1      36.720 -23.250 -15.181  0.00  0.00    +0.055 C 
ATOM     14  C   UNL     1      37.794 -22.842 -15.947  0.00  0.00    +0.114 C 
ATOM     15  H   UNL     1      37.086 -21.126 -19.226  0.00  0.00    +0.165 HD
BRANCH  12  17
ATOM     16  N   UNL     1      33.240 -24.349 -13.058  0.00  0.00    -0.242 NA
ATOM     17  C   UNL     1      34.270 -23.357 -15.007  0.00  0.00    +0.050 C 
ATOM     18  C   UNL     1      33.014 -23.113 -15.554  0.00  0.00    +0.006 C 
ATOM     19  C   UNL     1      34.327 -23.972 -13.767  0.00  0.00    +0.101 C 
ATOM     20  C   UNL     1      31.873 -23.487 -14.854  0.00  0.00    +0.021 C 
ATOM     21  C   UNL     1      32.037 -24.096 -13.621  0.00  0.00    +0.099 C 
ENDBRANCH  12  17
ENDBRANCH   1   8
BRANCH   3  23
ATOM     22  O   UNL     1      35.447 -18.305 -23.232  0.00  0.00    -0.270 OA
ATOM     23  N   UNL     1      33.900 -18.088 -21.476  0.00  0.00    -0.280 N 
ATOM     24  C   UNL     1      34.633 -17.654 -22.588  0.00  0.00    +0.251 C 
ATOM     25  H   UNL     1      33.286 -17.430 -21.078  0.00  0.00    +0.155 HD
BRANCH  24  27
ATOM     26  N   UNL     1      33.839 -14.694 -24.723  0.00  0.00    -0.242 NA
ATOM     27  C   UNL     1      34.397 -16.244 -22.993  0.00  0.00    +0.073 C 
ATOM     28  C   UNL     1      34.514 -15.238 -22.065  0.00  0.00    +0.008 C 
ATOM     29  C   UNL     1      34.065 -15.954 -24.289  0.00  0.00    +0.103 C 
ATOM     30  C   UNL     1      34.289 -13.929 -22.474  0.00  0.00    +0.021 C 
ATOM     31  C   UNL     1      33.957 -13.711 -23.801  0.00  0.00    +0.099 C 
ENDBRANCH  24  27
ENDBRANCH   3  23
TORSDOF 4
ENDMDL
MODEL 7
REMARK VINA RESULT:     -10.0      4.957     11.415
REMARK  Name = 4327
REMARK  4 active torsions:
REMARK  status: ('A' for Active; 'I' for Inactive)
REMARK    1  A    between atoms: C_1  and  N_8
REMARK    2  A    between atoms: C_3  and  N_23
REMARK    3  A    between atoms: C_12  and  C_17
REMARK    4  A    between atoms: C_24  and  C_27
REMARK                            x       y       z     vdW  Elec       q    Type
REMARK                         _______ _______ _______ _____ _____    ______ ____
ROOT
ATOM      1  C   UNL     1      33.902 -13.165 -25.553  0.00  0.00    +0.055 C 
ATOM      2  C   UNL     1      33.001 -13.557 -26.543  0.00  0.00    -0.008 C 
ATOM      3  C   UNL     1      33.867 -15.400 -24.638  0.00  0.00    +0.052 C 
ATOM      4  C   UNL     1      34.335 -14.087 -24.600  0.00  0.00    +0.030 C 
ATOM      5  C   UNL     1      32.532 -14.870 -26.580  0.00  0.00    -0.002 C 
ATOM      6  C   UNL     1      32.965 -15.792 -25.628  0.00  0.00    +0.014 C 
ATOM      7  C   UNL     1      32.519 -12.589 -27.574  0.00  0.00    +0.032 C 
ENDROOT
BRANCH   1   8
ATOM      8  N   UNL     1      34.386 -11.839 -25.502  0.00  0.00    -0.248 N 
ATOM      9  N   UNL     1      33.286 -11.006 -23.603  0.00  0.00    -0.337 NA
ATOM     10  N   UNL     1      34.789  -9.614 -24.874  0.00  0.00    -0.170 NA
ATOM     11  C   UNL     1      34.143 -10.771 -24.619  0.00  0.00    +0.149 C 
ATOM     12  C   UNL     1      33.076  -9.960 -22.777  0.00  0.00    +0.147 C 
ATOM     13  C   UNL     1      33.677  -8.728 -22.931  0.00  0.00    +0.055 C 
ATOM     14  C   UNL     1      34.533  -8.611 -24.009  0.00  0.00    +0.114 C 
ATOM     15  H   UNL     1      35.016 -11.620 -26.225  0.00  0.00    +0.165 HD
BRANCH  12  17
ATOM     16  N   UNL     1      30.284 -11.462 -20.818  0.00  0.00    -0.242 NA
ATOM     17  C   UNL     1      32.161 -10.212 -21.690  0.00  0.00    +0.050 C 
ATOM     18  C   UNL     1      32.246  -9.496 -20.500  0.00  0.00    +0.006 C 
ATOM     19  C   UNL     1      31.171 -11.176 -21.796  0.00  0.00    +0.101 C 
ATOM     20  C   UNL     1      31.350  -9.761 -19.470  0.00  0.00    +0.021 C 
ATOM     21  C   UNL     1      30.397 -10.745 -19.676  0.00  0.00    +0.099 C 
ENDBRANCH  12  17
ENDBRANCH   1   8
BRANCH   3  23
ATOM     22  O   UNL     1      34.909 -18.190 -24.978  0.00  0.00    -0.270 OA
ATOM     23  N   UNL     1      34.301 -16.324 -23.685  0.00  0.00    -0.280 N 
ATOM     24  C   UNL     1      34.781 -17.622 -23.900  0.00  0.00    +0.251 C 
ATOM     25  H   UNL     1      34.264 -16.025 -22.747  0.00  0.00    +0.155 HD
BRANCH  24  27
ATOM     26  N   UNL     1      36.816 -18.994 -21.084  0.00  0.00    -0.242 NA
ATOM     27  C   UNL     1      35.141 -18.378 -22.672  0.00  0.00    +0.073 C 
ATOM     28  C   UNL     1      34.186 -19.122 -22.023  0.00  0.00    +0.008 C 
ATOM     29  C   UNL     1      36.423 -18.330 -22.194  0.00  0.00    +0.103 C 
ATOM     30  C   UNL     1      34.553 -19.819 -20.878  0.00  0.00    +0.021 C 
ATOM     31  C   UNL     1      35.868 -19.724 -20.453  0.00  0.00    +0.099 C 
ENDBRANCH  24  27
ENDBRANCH   3  23
TORSDOF 4
ENDMDL
MODEL 8
REMARK VINA RESULT:      -9.7      4.113     12.069
REMARK  Name = 4327
REMARK  4 active torsions:
REMARK  status: ('A' for Active; 'I' for Inactive)
REMARK    1  A    between atoms: C_1  and  N_8
REMARK    2  A    between atoms: C_3  and  N_23
REMARK    3  A    between atoms: C_12  and  C_17
REMARK    4  A    between atoms: C_24  and  C_27
REMARK                            x       y       z     vdW  Elec       q    Type
REMARK                         _______ _______ _______ _____ _____    ______ ____
ROOT
ATOM      1  C   UNL     1      33.599 -13.373 -22.990  0.00  0.00    +0.055 C 
ATOM      2  C   UNL     1      32.414 -12.951 -22.388  0.00  0.00    -0.008 C 
ATOM      3  C   UNL     1      33.622 -15.329 -21.574  0.00  0.00    +0.052 C 
ATOM      4  C   UNL     1      34.202 -14.563 -22.584  0.00  0.00    +0.030 C 
ATOM      5  C   UNL     1      31.833 -13.717 -21.378  0.00  0.00    -0.002 C 
ATOM      6  C   UNL     1      32.436 -14.906 -20.971  0.00  0.00    +0.014 C 
ATOM      7  C   UNL     1      31.748 -11.680 -22.804  0.00  0.00    +0.032 C 
ENDROOT
BRANCH   1   8
ATOM      8  N   UNL     1      34.200 -12.609 -24.016  0.00  0.00    -0.248 N 
ATOM      9  N   UNL     1      33.709 -10.421 -23.324  0.00  0.00    -0.337 NA
ATOM     10  N   UNL     1      34.953 -10.830 -25.348  0.00  0.00    -0.170 NA
ATOM     11  C   UNL     1      34.292 -11.223 -24.239  0.00  0.00    +0.149 C 
ATOM     12  C   UNL     1      33.816  -9.098 -23.570  0.00  0.00    +0.147 C 
ATOM     13  C   UNL     1      34.467  -8.572 -24.667  0.00  0.00    +0.055 C 
ATOM     14  C   UNL     1      35.022  -9.495 -25.531  0.00  0.00    +0.114 C 
ATOM     15  H   UNL     1      34.639 -13.152 -24.709  0.00  0.00    +0.165 HD
BRANCH  12  17
ATOM     16  N   UNL     1      32.294  -7.961 -20.364  0.00  0.00    -0.242 NA
ATOM     17  C   UNL     1      33.194  -8.240 -22.591  0.00  0.00    +0.050 C 
ATOM     18  C   UNL     1      32.896  -6.913 -22.885  0.00  0.00    +0.006 C 
ATOM     19  C   UNL     1      32.876  -8.710 -21.327  0.00  0.00    +0.101 C 
ATOM     20  C   UNL     1      32.297  -6.111 -21.921  0.00  0.00    +0.021 C 
ATOM     21  C   UNL     1      32.019  -6.676 -20.687  0.00  0.00    +0.099 C 
ENDBRANCH  12  17
ENDBRANCH   1   8
BRANCH   3  23
ATOM     22  O   UNL     1      34.276 -17.803 -23.136  0.00  0.00    -0.270 OA
ATOM     23  N   UNL     1      34.225 -16.521 -21.166  0.00  0.00    -0.280 N 
ATOM     24  C   UNL     1      34.508 -17.652 -21.942  0.00  0.00    +0.251 C 
ATOM     25  H   UNL     1      34.481 -16.571 -20.217  0.00  0.00    +0.155 HD
BRANCH  24  27
ATOM     26  N   UNL     1      37.112 -19.776 -20.310  0.00  0.00    -0.242 NA
ATOM     27  C   UNL     1      35.134 -18.784 -21.210  0.00  0.00    +0.073 C 
ATOM     28  C   UNL     1      34.357 -19.831 -20.779  0.00  0.00    +0.008 C 
ATOM     29  C   UNL     1      36.481 -18.778 -20.969  0.00  0.00    +0.103 C 
ATOM     30  C   UNL     1      34.970 -20.877 -20.098  0.00  0.00    +0.021 C 
ATOM     31  C   UNL     1      36.338 -20.802 -19.891  0.00  0.00    +0.099 C 
ENDBRANCH  24  27
ENDBRANCH   3  23
TORSDOF 4
ENDMDL
MODEL 9
REMARK VINA RESULT:      -9.6      3.048     11.119
REMARK  Name = 4327
REMARK  4 active torsions:
REMARK  status: ('A' for Active; 'I' for Inactive)
REMARK    1  A    between atoms: C_1  and  N_8
REMARK    2  A    between atoms: C_3  and  N_23
REMARK    3  A    between atoms: C_12  and  C_17
REMARK    4  A    between atoms: C_24  and  C_27
REMARK                            x       y       z     vdW  Elec       q    Type
REMARK                         _______ _______ _______ _____ _____    ______ ____
ROOT
ATOM      1  C   UNL     1      33.084 -15.197 -22.476  0.00  0.00    +0.055 C 
ATOM      2  C   UNL     1      33.447 -15.115 -23.820  0.00  0.00    -0.008 C 
ATOM      3  C   UNL     1      34.432 -17.187 -22.234  0.00  0.00    +0.052 C 
ATOM      4  C   UNL     1      33.577 -16.233 -21.683  0.00  0.00    +0.030 C 
ATOM      5  C   UNL     1      34.302 -16.069 -24.373  0.00  0.00    -0.002 C 
ATOM      6  C   UNL     1      34.794 -17.105 -23.580  0.00  0.00    +0.014 C 
ATOM      7  C   UNL     1      32.932 -14.016 -24.692  0.00  0.00    +0.032 C 
ENDROOT
BRANCH   1   8
ATOM      8  N   UNL     1      32.220 -14.238 -21.902  0.00  0.00    -0.248 N 
ATOM      9  N   UNL     1      32.986 -12.255 -22.897  0.00  0.00    -0.337 NA
ATOM     10  N   UNL     1      31.153 -12.227 -21.331  0.00  0.00    -0.170 NA
ATOM     11  C   UNL     1      32.115 -12.842 -22.051  0.00  0.00    +0.149 C 
ATOM     12  C   UNL     1      32.856 -10.917 -23.015  0.00  0.00    +0.147 C 
ATOM     13  C   UNL     1      31.913 -10.175 -22.335  0.00  0.00    +0.055 C 
ATOM     14  C   UNL     1      31.080 -10.890 -21.498  0.00  0.00    +0.114 C 
ATOM     15  H   UNL     1      31.565 -14.620 -21.275  0.00  0.00    +0.165 HD
BRANCH  12  17
ATOM     16  N   UNL     1      34.926  -8.285 -24.651  0.00  0.00    -0.242 NA
ATOM     17  C   UNL     1      33.786 -10.289 -23.922  0.00  0.00    +0.050 C 
ATOM     18  C   UNL     1      34.432 -11.024 -24.911  0.00  0.00    +0.006 C 
ATOM     19  C   UNL     1      34.066  -8.934 -23.836  0.00  0.00    +0.101 C 
ATOM     20  C   UNL     1      35.324 -10.391 -25.770  0.00  0.00    +0.021 C 
ATOM     21  C   UNL     1      35.535  -9.032 -25.600  0.00  0.00    +0.099 C 
ENDBRANCH  12  17
ENDBRANCH   1   8
BRANCH   3  23
ATOM     22  O   UNL     1      33.201 -19.820 -21.501  0.00  0.00    -0.270 OA
ATOM     23  N   UNL     1      34.926 -18.224 -21.441  0.00  0.00    -0.280 N 
ATOM     24  C   UNL     1      34.305 -19.440 -21.129  0.00  0.00    +0.251 C 
ATOM     25  H   UNL     1      35.820 -18.082 -21.054  0.00  0.00    +0.155 HD
BRANCH  24  27
ATOM     26  N   UNL     1      35.079 -22.169 -18.698  0.00  0.00    -0.242 NA
ATOM     27  C   UNL     1      35.079 -20.336 -20.229  0.00  0.00    +0.073 C 
ATOM     28  C   UNL     1      36.436 -20.167 -20.101  0.00  0.00    +0.008 C 
ATOM     29  C   UNL     1      34.435 -21.322 -19.532  0.00  0.00    +0.103 C 
ATOM     30  C   UNL     1      37.132 -21.019 -19.251  0.00  0.00    +0.021 C 
ATOM     31  C   UNL     1      36.415 -21.995 -18.579  0.00  0.00    +0.099 C 
ENDBRANCH  24  27
ENDBRANCH   3  23
TORSDOF 4
ENDMDL
