MODEL 1
REMARK VINA RESULT:      -5.0      0.000      0.000
REMARK  Name = 5453
REMARK  3 active torsions:
REMARK  status: ('A' for Active; 'I' for Inactive)
REMARK    1  A    between atoms: P_2  and  N_3
REMARK    2  A    between atoms: P_2  and  N_6
REMARK    3  A    between atoms: P_2  and  N_9
REMARK                            x       y       z     vdW  Elec       q    Type
REMARK                         _______ _______ _______ _____ _____    ______ ____
ROOT
ATOM      1  S   UNL     1      34.678 -24.149 -13.242  0.00  0.00    -0.017 S 
ATOM      2  P   UNL     1      36.480 -24.389 -13.973  0.00  0.00    +0.132 P 
ENDROOT
BRANCH   2   3
ATOM      3  N   UNL     1      37.054 -25.955 -13.927  0.00  0.00    -0.230 NA
ATOM      4  C   UNL     1      36.828 -26.756 -15.118  0.00  0.00    +0.096 C 
ATOM      5  C   UNL     1      38.198 -26.246 -14.776  0.00  0.00    +0.096 C 
ENDBRANCH   2   3
BRANCH   2   6
ATOM      6  N   UNL     1      37.673 -23.515 -13.202  0.00  0.00    -0.230 NA
ATOM      7  C   UNL     1      37.302 -22.903 -11.937  0.00  0.00    +0.096 C 
ATOM      8  C   UNL     1      38.212 -24.096 -11.982  0.00  0.00    +0.096 C 
ENDBRANCH   2   6
BRANCH   2   9
ATOM      9  N   UNL     1      36.653 -23.957 -15.574  0.00  0.00    -0.230 NA
ATOM     10  C   UNL     1      35.937 -22.766 -15.998  0.00  0.00    +0.096 C 
ATOM     11  C   UNL     1      37.429 -22.756 -15.836  0.00  0.00    +0.096 C 
ENDBRANCH   2   9
TORSDOF 3
ENDMDL
MODEL 2
REMARK VINA RESULT:      -5.0      0.048      3.371
REMARK  Name = 5453
REMARK  3 active torsions:
REMARK  status: ('A' for Active; 'I' for Inactive)
REMARK    1  A    between atoms: P_2  and  N_3
REMARK    2  A    between atoms: P_2  and  N_6
REMARK    3  A    between atoms: P_2  and  N_9
REMARK                            x       y       z     vdW  Elec       q    Type
REMARK                         _______ _______ _______ _____ _____    ______ ____
ROOT
ATOM      1  S   UNL     1      34.696 -24.177 -13.168  0.00  0.00    -0.017 S 
ATOM      2  P   UNL     1      36.475 -24.420 -13.951  0.00  0.00    +0.132 P 
ENDROOT
BRANCH   2   3
ATOM      3  N   UNL     1      37.693 -23.549 -13.213  0.00  0.00    -0.230 NA
ATOM      4  C   UNL     1      37.347 -22.896 -11.962  0.00  0.00    +0.096 C 
ATOM      5  C   UNL     1      38.232 -24.108 -11.985  0.00  0.00    +0.096 C 
ENDBRANCH   2   3
BRANCH   2   6
ATOM      6  N   UNL     1      36.603 -23.984 -15.556  0.00  0.00    -0.230 NA
ATOM      7  C   UNL     1      35.903 -22.772 -15.948  0.00  0.00    +0.096 C 
ATOM      8  C   UNL     1      37.400 -22.802 -15.841  0.00  0.00    +0.096 C 
ENDBRANCH   2   6
BRANCH   2   9
ATOM      9  N   UNL     1      37.047 -25.986 -13.925  0.00  0.00    -0.230 NA
ATOM     10  C   UNL     1      36.836 -26.765 -15.134  0.00  0.00    +0.096 C 
ATOM     11  C   UNL     1      38.201 -26.264 -14.764  0.00  0.00    +0.096 C 
ENDBRANCH   2   9
TORSDOF 3
ENDMDL
MODEL 3
REMARK VINA RESULT:      -4.8      1.941      2.185
REMARK  Name = 5453
REMARK  3 active torsions:
REMARK  status: ('A' for Active; 'I' for Inactive)
REMARK    1  A    between atoms: P_2  and  N_3
REMARK    2  A    between atoms: P_2  and  N_6
REMARK    3  A    between atoms: P_2  and  N_9
REMARK                            x       y       z     vdW  Elec       q    Type
REMARK                         _______ _______ _______ _____ _____    ______ ____
ROOT
ATOM      1  S   UNL     1      36.933 -26.071 -14.881  0.00  0.00    -0.017 S 
ATOM      2  P   UNL     1      37.858 -24.586 -13.999  0.00  0.00    +0.132 P 
ENDROOT
BRANCH   2   3
ATOM      3  N   UNL     1      39.513 -24.564 -14.209  0.00  0.00    -0.230 NA
ATOM      4  C   UNL     1      40.223 -25.774 -13.831  0.00  0.00    +0.096 C 
ATOM      5  C   UNL     1      40.038 -25.403 -15.273  0.00  0.00    +0.096 C 
ENDBRANCH   2   3
BRANCH   2   6
ATOM      6  N   UNL     1      37.676 -24.530 -12.341  0.00  0.00    -0.230 NA
ATOM      7  C   UNL     1      37.289 -23.245 -11.783  0.00  0.00    +0.096 C 
ATOM      8  C   UNL     1      36.316 -24.386 -11.847  0.00  0.00    +0.096 C 
ENDBRANCH   2   6
BRANCH   2   9
ATOM      9  N   UNL     1      37.382 -23.067 -14.494  0.00  0.00    -0.230 NA
ATOM     10  C   UNL     1      37.549 -22.772 -15.908  0.00  0.00    +0.096 C 
ATOM     11  C   UNL     1      36.188 -23.004 -15.320  0.00  0.00    +0.096 C 
ENDBRANCH   2   9
TORSDOF 3
ENDMDL
MODEL 4
REMARK VINA RESULT:      -4.8      1.956      3.663
REMARK  Name = 5453
REMARK  3 active torsions:
REMARK  status: ('A' for Active; 'I' for Inactive)
REMARK    1  A    between atoms: P_2  and  N_3
REMARK    2  A    between atoms: P_2  and  N_6
REMARK    3  A    between atoms: P_2  and  N_9
REMARK                            x       y       z     vdW  Elec       q    Type
REMARK                         _______ _______ _______ _____ _____    ______ ____
ROOT
ATOM      1  S   UNL     1      36.966 -26.094 -14.940  0.00  0.00    -0.017 S 
ATOM      2  P   UNL     1      37.863 -24.615 -14.021  0.00  0.00    +0.132 P 
ENDROOT
BRANCH   2   3
ATOM      3  N   UNL     1      37.378 -23.092 -14.498  0.00  0.00    -0.230 NA
ATOM      4  C   UNL     1      37.569 -22.769 -15.901  0.00  0.00    +0.096 C 
ATOM      5  C   UNL     1      36.199 -23.028 -15.347  0.00  0.00    +0.096 C 
ENDBRANCH   2   3
BRANCH   2   6
ATOM      6  N   UNL     1      39.520 -24.571 -14.210  0.00  0.00    -0.230 NA
ATOM      7  C   UNL     1      40.238 -25.784 -13.850  0.00  0.00    +0.096 C 
ATOM      8  C   UNL     1      40.067 -25.381 -15.287  0.00  0.00    +0.096 C 
ENDBRANCH   2   6
BRANCH   2   9
ATOM      9  N   UNL     1      37.660 -24.588 -12.365  0.00  0.00    -0.230 NA
ATOM     10  C   UNL     1      37.248 -23.318 -11.791  0.00  0.00    +0.096 C 
ATOM     11  C   UNL     1      36.292 -24.471 -11.887  0.00  0.00    +0.096 C 
ENDBRANCH   2   9
TORSDOF 3
ENDMDL
MODEL 5
REMARK VINA RESULT:      -4.8      1.957      3.669
REMARK  Name = 5453
REMARK  3 active torsions:
REMARK  status: ('A' for Active; 'I' for Inactive)
REMARK    1  A    between atoms: P_2  and  N_3
REMARK    2  A    between atoms: P_2  and  N_6
REMARK    3  A    between atoms: P_2  and  N_9
REMARK                            x       y       z     vdW  Elec       q    Type
REMARK                         _______ _______ _______ _____ _____    ______ ____
ROOT
ATOM      1  S   UNL     1      36.965 -26.088 -14.926  0.00  0.00    -0.017 S 
ATOM      2  P   UNL     1      37.868 -24.608 -14.014  0.00  0.00    +0.132 P 
ENDROOT
BRANCH   2   3
ATOM      3  N   UNL     1      37.664 -24.573 -12.358  0.00  0.00    -0.230 NA
ATOM      4  C   UNL     1      37.260 -23.298 -11.789  0.00  0.00    +0.096 C 
ATOM      5  C   UNL     1      36.297 -24.446 -11.881  0.00  0.00    +0.096 C 
ENDBRANCH   2   3
BRANCH   2   6
ATOM      6  N   UNL     1      37.387 -23.086 -14.497  0.00  0.00    -0.230 NA
ATOM      7  C   UNL     1      37.570 -22.773 -15.905  0.00  0.00    +0.096 C 
ATOM      8  C   UNL     1      36.203 -23.021 -15.338  0.00  0.00    +0.096 C 
ENDBRANCH   2   6
BRANCH   2   9
ATOM      9  N   UNL     1      39.525 -24.571 -14.203  0.00  0.00    -0.230 NA
ATOM     10  C   UNL     1      40.237 -25.789 -13.851  0.00  0.00    +0.096 C 
ATOM     11  C   UNL     1      40.067 -25.377 -15.284  0.00  0.00    +0.096 C 
ENDBRANCH   2   9
TORSDOF 3
ENDMDL
MODEL 6
REMARK VINA RESULT:      -4.6      1.940      3.188
REMARK  Name = 5453
REMARK  3 active torsions:
REMARK  status: ('A' for Active; 'I' for Inactive)
REMARK    1  A    between atoms: P_2  and  N_3
REMARK    2  A    between atoms: P_2  and  N_6
REMARK    3  A    between atoms: P_2  and  N_9
REMARK                            x       y       z     vdW  Elec       q    Type
REMARK                         _______ _______ _______ _____ _____    ______ ____
ROOT
ATOM      1  S   UNL     1      37.189 -22.999 -15.400  0.00  0.00    -0.017 S 
ATOM      2  P   UNL     1      36.124 -24.164 -14.239  0.00  0.00    +0.132 P 
ENDROOT
BRANCH   2   3
ATOM      3  N   UNL     1      34.620 -24.568 -14.837  0.00  0.00    -0.230 NA
ATOM      4  C   UNL     1      33.484 -23.917 -14.207  0.00  0.00    +0.096 C 
ATOM      5  C   UNL     1      33.927 -23.535 -15.589  0.00  0.00    +0.096 C 
ENDBRANCH   2   3
BRANCH   2   6
ATOM      6  N   UNL     1      35.787 -23.535 -12.731  0.00  0.00    -0.230 NA
ATOM      7  C   UNL     1      36.113 -24.383 -11.596  0.00  0.00    +0.096 C 
ATOM      8  C   UNL     1      36.933 -23.167 -11.915  0.00  0.00    +0.096 C 
ENDBRANCH   2   6
BRANCH   2   9
ATOM      9  N   UNL     1      36.818 -25.642 -13.899  0.00  0.00    -0.230 NA
ATOM     10  C   UNL     1      36.888 -26.586 -15.001  0.00  0.00    +0.096 C 
ATOM     11  C   UNL     1      38.119 -25.895 -14.495  0.00  0.00    +0.096 C 
ENDBRANCH   2   9
TORSDOF 3
ENDMDL
MODEL 7
REMARK VINA RESULT:      -4.6      2.042      2.724
REMARK  Name = 5453
REMARK  3 active torsions:
REMARK  status: ('A' for Active; 'I' for Inactive)
REMARK    1  A    between atoms: P_2  and  N_3
REMARK    2  A    between atoms: P_2  and  N_6
REMARK    3  A    between atoms: P_2  and  N_9
REMARK                            x       y       z     vdW  Elec       q    Type
REMARK                         _______ _______ _______ _____ _____    ______ ____
ROOT
ATOM      1  S   UNL     1      37.571 -22.909 -15.670  0.00  0.00    -0.017 S 
ATOM      2  P   UNL     1      37.756 -24.387 -14.398  0.00  0.00    +0.132 P 
ENDROOT
BRANCH   2   3
ATOM      3  N   UNL     1      36.368 -25.280 -14.150  0.00  0.00    -0.230 NA
ATOM      4  C   UNL     1      35.254 -24.992 -15.037  0.00  0.00    +0.096 C 
ATOM      5  C   UNL     1      36.043 -26.262 -15.171  0.00  0.00    +0.096 C 
ENDBRANCH   2   3
BRANCH   2   6
ATOM      6  N   UNL     1      38.208 -23.936 -12.856  0.00  0.00    -0.230 NA
ATOM      7  C   UNL     1      37.352 -22.964 -12.197  0.00  0.00    +0.096 C 
ATOM      8  C   UNL     1      37.359 -24.404 -11.773  0.00  0.00    +0.096 C 
ENDBRANCH   2   6
BRANCH   2   9
ATOM      9  N   UNL     1      38.890 -25.537 -14.815  0.00  0.00    -0.230 NA
ATOM     10  C   UNL     1      40.194 -25.036 -15.212  0.00  0.00    +0.096 C 
ATOM     11  C   UNL     1      39.996 -25.716 -13.889  0.00  0.00    +0.096 C 
ENDBRANCH   2   9
TORSDOF 3
ENDMDL
MODEL 8
REMARK VINA RESULT:      -4.6      2.052      3.397
REMARK  Name = 5453
REMARK  3 active torsions:
REMARK  status: ('A' for Active; 'I' for Inactive)
REMARK    1  A    between atoms: P_2  and  N_3
REMARK    2  A    between atoms: P_2  and  N_6
REMARK    3  A    between atoms: P_2  and  N_9
REMARK                            x       y       z     vdW  Elec       q    Type
REMARK                         _______ _______ _______ _____ _____    ______ ____
ROOT
ATOM      1  S   UNL     1      37.578 -22.939 -15.634  0.00  0.00    -0.017 S 
ATOM      2  P   UNL     1      37.770 -24.423 -14.369  0.00  0.00    +0.132 P 
ENDROOT
BRANCH   2   3
ATOM      3  N   UNL     1      38.217 -23.978 -12.825  0.00  0.00    -0.230 NA
ATOM      4  C   UNL     1      37.380 -22.984 -12.177  0.00  0.00    +0.096 C 
ATOM      5  C   UNL     1      37.346 -24.422 -11.749  0.00  0.00    +0.096 C 
ENDBRANCH   2   3
BRANCH   2   6
ATOM      6  N   UNL     1      38.913 -25.563 -14.791  0.00  0.00    -0.230 NA
ATOM      7  C   UNL     1      40.203 -25.048 -15.219  0.00  0.00    +0.096 C 
ATOM      8  C   UNL     1      40.039 -25.713 -13.884  0.00  0.00    +0.096 C 
ENDBRANCH   2   6
BRANCH   2   9
ATOM      9  N   UNL     1      36.389 -25.327 -14.130  0.00  0.00    -0.230 NA
ATOM     10  C   UNL     1      35.247 -24.984 -14.960  0.00  0.00    +0.096 C 
ATOM     11  C   UNL     1      36.027 -26.244 -15.198  0.00  0.00    +0.096 C 
ENDBRANCH   2   9
TORSDOF 3
ENDMDL
MODEL 9
REMARK VINA RESULT:      -4.3      2.026      3.205
REMARK  Name = 5453
REMARK  3 active torsions:
REMARK  status: ('A' for Active; 'I' for Inactive)
REMARK    1  A    between atoms: P_2  and  N_3
REMARK    2  A    between atoms: P_2  and  N_6
REMARK    3  A    between atoms: P_2  and  N_9
REMARK                            x       y       z     vdW  Elec       q    Type
REMARK                         _______ _______ _______ _____ _____    ______ ____
ROOT
ATOM      1  S   UNL     1      36.579 -25.929 -14.949  0.00  0.00    -0.017 S 
ATOM      2  P   UNL     1      36.457 -24.205 -14.025  0.00  0.00    +0.132 P 
ENDROOT
BRANCH   2   3
ATOM      3  N   UNL     1      36.789 -24.259 -12.391  0.00  0.00    -0.230 NA
ATOM      4  C   UNL     1      38.183 -24.103 -12.014  0.00  0.00    +0.096 C 
ATOM      5  C   UNL     1      37.188 -23.005 -11.773  0.00  0.00    +0.096 C 
ENDBRANCH   2   3
BRANCH   2   6
ATOM      6  N   UNL     1      34.960 -23.474 -14.094  0.00  0.00    -0.230 NA
ATOM      7  C   UNL     1      33.960 -24.138 -14.915  0.00  0.00    +0.096 C 
ATOM      8  C   UNL     1      33.874 -24.164 -13.417  0.00  0.00    +0.096 C 
ENDBRANCH   2   6
BRANCH   2   9
ATOM      9  N   UNL     1      37.492 -23.028 -14.594  0.00  0.00    -0.230 NA
ATOM     10  C   UNL     1      38.193 -23.333 -15.830  0.00  0.00    +0.096 C 
ATOM     11  C   UNL     1      37.075 -22.332 -15.800  0.00  0.00    +0.096 C 
ENDBRANCH   2   9
TORSDOF 3
ENDMDL
