MODEL 1
REMARK VINA RESULT:      -8.4      0.000      0.000
REMARK  Name = 9836181
REMARK  2 active torsions:
REMARK  status: ('A' for Active; 'I' for Inactive)
REMARK    1  A    between atoms: C_8  and  O_21
REMARK    2  A    between atoms: C_19  and  O_23
REMARK                            x       y       z     vdW  Elec       q    Type
REMARK                         _______ _______ _______ _____ _____    ______ ____
ROOT
ATOM      1  O   UNL     1      34.077 -24.428 -12.479  0.00  0.00    -0.296 OA
ATOM      2  C   UNL     1      34.341 -22.279 -17.228  0.00  0.00    +0.002 C 
ATOM      3  C   UNL     1      35.741 -22.803 -16.749  0.00  0.00    +0.027 C 
ATOM      4  C   UNL     1      34.309 -21.995 -18.775  0.00  0.00    +0.000 C 
ATOM      5  C   UNL     1      35.669 -22.987 -15.222  0.00  0.00    +0.009 C 
ATOM      6  C   UNL     1      35.452 -20.976 -19.082  0.00  0.00    +0.005 C 
ATOM      7  C   UNL     1      34.597 -24.024 -14.822  0.00  0.00    +0.052 C 
ATOM      8  C   UNL     1      36.874 -21.851 -17.178  0.00  0.00    +0.110 C 
ATOM      9  C   UNL     1      33.174 -23.170 -16.722  0.00  0.00    +0.000 C 
ATOM     10  C   UNL     1      36.825 -21.508 -18.669  0.00  0.00    +0.029 C 
ATOM     11  C   UNL     1      33.233 -23.469 -15.215  0.00  0.00    +0.007 C 
ATOM     12  C   UNL     1      32.963 -21.332 -19.185  0.00  0.00    +0.002 C 
ATOM     13  C   UNL     1      36.900 -23.407 -14.422  0.00  0.00    +0.008 C 
ATOM     14  C   UNL     1      35.456 -20.502 -20.541  0.00  0.00    +0.029 C 
ATOM     15  C   UNL     1      34.472 -23.311 -19.578  0.00  0.00    +0.000 C 
ATOM     16  C   UNL     1      34.886 -24.088 -13.333  0.00  0.00    +0.150 C 
ATOM     17  C   UNL     1      32.946 -20.819 -20.626  0.00  0.00    +0.029 C 
ATOM     18  C   UNL     1      36.323 -23.710 -13.031  0.00  0.00    +0.064 C 
ATOM     19  C   UNL     1      34.112 -19.883 -20.921  0.00  0.00    +0.111 C 
ATOM     20  C   UNL     1      34.802 -25.448 -15.371  0.00  0.00    +0.007 C 
ENDROOT
BRANCH   8  21
ATOM     21  O   UNL     1      38.136 -22.462 -16.915  0.00  0.00    -0.384 OA
ATOM     22  H   UNL     1      38.048 -23.425 -16.980  0.00  0.00    +0.210 HD
ENDBRANCH   8  21
BRANCH  19  23
ATOM     23  O   UNL     1      34.134 -19.568 -22.310  0.00  0.00    -0.384 OA
ATOM     24  H   UNL     1      33.851 -18.649 -22.437  0.00  0.00    +0.210 HD
ENDBRANCH  19  23
TORSDOF 2
ENDMDL
MODEL 2
REMARK VINA RESULT:      -8.2      3.048      6.090
REMARK  Name = 9836181
REMARK  2 active torsions:
REMARK  status: ('A' for Active; 'I' for Inactive)
REMARK    1  A    between atoms: C_8  and  O_21
REMARK    2  A    between atoms: C_19  and  O_23
REMARK                            x       y       z     vdW  Elec       q    Type
REMARK                         _______ _______ _______ _____ _____    ______ ____
ROOT
ATOM      1  O   UNL     1      29.614 -24.376 -14.696  0.00  0.00    -0.296 OA
ATOM      2  C   UNL     1      34.818 -24.521 -14.330  0.00  0.00    +0.002 C 
ATOM      3  C   UNL     1      34.336 -23.381 -15.293  0.00  0.00    +0.027 C 
ATOM      4  C   UNL     1      36.321 -24.341 -13.898  0.00  0.00    +0.000 C 
ATOM      5  C   UNL     1      32.882 -23.695 -15.692  0.00  0.00    +0.009 C 
ATOM      6  C   UNL     1      37.173 -24.278 -15.205  0.00  0.00    +0.005 C 
ATOM      7  C   UNL     1      31.948 -23.724 -14.463  0.00  0.00    +0.052 C 
ATOM      8  C   UNL     1      35.268 -23.243 -16.512  0.00  0.00    +0.110 C 
ATOM      9  C   UNL     1      33.840 -24.745 -13.144  0.00  0.00    +0.000 C 
ATOM     10  C   UNL     1      36.743 -23.132 -16.120  0.00  0.00    +0.029 C 
ATOM     11  C   UNL     1      32.371 -24.887 -13.574  0.00  0.00    +0.007 C 
ATOM     12  C   UNL     1      36.807 -25.567 -13.074  0.00  0.00    +0.002 C 
ATOM     13  C   UNL     1      32.137 -22.821 -16.698  0.00  0.00    +0.008 C 
ATOM     14  C   UNL     1      38.683 -24.236 -14.933  0.00  0.00    +0.029 C 
ATOM     15  C   UNL     1      36.493 -23.068 -13.030  0.00  0.00    +0.000 C 
ATOM     16  C   UNL     1      30.624 -23.887 -15.188  0.00  0.00    +0.150 C 
ATOM     17  C   UNL     1      38.315 -25.572 -12.814  0.00  0.00    +0.029 C 
ATOM     18  C   UNL     1      30.692 -23.332 -16.598  0.00  0.00    +0.064 C 
ATOM     19  C   UNL     1      39.125 -25.437 -14.098  0.00  0.00    +0.111 C 
ATOM     20  C   UNL     1      31.850 -22.412 -13.662  0.00  0.00    +0.007 C 
ENDROOT
BRANCH   8  21
ATOM     21  O   UNL     1      34.925 -22.070 -17.246  0.00  0.00    -0.384 OA
ATOM     22  H   UNL     1      35.209 -22.170 -18.168  0.00  0.00    +0.210 HD
ENDBRANCH   8  21
BRANCH  19  23
ATOM     23  O   UNL     1      40.505 -25.286 -13.781  0.00  0.00    -0.384 OA
ATOM     24  H   UNL     1      40.818 -24.425 -14.099  0.00  0.00    +0.210 HD
ENDBRANCH  19  23
TORSDOF 2
ENDMDL
MODEL 3
REMARK VINA RESULT:      -8.2      2.891      4.940
REMARK  Name = 9836181
REMARK  2 active torsions:
REMARK  status: ('A' for Active; 'I' for Inactive)
REMARK    1  A    between atoms: C_8  and  O_21
REMARK    2  A    between atoms: C_19  and  O_23
REMARK                            x       y       z     vdW  Elec       q    Type
REMARK                         _______ _______ _______ _____ _____    ______ ____
ROOT
ATOM      1  O   UNL     1      37.905 -23.591 -13.244  0.00  0.00    -0.296 OA
ATOM      2  C   UNL     1      32.915 -23.410 -14.762  0.00  0.00    +0.002 C 
ATOM      3  C   UNL     1      33.892 -23.508 -15.986  0.00  0.00    +0.027 C 
ATOM      4  C   UNL     1      31.429 -23.747 -15.156  0.00  0.00    +0.000 C 
ATOM      5  C   UNL     1      35.293 -23.101 -15.495  0.00  0.00    +0.009 C 
ATOM      6  C   UNL     1      31.024 -22.773 -16.307  0.00  0.00    +0.005 C 
ATOM      7  C   UNL     1      35.805 -24.046 -14.386  0.00  0.00    +0.052 C 
ATOM      8  C   UNL     1      33.403 -22.644 -17.165  0.00  0.00    +0.110 C 
ATOM      9  C   UNL     1      33.437 -24.193 -13.527  0.00  0.00    +0.000 C 
ATOM     10  C   UNL     1      31.939 -22.908 -17.525  0.00  0.00    +0.029 C 
ATOM     11  C   UNL     1      34.900 -23.881 -13.170  0.00  0.00    +0.007 C 
ATOM     12  C   UNL     1      30.471 -23.488 -13.958  0.00  0.00    +0.002 C 
ATOM     13  C   UNL     1      36.468 -23.006 -16.465  0.00  0.00    +0.008 C 
ATOM     14  C   UNL     1      29.547 -22.899 -16.705  0.00  0.00    +0.029 C 
ATOM     15  C   UNL     1      31.298 -25.233 -15.577  0.00  0.00    +0.000 C 
ATOM     16  C   UNL     1      37.212 -23.494 -14.249  0.00  0.00    +0.150 C 
ATOM     17  C   UNL     1      28.989 -23.573 -14.330  0.00  0.00    +0.029 C 
ATOM     18  C   UNL     1      37.676 -22.831 -15.532  0.00  0.00    +0.064 C 
ATOM     19  C   UNL     1      28.633 -22.668 -15.504  0.00  0.00    +0.111 C 
ATOM     20  C   UNL     1      35.952 -25.528 -14.780  0.00  0.00    +0.007 C 
ENDROOT
BRANCH   8  21
ATOM     21  O   UNL     1      34.190 -22.924 -18.320  0.00  0.00    -0.384 OA
ATOM     22  H   UNL     1      34.722 -22.144 -18.546  0.00  0.00    +0.210 HD
ENDBRANCH   8  21
BRANCH  19  23
ATOM     23  O   UNL     1      27.288 -22.909 -15.904  0.00  0.00    -0.384 OA
ATOM     24  H   UNL     1      27.282 -23.452 -16.707  0.00  0.00    +0.210 HD
ENDBRANCH  19  23
TORSDOF 2
ENDMDL
MODEL 4
REMARK VINA RESULT:      -7.4      1.520      6.671
REMARK  Name = 9836181
REMARK  2 active torsions:
REMARK  status: ('A' for Active; 'I' for Inactive)
REMARK    1  A    between atoms: C_8  and  O_21
REMARK    2  A    between atoms: C_19  and  O_23
REMARK                            x       y       z     vdW  Elec       q    Type
REMARK                         _______ _______ _______ _____ _____    ______ ____
ROOT
ATOM      1  O   UNL     1      35.731 -19.800 -20.998  0.00  0.00    -0.296 OA
ATOM      2  C   UNL     1      35.227 -22.485 -16.551  0.00  0.00    +0.002 C 
ATOM      3  C   UNL     1      33.998 -22.701 -17.503  0.00  0.00    +0.027 C 
ATOM      4  C   UNL     1      35.292 -23.563 -15.407  0.00  0.00    +0.000 C 
ATOM      5  C   UNL     1      34.006 -21.561 -18.537  0.00  0.00    +0.009 C 
ATOM      6  C   UNL     1      33.935 -23.501 -14.636  0.00  0.00    +0.005 C 
ATOM      7  C   UNL     1      35.292 -21.574 -19.391  0.00  0.00    +0.052 C 
ATOM      8  C   UNL     1      32.679 -22.773 -16.710  0.00  0.00    +0.110 C 
ATOM      9  C   UNL     1      36.556 -22.311 -17.335  0.00  0.00    +0.000 C 
ATOM     10  C   UNL     1      32.739 -23.769 -15.550  0.00  0.00    +0.029 C 
ATOM     11  C   UNL     1      36.473 -21.279 -18.472  0.00  0.00    +0.007 C 
ATOM     12  C   UNL     1      36.426 -23.226 -14.397  0.00  0.00    +0.002 C 
ATOM     13  C   UNL     1      32.886 -21.425 -19.566  0.00  0.00    +0.008 C 
ATOM     14  C   UNL     1      33.906 -24.412 -13.401  0.00  0.00    +0.029 C 
ATOM     15  C   UNL     1      35.562 -24.972 -15.996  0.00  0.00    +0.000 C 
ATOM     16  C   UNL     1      34.924 -20.478 -20.374  0.00  0.00    +0.150 C 
ATOM     17  C   UNL     1      36.405 -24.096 -13.139  0.00  0.00    +0.029 C 
ATOM     18  C   UNL     1      33.420 -20.347 -20.520  0.00  0.00    +0.064 C 
ATOM     19  C   UNL     1      35.048 -24.076 -12.444  0.00  0.00    +0.111 C 
ATOM     20  C   UNL     1      35.534 -22.848 -20.223  0.00  0.00    +0.007 C 
ENDROOT
BRANCH   8  21
ATOM     21  O   UNL     1      31.622 -23.180 -17.576  0.00  0.00    -0.384 OA
ATOM     22  H   UNL     1      31.026 -22.432 -17.732  0.00  0.00    +0.210 HD
ENDBRANCH   8  21
BRANCH  19  23
ATOM     23  O   UNL     1      35.041 -25.022 -11.379  0.00  0.00    -0.384 OA
ATOM     24  H   UNL     1      35.954 -25.235 -11.131  0.00  0.00    +0.210 HD
ENDBRANCH  19  23
TORSDOF 2
ENDMDL
MODEL 5
REMARK VINA RESULT:      -7.1      6.084      9.565
REMARK  Name = 9836181
REMARK  2 active torsions:
REMARK  status: ('A' for Active; 'I' for Inactive)
REMARK    1  A    between atoms: C_8  and  O_21
REMARK    2  A    between atoms: C_19  and  O_23
REMARK                            x       y       z     vdW  Elec       q    Type
REMARK                         _______ _______ _______ _____ _____    ______ ____
ROOT
ATOM      1  O   UNL     1      35.967 -19.466 -20.094  0.00  0.00    -0.296 OA
ATOM      2  C   UNL     1      34.479 -15.299 -22.863  0.00  0.00    +0.002 C 
ATOM      3  C   UNL     1      34.087 -16.641 -23.576  0.00  0.00    +0.027 C 
ATOM      4  C   UNL     1      33.712 -14.061 -23.459  0.00  0.00    +0.000 C 
ATOM      5  C   UNL     1      34.938 -17.763 -22.954  0.00  0.00    +0.009 C 
ATOM      6  C   UNL     1      34.019 -14.021 -24.990  0.00  0.00    +0.005 C 
ATOM      7  C   UNL     1      34.662 -17.916 -21.442  0.00  0.00    +0.052 C 
ATOM      8  C   UNL     1      34.268 -16.538 -25.103  0.00  0.00    +0.110 C 
ATOM      9  C   UNL     1      34.399 -15.409 -21.316  0.00  0.00    +0.000 C 
ATOM     10  C   UNL     1      33.585 -15.305 -25.698  0.00  0.00    +0.029 C 
ATOM     11  C   UNL     1      35.123 -16.640 -20.746  0.00  0.00    +0.007 C 
ATOM     12  C   UNL     1      34.239 -12.736 -22.836  0.00  0.00    +0.002 C 
ATOM     13  C   UNL     1      34.864 -19.192 -23.485  0.00  0.00    +0.008 C 
ATOM     14  C   UNL     1      33.440 -12.780 -25.684  0.00  0.00    +0.029 C 
ATOM     15  C   UNL     1      32.192 -14.167 -23.172  0.00  0.00    +0.000 C 
ATOM     16  C   UNL     1      35.497 -19.156 -21.182  0.00  0.00    +0.150 C 
ATOM     17  C   UNL     1      33.706 -11.480 -23.528  0.00  0.00    +0.029 C 
ATOM     18  C   UNL     1      35.652 -19.993 -22.437  0.00  0.00    +0.064 C 
ATOM     19  C   UNL     1      33.953 -11.497 -25.032  0.00  0.00    +0.111 C 
ATOM     20  C   UNL     1      33.214 -18.273 -21.056  0.00  0.00    +0.007 C 
ENDROOT
BRANCH   8  21
ATOM     21  O   UNL     1      33.705 -17.689 -25.729  0.00  0.00    -0.384 OA
ATOM     22  H   UNL     1      34.019 -18.488 -25.278  0.00  0.00    +0.210 HD
ENDBRANCH   8  21
BRANCH  19  23
ATOM     23  O   UNL     1      33.298 -10.388 -25.638  0.00  0.00    -0.384 OA
ATOM     24  H   UNL     1      33.884  -9.615 -25.615  0.00  0.00    +0.210 HD
ENDBRANCH  19  23
TORSDOF 2
ENDMDL
MODEL 6
REMARK VINA RESULT:      -7.0      9.533     13.888
REMARK  Name = 9836181
REMARK  2 active torsions:
REMARK  status: ('A' for Active; 'I' for Inactive)
REMARK    1  A    between atoms: C_8  and  O_21
REMARK    2  A    between atoms: C_19  and  O_23
REMARK                            x       y       z     vdW  Elec       q    Type
REMARK                         _______ _______ _______ _____ _____    ______ ____
ROOT
ATOM      1  O   UNL     1      33.275  -6.151 -23.557  0.00  0.00    -0.296 OA
ATOM      2  C   UNL     1      33.219 -11.281 -22.602  0.00  0.00    +0.002 C 
ATOM      3  C   UNL     1      32.110 -10.527 -21.788  0.00  0.00    +0.027 C 
ATOM      4  C   UNL     1      32.976 -12.836 -22.642  0.00  0.00    +0.000 C 
ATOM      5  C   UNL     1      32.483  -9.034 -21.769  0.00  0.00    +0.009 C 
ATOM      6  C   UNL     1      32.898 -13.329 -21.162  0.00  0.00    +0.005 C 
ATOM      7  C   UNL     1      32.532  -8.440 -23.193  0.00  0.00    +0.052 C 
ATOM      8  C   UNL     1      31.952 -11.117 -20.373  0.00  0.00    +0.110 C 
ATOM      9  C   UNL     1      33.465 -10.643 -23.996  0.00  0.00    +0.000 C 
ATOM     10  C   UNL     1      31.780 -12.637 -20.382  0.00  0.00    +0.029 C 
ATOM     11  C   UNL     1      33.668  -9.119 -23.950  0.00  0.00    +0.007 C 
ATOM     12  C   UNL     1      34.173 -13.562 -23.319  0.00  0.00    +0.002 C 
ATOM     13  C   UNL     1      31.651  -8.025 -20.981  0.00  0.00    +0.008 C 
ATOM     14  C   UNL     1      32.796 -14.856 -21.044  0.00  0.00    +0.029 C 
ATOM     15  C   UNL     1      31.687 -13.170 -23.435  0.00  0.00    +0.000 C 
ATOM     16  C   UNL     1      32.754  -6.984 -22.826  0.00  0.00    +0.150 C 
ATOM     17  C   UNL     1      34.117 -15.086 -23.191  0.00  0.00    +0.029 C 
ATOM     18  C   UNL     1      32.215  -6.673 -21.443  0.00  0.00    +0.064 C 
ATOM     19  C   UNL     1      33.968 -15.541 -21.744  0.00  0.00    +0.111 C 
ATOM     20  C   UNL     1      31.215  -8.495 -23.991  0.00  0.00    +0.007 C 
ENDROOT
BRANCH   8  21
ATOM     21  O   UNL     1      30.802 -10.554 -19.747  0.00  0.00    -0.384 OA
ATOM     22  H   UNL     1      31.011 -10.333 -18.826  0.00  0.00    +0.210 HD
ENDBRANCH   8  21
BRANCH  19  23
ATOM     23  O   UNL     1      33.762 -16.949 -21.703  0.00  0.00    -0.384 OA
ATOM     24  H   UNL     1      33.211 -17.217 -22.455  0.00  0.00    +0.210 HD
ENDBRANCH  19  23
TORSDOF 2
ENDMDL
MODEL 7
REMARK VINA RESULT:      -6.5      3.238      5.420
REMARK  Name = 9836181
REMARK  2 active torsions:
REMARK  status: ('A' for Active; 'I' for Inactive)
REMARK    1  A    between atoms: C_8  and  O_21
REMARK    2  A    between atoms: C_19  and  O_23
REMARK                            x       y       z     vdW  Elec       q    Type
REMARK                         _______ _______ _______ _____ _____    ______ ____
ROOT
ATOM      1  O   UNL     1      39.056 -23.793 -15.836  0.00  0.00    -0.296 OA
ATOM      2  C   UNL     1      33.853 -23.753 -15.434  0.00  0.00    +0.002 C 
ATOM      3  C   UNL     1      34.539 -24.079 -14.061  0.00  0.00    +0.027 C 
ATOM      4  C   UNL     1      32.341 -23.350 -15.264  0.00  0.00    +0.000 C 
ATOM      5  C   UNL     1      35.986 -24.514 -14.357  0.00  0.00    +0.009 C 
ATOM      6  C   UNL     1      31.631 -24.524 -14.518  0.00  0.00    +0.005 C 
ATOM      7  C   UNL     1      36.789 -23.391 -15.049  0.00  0.00    +0.052 C 
ATOM      8  C   UNL     1      33.749 -25.144 -13.277  0.00  0.00    +0.110 C 
ATOM      9  C   UNL     1      34.683 -22.754 -16.285  0.00  0.00    +0.000 C 
ATOM     10  C   UNL     1      32.261 -24.806 -13.154  0.00  0.00    +0.029 C 
ATOM     11  C   UNL     1      36.166 -23.139 -16.418  0.00  0.00    +0.007 C 
ATOM     12  C   UNL     1      31.656 -23.187 -16.651  0.00  0.00    +0.002 C 
ATOM     13  C   UNL     1      36.909 -24.987 -13.238  0.00  0.00    +0.008 C 
ATOM     14  C   UNL     1      30.114 -24.327 -14.400  0.00  0.00    +0.029 C 
ATOM     15  C   UNL     1      32.214 -22.010 -14.494  0.00  0.00    +0.000 C 
ATOM     16  C   UNL     1      38.154 -24.055 -15.051  0.00  0.00    +0.150 C 
ATOM     17  C   UNL     1      30.137 -23.021 -16.568  0.00  0.00    +0.029 C 
ATOM     18  C   UNL     1      38.280 -25.066 -13.928  0.00  0.00    +0.064 C 
ATOM     19  C   UNL     1      29.475 -24.141 -15.774  0.00  0.00    +0.111 C 
ATOM     20  C   UNL     1      36.938 -22.082 -14.251  0.00  0.00    +0.007 C 
ENDROOT
BRANCH   8  21
ATOM     21  O   UNL     1      34.278 -25.257 -11.958  0.00  0.00    -0.384 OA
ATOM     22  H   UNL     1      34.867 -24.507 -11.781  0.00  0.00    +0.210 HD
ENDBRANCH   8  21
BRANCH  19  23
ATOM     23  O   UNL     1      28.092 -23.849 -15.597  0.00  0.00    -0.384 OA
ATOM     24  H   UNL     1      27.887 -23.821 -14.649  0.00  0.00    +0.210 HD
ENDBRANCH  19  23
TORSDOF 2
ENDMDL
MODEL 8
REMARK VINA RESULT:      -6.5     11.146     14.852
REMARK  Name = 9836181
REMARK  2 active torsions:
REMARK  status: ('A' for Active; 'I' for Inactive)
REMARK    1  A    between atoms: C_8  and  O_21
REMARK    2  A    between atoms: C_19  and  O_23
REMARK                            x       y       z     vdW  Elec       q    Type
REMARK                         _______ _______ _______ _____ _____    ______ ____
ROOT
ATOM      1  O   UNL     1      32.699 -14.391 -24.386  0.00  0.00    -0.296 OA
ATOM      2  C   UNL     1      32.291  -9.304 -23.293  0.00  0.00    +0.002 C 
ATOM      3  C   UNL     1      32.557 -10.156 -22.003  0.00  0.00    +0.027 C 
ATOM      4  C   UNL     1      32.555  -7.770 -23.060  0.00  0.00    +0.000 C 
ATOM      5  C   UNL     1      32.212 -11.619 -22.333  0.00  0.00    +0.009 C 
ATOM      6  C   UNL     1      31.652  -7.322 -21.867  0.00  0.00    +0.005 C 
ATOM      7  C   UNL     1      33.096 -12.170 -23.473  0.00  0.00    +0.052 C 
ATOM      8  C   UNL     1      31.760  -9.616 -20.799  0.00  0.00    +0.110 C 
ATOM      9  C   UNL     1      33.007  -9.887 -24.542  0.00  0.00    +0.000 C 
ATOM     10  C   UNL     1      31.949  -8.112 -20.591  0.00  0.00    +0.029 C 
ATOM     11  C   UNL     1      32.770 -11.393 -24.743  0.00  0.00    +0.007 C 
ATOM     12  C   UNL     1      32.132  -6.943 -24.308  0.00  0.00    +0.002 C 
ATOM     13  C   UNL     1      32.278 -12.704 -21.261  0.00  0.00    +0.008 C 
ATOM     14  C   UNL     1      31.705  -5.810 -21.610  0.00  0.00    +0.029 C 
ATOM     15  C   UNL     1      34.057  -7.507 -22.783  0.00  0.00    +0.000 C 
ATOM     16  C   UNL     1      32.635 -13.616 -23.440  0.00  0.00    +0.150 C 
ATOM     17  C   UNL     1      32.143  -5.431 -24.074  0.00  0.00    +0.029 C 
ATOM     18  C   UNL     1      32.113 -14.000 -22.069  0.00  0.00    +0.064 C 
ATOM     19  C   UNL     1      31.314  -5.026 -22.861  0.00  0.00    +0.111 C 
ATOM     20  C   UNL     1      34.612 -12.187 -23.199  0.00  0.00    +0.007 C 
ENDROOT
BRANCH   8  21
ATOM     21  O   UNL     1      32.187 -10.275 -19.609  0.00  0.00    -0.384 OA
ATOM     22  H   UNL     1      31.621 -11.045 -19.445  0.00  0.00    +0.210 HD
ENDBRANCH   8  21
BRANCH  19  23
ATOM     23  O   UNL     1      31.492  -3.638 -22.601  0.00  0.00    -0.384 OA
ATOM     24  H   UNL     1      32.121  -3.267 -23.239  0.00  0.00    +0.210 HD
ENDBRANCH  19  23
TORSDOF 2
ENDMDL
MODEL 9
REMARK VINA RESULT:      -6.4     10.953     15.129
REMARK  Name = 9836181
REMARK  2 active torsions:
REMARK  status: ('A' for Active; 'I' for Inactive)
REMARK    1  A    between atoms: C_8  and  O_21
REMARK    2  A    between atoms: C_19  and  O_23
REMARK                            x       y       z     vdW  Elec       q    Type
REMARK                         _______ _______ _______ _____ _____    ______ ____
ROOT
ATOM      1  O   UNL     1      32.532  -5.226 -24.455  0.00  0.00    -0.296 OA
ATOM      2  C   UNL     1      32.327  -9.989 -22.333  0.00  0.00    +0.002 C 
ATOM      3  C   UNL     1      31.734  -8.900 -21.373  0.00  0.00    +0.027 C 
ATOM      4  C   UNL     1      31.926 -11.448 -21.900  0.00  0.00    +0.000 C 
ATOM      5  C   UNL     1      32.239  -7.529 -21.858  0.00  0.00    +0.009 C 
ATOM      6  C   UNL     1      32.407 -11.641 -20.427  0.00  0.00    +0.005 C 
ATOM      7  C   UNL     1      31.765  -7.223 -23.295  0.00  0.00    +0.052 C 
ATOM      8  C   UNL     1      32.107  -9.182 -19.904  0.00  0.00    +0.110 C 
ATOM      9  C   UNL     1      32.049  -9.673 -23.828  0.00  0.00    +0.000 C 
ATOM     10  C   UNL     1      31.786 -10.616 -19.478  0.00  0.00    +0.029 C 
ATOM     11  C   UNL     1      32.413  -8.235 -24.233  0.00  0.00    +0.007 C 
ATOM     12  C   UNL     1      32.657 -12.503 -22.778  0.00  0.00    +0.002 C 
ATOM     13  C   UNL     1      31.914  -6.253 -21.086  0.00  0.00    +0.008 C 
ATOM     14  C   UNL     1      32.201 -13.072 -19.912  0.00  0.00    +0.029 C 
ATOM     15  C   UNL     1      30.398 -11.663 -22.046  0.00  0.00    +0.000 C 
ATOM     16  C   UNL     1      32.270  -5.796 -23.403  0.00  0.00    +0.150 C 
ATOM     17  C   UNL     1      32.498 -13.939 -22.273  0.00  0.00    +0.029 C 
ATOM     18  C   UNL     1      32.379  -5.142 -22.039  0.00  0.00    +0.064 C 
ATOM     19  C   UNL     1      32.905 -14.087 -20.811  0.00  0.00    +0.111 C 
ATOM     20  C   UNL     1      30.239  -7.165 -23.502  0.00  0.00    +0.007 C 
ENDROOT
BRANCH   8  21
ATOM     21  O   UNL     1      31.379  -8.303 -19.049  0.00  0.00    -0.384 OA
ATOM     22  H   UNL     1      31.791  -8.292 -18.171  0.00  0.00    +0.210 HD
ENDBRANCH   8  21
BRANCH  19  23
ATOM     23  O   UNL     1      32.585 -15.397 -20.355  0.00  0.00    -0.384 OA
ATOM     24  H   UNL     1      33.403 -15.877 -20.150  0.00  0.00    +0.210 HD
ENDBRANCH  19  23
TORSDOF 2
ENDMDL
