MODEL 1
REMARK VINA RESULT:      -7.4      0.000      0.000
REMARK  Name = 9840777
REMARK  4 active torsions:
REMARK  status: ('A' for Active; 'I' for Inactive)
REMARK    1  A    between atoms: C3*_2  and  O3*_14
REMARK    2  A    between atoms: C4*_4  and  C5*_16
REMARK    3  A    between atoms: C1*_5  and  N_8
REMARK    4  A    between atoms: C5*_16  and  O5*_17
REMARK                            x       y       z     vdW  Elec       q    Type
REMARK                         _______ _______ _______ _____ _____    ______ ____
ROOT
ATOM      1  O4* UNL     1      37.890 -24.302 -14.343  0.00  0.00    -0.334 OA
ATOM      2  C3* UNL     1      37.741 -24.060 -11.989  0.00  0.00    +0.144 C 
ATOM      3  C2* UNL     1      36.625 -23.258 -12.617  0.00  0.00    +0.083 C 
ATOM      4  C4* UNL     1      38.166 -24.997 -13.111  0.00  0.00    +0.173 C 
ATOM      5  C1* UNL     1      37.066 -23.160 -14.067  0.00  0.00    +0.204 C 
ENDROOT
BRANCH   5   8
ATOM      6  I   UNL     1      31.749 -23.949 -14.679  0.00  0.00    -0.044 I 
ATOM      7  O   UNL     1      37.244 -22.481 -16.794  0.00  0.00    -0.206 OA
ATOM      8  N   UNL     1      35.964 -23.137 -14.984  0.00  0.00    -0.208 N 
ATOM      9  N   UNL     1      35.025 -22.780 -17.178  0.00  0.00    -0.162 NA
ATOM     10  C   UNL     1      34.701 -23.471 -14.510  0.00  0.00    +0.139 C 
ATOM     11  C   UNL     1      36.136 -22.783 -16.349  0.00  0.00    +0.218 C 
ATOM     12  C   UNL     1      33.614 -23.478 -15.285  0.00  0.00    +0.049 C 
ATOM     13  C   UNL     1      33.873 -23.100 -16.685  0.00  0.00    +0.115 C 
ENDBRANCH   5   8
BRANCH   2  14
ATOM     14  O3* UNL     1      38.820 -23.195 -11.645  0.00  0.00    -0.382 OA
ATOM     15  H3* UNL     1      39.219 -22.838 -12.454  0.00  0.00    +0.210 HD
ENDBRANCH   2  14
BRANCH   4  16
ATOM     16  C5* UNL     1      37.380 -26.302 -13.123  0.00  0.00    +0.169 C 
BRANCH  16  17
ATOM     17  O5* UNL     1      36.857 -26.534 -11.825  0.00  0.00    -0.379 OA
ATOM     18  H5* UNL     1      37.580 -26.516 -11.178  0.00  0.00    +0.211 HD
ENDBRANCH  16  17
ENDBRANCH   4  16
TORSDOF 4
ENDMDL
MODEL 2
REMARK VINA RESULT:      -7.3      9.243     11.099
REMARK  Name = 9840777
REMARK  4 active torsions:
REMARK  status: ('A' for Active; 'I' for Inactive)
REMARK    1  A    between atoms: C3*_2  and  O3*_14
REMARK    2  A    between atoms: C4*_4  and  C5*_16
REMARK    3  A    between atoms: C1*_5  and  N_8
REMARK    4  A    between atoms: C5*_16  and  O5*_17
REMARK                            x       y       z     vdW  Elec       q    Type
REMARK                         _______ _______ _______ _____ _____    ______ ____
ROOT
ATOM      1  O4* UNL     1      34.530 -19.166 -22.945  0.00  0.00    -0.334 OA
ATOM      2  C3* UNL     1      35.506 -18.850 -20.808  0.00  0.00    +0.144 C 
ATOM      3  C2* UNL     1      35.584 -17.542 -21.560  0.00  0.00    +0.083 C 
ATOM      4  C4* UNL     1      34.456 -19.632 -21.583  0.00  0.00    +0.173 C 
ATOM      5  C1* UNL     1      35.322 -17.971 -22.994  0.00  0.00    +0.204 C 
ENDROOT
BRANCH   5   8
ATOM      6  I   UNL     1      32.695 -13.245 -22.818  0.00  0.00    -0.044 I 
ATOM      7  O   UNL     1      34.895 -18.064 -25.775  0.00  0.00    -0.206 OA
ATOM      8  N   UNL     1      34.628 -16.973 -23.755  0.00  0.00    -0.208 N 
ATOM      9  N   UNL     1      33.774 -16.089 -25.831  0.00  0.00    -0.162 NA
ATOM     10  C   UNL     1      34.120 -15.864 -23.087  0.00  0.00    +0.139 C 
ATOM     11  C   UNL     1      34.454 -17.093 -25.159  0.00  0.00    +0.218 C 
ATOM     12  C   UNL     1      33.462 -14.884 -23.708  0.00  0.00    +0.049 C 
ATOM     13  C   UNL     1      33.322 -15.080 -25.162  0.00  0.00    +0.115 C 
ENDBRANCH   5   8
BRANCH   2  14
ATOM     14  O3* UNL     1      36.762 -19.521 -20.880  0.00  0.00    -0.382 OA
ATOM     15  H3* UNL     1      37.398 -19.083 -20.292  0.00  0.00    +0.210 HD
ENDBRANCH   2  14
BRANCH   4  16
ATOM     16  C5* UNL     1      33.040 -19.382 -21.080  0.00  0.00    +0.169 C 
BRANCH  16  17
ATOM     17  O5* UNL     1      32.587 -20.539 -20.393  0.00  0.00    -0.379 OA
ATOM     18  H5* UNL     1      33.348 -21.087 -20.148  0.00  0.00    +0.211 HD
ENDBRANCH  16  17
ENDBRANCH   4  16
TORSDOF 4
ENDMDL
MODEL 3
REMARK VINA RESULT:      -7.2      1.631      1.826
REMARK  Name = 9840777
REMARK  4 active torsions:
REMARK  status: ('A' for Active; 'I' for Inactive)
REMARK    1  A    between atoms: C3*_2  and  O3*_14
REMARK    2  A    between atoms: C4*_4  and  C5*_16
REMARK    3  A    between atoms: C1*_5  and  N_8
REMARK    4  A    between atoms: C5*_16  and  O5*_17
REMARK                            x       y       z     vdW  Elec       q    Type
REMARK                         _______ _______ _______ _____ _____    ______ ____
ROOT
ATOM      1  O4* UNL     1      36.960 -24.621 -15.486  0.00  0.00    -0.334 OA
ATOM      2  C3* UNL     1      37.481 -25.018 -13.207  0.00  0.00    +0.144 C 
ATOM      3  C2* UNL     1      36.179 -24.253 -13.267  0.00  0.00    +0.083 C 
ATOM      4  C4* UNL     1      37.627 -25.561 -14.621  0.00  0.00    +0.173 C 
ATOM      5  C1* UNL     1      36.175 -23.721 -14.690  0.00  0.00    +0.204 C 
ENDROOT
BRANCH   5   8
ATOM      6  I   UNL     1      30.907 -24.631 -13.865  0.00  0.00    -0.044 I 
ATOM      7  O   UNL     1      35.563 -22.696 -17.240  0.00  0.00    -0.206 OA
ATOM      8  N   UNL     1      34.856 -23.625 -15.245  0.00  0.00    -0.208 N 
ATOM      9  N   UNL     1      33.328 -23.029 -17.013  0.00  0.00    -0.162 NA
ATOM     10  C   UNL     1      33.782 -24.065 -14.479  0.00  0.00    +0.139 C 
ATOM     11  C   UNL     1      34.630 -23.094 -16.542  0.00  0.00    +0.218 C 
ATOM     12  C   UNL     1      32.519 -24.015 -14.908  0.00  0.00    +0.049 C 
ATOM     13  C   UNL     1      32.366 -23.453 -16.261  0.00  0.00    +0.115 C 
ENDBRANCH   5   8
BRANCH   2  14
ATOM     14  O3* UNL     1      38.552 -24.122 -12.919  0.00  0.00    -0.382 OA
ATOM     15  H3* UNL     1      38.848 -23.697 -13.740  0.00  0.00    +0.210 HD
ENDBRANCH   2  14
BRANCH   4  16
ATOM     16  C5* UNL     1      36.962 -26.920 -14.805  0.00  0.00    +0.169 C 
BRANCH  16  17
ATOM     17  O5* UNL     1      36.796 -27.164 -16.193  0.00  0.00    -0.379 OA
ATOM     18  H5* UNL     1      36.369 -26.398 -16.607  0.00  0.00    +0.211 HD
ENDBRANCH  16  17
ENDBRANCH   4  16
TORSDOF 4
ENDMDL
MODEL 4
REMARK VINA RESULT:      -7.1     10.615     12.511
REMARK  Name = 9840777
REMARK  4 active torsions:
REMARK  status: ('A' for Active; 'I' for Inactive)
REMARK    1  A    between atoms: C3*_2  and  O3*_14
REMARK    2  A    between atoms: C4*_4  and  C5*_16
REMARK    3  A    between atoms: C1*_5  and  N_8
REMARK    4  A    between atoms: C5*_16  and  O5*_17
REMARK                            x       y       z     vdW  Elec       q    Type
REMARK                         _______ _______ _______ _____ _____    ______ ____
ROOT
ATOM      1  O4* UNL     1      34.609 -14.847 -22.231  0.00  0.00    -0.334 OA
ATOM      2  C3* UNL     1      33.226 -13.375 -23.474  0.00  0.00    +0.144 C 
ATOM      3  C2* UNL     1      33.497 -14.596 -24.321  0.00  0.00    +0.083 C 
ATOM      4  C4* UNL     1      33.589 -13.842 -22.071  0.00  0.00    +0.173 C 
ATOM      5  C1* UNL     1      34.678 -15.235 -23.610  0.00  0.00    +0.204 C 
ENDROOT
BRANCH   5   8
ATOM      6  I   UNL     1      34.562 -19.885 -20.847  0.00  0.00    -0.044 I 
ATOM      7  O   UNL     1      34.749 -16.704 -26.011  0.00  0.00    -0.206 OA
ATOM      8  N   UNL     1      34.675 -16.666 -23.701  0.00  0.00    -0.208 N 
ATOM      9  N   UNL     1      34.705 -18.720 -24.966  0.00  0.00    -0.162 NA
ATOM     10  C   UNL     1      34.631 -17.404 -22.524  0.00  0.00    +0.139 C 
ATOM     11  C   UNL     1      34.712 -17.334 -24.954  0.00  0.00    +0.218 C 
ATOM     12  C   UNL     1      34.623 -18.739 -22.506  0.00  0.00    +0.049 C 
ATOM     13  C   UNL     1      34.664 -19.358 -23.843  0.00  0.00    +0.115 C 
ENDBRANCH   5   8
BRANCH   2  14
ATOM     14  O3* UNL     1      34.092 -12.313 -23.870  0.00  0.00    -0.382 OA
ATOM     15  H3* UNL     1      34.791 -12.201 -23.206  0.00  0.00    +0.210 HD
ENDBRANCH   2  14
BRANCH   4  16
ATOM     16  C5* UNL     1      32.415 -14.478 -21.336  0.00  0.00    +0.169 C 
BRANCH  16  17
ATOM     17  O5* UNL     1      32.914 -15.234 -20.244  0.00  0.00    -0.379 OA
ATOM     18  H5* UNL     1      32.901 -14.690 -19.442  0.00  0.00    +0.211 HD
ENDBRANCH  16  17
ENDBRANCH   4  16
TORSDOF 4
ENDMDL
MODEL 5
REMARK VINA RESULT:      -6.8      9.810     11.894
REMARK  Name = 9840777
REMARK  4 active torsions:
REMARK  status: ('A' for Active; 'I' for Inactive)
REMARK    1  A    between atoms: C3*_2  and  O3*_14
REMARK    2  A    between atoms: C4*_4  and  C5*_16
REMARK    3  A    between atoms: C1*_5  and  N_8
REMARK    4  A    between atoms: C5*_16  and  O5*_17
REMARK                            x       y       z     vdW  Elec       q    Type
REMARK                         _______ _______ _______ _____ _____    ______ ____
ROOT
ATOM      1  O4* UNL     1      35.644 -17.080 -22.911  0.00  0.00    -0.334 OA
ATOM      2  C3* UNL     1      34.966 -18.849 -21.486  0.00  0.00    +0.144 C 
ATOM      3  C2* UNL     1      34.090 -17.652 -21.200  0.00  0.00    +0.083 C 
ATOM      4  C4* UNL     1      35.571 -18.517 -22.843  0.00  0.00    +0.173 C 
ATOM      5  C1* UNL     1      34.865 -16.516 -21.846  0.00  0.00    +0.204 C 
ENDROOT
BRANCH   5   8
ATOM      6  I   UNL     1      33.032 -14.097 -26.324  0.00  0.00    -0.044 I 
ATOM      7  O   UNL     1      33.283 -14.775 -20.300  0.00  0.00    -0.206 OA
ATOM      8  N   UNL     1      34.013 -15.489 -22.373  0.00  0.00    -0.208 N 
ATOM      9  N   UNL     1      32.441 -13.680 -22.103  0.00  0.00    -0.162 NA
ATOM     10  C   UNL     1      33.949 -15.326 -23.752  0.00  0.00    +0.139 C 
ATOM     11  C   UNL     1      33.244 -14.650 -21.525  0.00  0.00    +0.218 C 
ATOM     12  C   UNL     1      33.185 -14.401 -24.336  0.00  0.00    +0.049 C 
ATOM     13  C   UNL     1      32.418 -13.570 -23.391  0.00  0.00    +0.115 C 
ENDBRANCH   5   8
BRANCH   2  14
ATOM     14  O3* UNL     1      35.995 -18.938 -20.504  0.00  0.00    -0.382 OA
ATOM     15  H3* UNL     1      36.842 -19.123 -20.939  0.00  0.00    +0.210 HD
ENDBRANCH   2  14
BRANCH   4  16
ATOM     16  C5* UNL     1      34.716 -18.999 -24.008  0.00  0.00    +0.169 C 
BRANCH  16  17
ATOM     17  O5* UNL     1      34.843 -18.079 -25.081  0.00  0.00    -0.379 OA
ATOM     18  H5* UNL     1      34.136 -18.235 -25.725  0.00  0.00    +0.211 HD
ENDBRANCH  16  17
ENDBRANCH   4  16
TORSDOF 4
ENDMDL
MODEL 6
REMARK VINA RESULT:      -6.7      1.168      1.557
REMARK  Name = 9840777
REMARK  4 active torsions:
REMARK  status: ('A' for Active; 'I' for Inactive)
REMARK    1  A    between atoms: C3*_2  and  O3*_14
REMARK    2  A    between atoms: C4*_4  and  C5*_16
REMARK    3  A    between atoms: C1*_5  and  N_8
REMARK    4  A    between atoms: C5*_16  and  O5*_17
REMARK                            x       y       z     vdW  Elec       q    Type
REMARK                         _______ _______ _______ _____ _____    ______ ____
ROOT
ATOM      1  O4* UNL     1      38.192 -23.787 -13.979  0.00  0.00    -0.334 OA
ATOM      2  C3* UNL     1      37.560 -25.308 -12.273  0.00  0.00    +0.144 C 
ATOM      3  C2* UNL     1      36.302 -24.743 -12.889  0.00  0.00    +0.083 C 
ATOM      4  C4* UNL     1      38.627 -24.987 -13.310  0.00  0.00    +0.173 C 
ATOM      5  C1* UNL     1      36.821 -23.528 -13.641  0.00  0.00    +0.204 C 
ENDROOT
BRANCH   5   8
ATOM      6  I   UNL     1      31.923 -23.419 -15.935  0.00  0.00    -0.044 I 
ATOM      7  O   UNL     1      37.942 -22.662 -16.075  0.00  0.00    -0.206 OA
ATOM      8  N   UNL     1      36.081 -23.257 -14.839  0.00  0.00    -0.208 N 
ATOM      9  N   UNL     1      35.942 -22.576 -17.149  0.00  0.00    -0.162 NA
ATOM     10  C   UNL     1      34.701 -23.427 -14.817  0.00  0.00    +0.139 C 
ATOM     11  C   UNL     1      36.721 -22.822 -16.029  0.00  0.00    +0.218 C 
ATOM     12  C   UNL     1      33.927 -23.198 -15.880  0.00  0.00    +0.049 C 
ATOM     13  C   UNL     1      34.663 -22.750 -17.075  0.00  0.00    +0.115 C 
ENDBRANCH   5   8
BRANCH   2  14
ATOM     14  O3* UNL     1      37.847 -24.625 -11.054  0.00  0.00    -0.382 OA
ATOM     15  H3* UNL     1      38.552 -23.975 -11.206  0.00  0.00    +0.210 HD
ENDBRANCH   2  14
BRANCH   4  16
ATOM     16  C5* UNL     1      38.780 -26.079 -14.360  0.00  0.00    +0.169 C 
BRANCH  16  17
ATOM     17  O5* UNL     1      39.300 -25.503 -15.549  0.00  0.00    -0.379 OA
ATOM     18  H5* UNL     1      40.089 -25.992 -15.827  0.00  0.00    +0.211 HD
ENDBRANCH  16  17
ENDBRANCH   4  16
TORSDOF 4
ENDMDL
MODEL 7
REMARK VINA RESULT:      -6.6     12.014     14.220
REMARK  Name = 9840777
REMARK  4 active torsions:
REMARK  status: ('A' for Active; 'I' for Inactive)
REMARK    1  A    between atoms: C3*_2  and  O3*_14
REMARK    2  A    between atoms: C4*_4  and  C5*_16
REMARK    3  A    between atoms: C1*_5  and  N_8
REMARK    4  A    between atoms: C5*_16  and  O5*_17
REMARK                            x       y       z     vdW  Elec       q    Type
REMARK                         _______ _______ _______ _____ _____    ______ ____
ROOT
ATOM      1  O4* UNL     1      32.298 -14.889 -22.676  0.00  0.00    -0.334 OA
ATOM      2  C3* UNL     1      34.086 -15.675 -21.332  0.00  0.00    +0.144 C 
ATOM      3  C2* UNL     1      34.657 -15.212 -22.651  0.00  0.00    +0.083 C 
ATOM      4  C4* UNL     1      32.712 -15.022 -21.302  0.00  0.00    +0.173 C 
ATOM      5  C1* UNL     1      33.422 -15.131 -23.534  0.00  0.00    +0.204 C 
ENDROOT
BRANCH   5   8
ATOM      6  I   UNL     1      34.452  -9.891 -24.398  0.00  0.00    -0.044 I 
ATOM      7  O   UNL     1      32.938 -15.455 -26.289  0.00  0.00    -0.206 OA
ATOM      8  N   UNL     1      33.506 -14.087 -24.513  0.00  0.00    -0.208 N 
ATOM      9  N   UNL     1      33.347 -13.275 -26.779  0.00  0.00    -0.162 NA
ATOM     10  C   UNL     1      33.852 -12.809 -24.091  0.00  0.00    +0.139 C 
ATOM     11  C   UNL     1      33.246 -14.331 -25.888  0.00  0.00    +0.218 C 
ATOM     12  C   UNL     1      33.956 -11.773 -24.926  0.00  0.00    +0.049 C 
ATOM     13  C   UNL     1      33.672 -12.106 -26.333  0.00  0.00    +0.115 C 
ENDBRANCH   5   8
BRANCH   2  14
ATOM     14  O3* UNL     1      33.948 -17.094 -21.339  0.00  0.00    -0.382 OA
ATOM     15  H3* UNL     1      33.029 -17.329 -21.543  0.00  0.00    +0.210 HD
ENDBRANCH   2  14
BRANCH   4  16
ATOM     16  C5* UNL     1      32.730 -13.630 -20.682  0.00  0.00    +0.169 C 
BRANCH  16  17
ATOM     17  O5* UNL     1      31.814 -12.804 -21.384  0.00  0.00    -0.379 OA
ATOM     18  H5* UNL     1      30.936 -13.214 -21.372  0.00  0.00    +0.211 HD
ENDBRANCH  16  17
ENDBRANCH   4  16
TORSDOF 4
ENDMDL
MODEL 8
REMARK VINA RESULT:      -6.6      1.968      2.355
REMARK  Name = 9840777
REMARK  4 active torsions:
REMARK  status: ('A' for Active; 'I' for Inactive)
REMARK    1  A    between atoms: C3*_2  and  O3*_14
REMARK    2  A    between atoms: C4*_4  and  C5*_16
REMARK    3  A    between atoms: C1*_5  and  N_8
REMARK    4  A    between atoms: C5*_16  and  O5*_17
REMARK                            x       y       z     vdW  Elec       q    Type
REMARK                         _______ _______ _______ _____ _____    ______ ____
ROOT
ATOM      1  O4* UNL     1      38.081 -24.217 -14.421  0.00  0.00    -0.334 OA
ATOM      2  C3* UNL     1      37.684 -23.983 -12.095  0.00  0.00    +0.144 C 
ATOM      3  C2* UNL     1      36.639 -23.181 -12.835  0.00  0.00    +0.083 C 
ATOM      4  C4* UNL     1      38.227 -24.915 -13.169  0.00  0.00    +0.173 C 
ATOM      5  C1* UNL     1      37.231 -23.077 -14.230  0.00  0.00    +0.204 C 
ENDROOT
BRANCH   5   8
ATOM      6  I   UNL     1      36.021 -21.447 -19.245  0.00  0.00    -0.044 I 
ATOM      7  O   UNL     1      34.670 -24.230 -14.024  0.00  0.00    -0.206 OA
ATOM      8  N   UNL     1      36.231 -23.054 -15.259  0.00  0.00    -0.208 N 
ATOM      9  N   UNL     1      34.043 -23.600 -16.115  0.00  0.00    -0.162 NA
ATOM     10  C   UNL     1      36.531 -22.419 -16.459  0.00  0.00    +0.139 C 
ATOM     11  C   UNL     1      34.960 -23.660 -15.077  0.00  0.00    +0.218 C 
ATOM     12  C   UNL     1      35.668 -22.346 -17.474  0.00  0.00    +0.049 C 
ATOM     13  C   UNL     1      34.373 -22.997 -17.210  0.00  0.00    +0.115 C 
ENDBRANCH   5   8
BRANCH   2  14
ATOM     14  O3* UNL     1      38.718 -23.116 -11.636  0.00  0.00    -0.382 OA
ATOM     15  H3* UNL     1      38.774 -22.342 -12.218  0.00  0.00    +0.210 HD
ENDBRANCH   2  14
BRANCH   4  16
ATOM     16  C5* UNL     1      37.450 -26.222 -13.268  0.00  0.00    +0.169 C 
BRANCH  16  17
ATOM     17  O5* UNL     1      36.844 -26.491 -12.013  0.00  0.00    -0.379 OA
ATOM     18  H5* UNL     1      36.462 -27.382 -12.024  0.00  0.00    +0.211 HD
ENDBRANCH  16  17
ENDBRANCH   4  16
TORSDOF 4
ENDMDL
MODEL 9
REMARK VINA RESULT:      -6.4      3.120      5.550
REMARK  Name = 9840777
REMARK  4 active torsions:
REMARK  status: ('A' for Active; 'I' for Inactive)
REMARK    1  A    between atoms: C3*_2  and  O3*_14
REMARK    2  A    between atoms: C4*_4  and  C5*_16
REMARK    3  A    between atoms: C1*_5  and  N_8
REMARK    4  A    between atoms: C5*_16  and  O5*_17
REMARK                            x       y       z     vdW  Elec       q    Type
REMARK                         _______ _______ _______ _____ _____    ______ ____
ROOT
ATOM      1  O4* UNL     1      35.113 -24.682 -15.840  0.00  0.00    -0.334 OA
ATOM      2  C3* UNL     1      33.418 -23.088 -15.386  0.00  0.00    +0.144 C 
ATOM      3  C2* UNL     1      34.041 -23.501 -14.072  0.00  0.00    +0.083 C 
ATOM      4  C4* UNL     1      34.447 -23.540 -16.412  0.00  0.00    +0.173 C 
ATOM      5  C1* UNL     1      34.783 -24.773 -14.447  0.00  0.00    +0.204 C 
ENDROOT
BRANCH   5   8
ATOM      6  I   UNL     1      40.135 -25.537 -14.666  0.00  0.00    -0.044 I 
ATOM      7  O   UNL     1      34.924 -24.845 -11.635  0.00  0.00    -0.206 OA
ATOM      8  N   UNL     1      35.985 -24.961 -13.686  0.00  0.00    -0.208 N 
ATOM      9  N   UNL     1      37.172 -25.168 -11.596  0.00  0.00    -0.162 NA
ATOM     10  C   UNL     1      37.184 -25.120 -14.371  0.00  0.00    +0.139 C 
ATOM     11  C   UNL     1      35.972 -24.985 -12.266  0.00  0.00    +0.218 C 
ATOM     12  C   UNL     1      38.353 -25.298 -13.752  0.00  0.00    +0.049 C 
ATOM     13  C   UNL     1      38.258 -25.312 -12.281  0.00  0.00    +0.115 C 
ENDBRANCH   5   8
BRANCH   2  14
ATOM     14  O3* UNL     1      32.195 -23.793 -15.581  0.00  0.00    -0.382 OA
ATOM     15  H3* UNL     1      31.622 -23.288 -16.180  0.00  0.00    +0.210 HD
ENDBRANCH   2  14
BRANCH   4  16
ATOM     16  C5* UNL     1      35.502 -22.479 -16.702  0.00  0.00    +0.169 C 
BRANCH  16  17
ATOM     17  O5* UNL     1      35.663 -22.364 -18.107  0.00  0.00    -0.379 OA
ATOM     18  H5* UNL     1      36.207 -21.587 -18.307  0.00  0.00    +0.211 HD
ENDBRANCH  16  17
ENDBRANCH   4  16
TORSDOF 4
ENDMDL
