MODEL 1
REMARK VINA RESULT:      -8.9      0.000      0.000
REMARK  Name = 3025
REMARK  10 active torsions:
REMARK  status: ('A' for Active; 'I' for Inactive)
REMARK    1  A    between atoms: C_2  and  C_13
REMARK    2  A    between atoms: C_6  and  O_23
REMARK    3  A    between atoms: N_12  and  C_15
REMARK    4  A    between atoms: C_15  and  C_16
REMARK    5  A    between atoms: C_16  and  N_17
REMARK    6  A    between atoms: N_17  and  C_19
REMARK    7  A    between atoms: N_17  and  C_21
REMARK    8  A    between atoms: O_23  and  C_24
REMARK    9  A    between atoms: C_24  and  C_25
REMARK   10  A    between atoms: C_25  and  C_26
REMARK                            x       y       z     vdW  Elec       q    Type
REMARK                         _______ _______ _______ _____ _____    ______ ____
ROOT
ATOM      1  N   UNL     1      31.889 -22.682 -17.650  0.00  0.00    -0.372 NA
ATOM      2  C   UNL     1      33.905 -23.569 -15.949  0.00  0.00    +0.061 C 
ATOM      3  C   UNL     1      32.593 -23.436 -15.471  0.00  0.00    +0.030 C 
ATOM      4  C   UNL     1      31.604 -22.983 -16.369  0.00  0.00    +0.117 C 
ATOM      5  C   UNL     1      34.202 -23.261 -17.268  0.00  0.00    +0.076 C 
ATOM      6  C   UNL     1      33.167 -22.825 -18.070  0.00  0.00    +0.277 C 
ATOM      7  C   UNL     1      32.260 -23.739 -14.141  0.00  0.00    +0.002 C 
ATOM      8  C   UNL     1      30.302 -22.849 -15.895  0.00  0.00    +0.085 C 
ATOM      9  C   UNL     1      30.950 -23.597 -13.693  0.00  0.00    -0.004 C 
ATOM     10  C   UNL     1      29.970 -23.151 -14.571  0.00  0.00    -0.019 C 
ENDROOT
BRANCH   2  13
ATOM     11  O   UNL     1      35.675 -23.215 -14.453  0.00  0.00    -0.270 OA
ATOM     12  N   UNL     1      35.235 -25.407 -15.067  0.00  0.00    -0.303 N 
ATOM     13  C   UNL     1      35.005 -24.028 -15.107  0.00  0.00    +0.246 C 
ATOM     14  H   UNL     1      34.662 -25.991 -15.614  0.00  0.00    +0.150 HD
BRANCH  12  15
ATOM     15  C   UNL     1      36.269 -26.016 -14.264  0.00  0.00    +0.067 C 
BRANCH  15  16
ATOM     16  C   UNL     1      37.620 -25.949 -14.962  0.00  0.00    -0.056 C 
BRANCH  16  17
ATOM     17  N   UNL     1      38.478 -24.967 -14.310  0.00  0.00    +0.388 N 
ATOM     18  H   UNL     1      38.081 -24.042 -14.473  0.00  0.00    -0.080 HD
BRANCH  17  19
ATOM     19  C   UNL     1      38.530 -25.206 -12.865  0.00  0.00    -0.077 C 
ATOM     20  C   UNL     1      38.287 -23.923 -12.090  0.00  0.00    -0.025 C 
ENDBRANCH  17  19
BRANCH  17  21
ATOM     21  C   UNL     1      39.827 -25.002 -14.878  0.00  0.00    -0.077 C 
ATOM     22  C   UNL     1      40.634 -26.156 -14.308  0.00  0.00    -0.025 C 
ENDBRANCH  17  21
ENDBRANCH  16  17
ENDBRANCH  15  16
ENDBRANCH  12  15
ENDBRANCH   2  13
BRANCH   6  23
ATOM     23  O   UNL     1      33.427 -22.513 -19.379  0.00  0.00    -0.452 OA
BRANCH  23  24
ATOM     24  C   UNL     1      34.088 -21.277 -19.623  0.00  0.00    +0.208 C 
BRANCH  24  25
ATOM     25  C   UNL     1      33.112 -20.320 -20.293  0.00  0.00    +0.047 C 
BRANCH  25  26
ATOM     26  C   UNL     1      33.809 -19.428 -21.316  0.00  0.00    +0.004 C 
ATOM     27  C   UNL     1      35.305 -19.347 -21.055  0.00  0.00    +0.000 C 
ENDBRANCH  25  26
ENDBRANCH  24  25
ENDBRANCH  23  24
ENDBRANCH   6  23
TORSDOF 10
ENDMDL
MODEL 2
REMARK VINA RESULT:      -8.7      1.672      4.864
REMARK  Name = 3025
REMARK  10 active torsions:
REMARK  status: ('A' for Active; 'I' for Inactive)
REMARK    1  A    between atoms: C_2  and  C_13
REMARK    2  A    between atoms: C_6  and  O_23
REMARK    3  A    between atoms: N_12  and  C_15
REMARK    4  A    between atoms: C_15  and  C_16
REMARK    5  A    between atoms: C_16  and  N_17
REMARK    6  A    between atoms: N_17  and  C_19
REMARK    7  A    between atoms: N_17  and  C_21
REMARK    8  A    between atoms: O_23  and  C_24
REMARK    9  A    between atoms: C_24  and  C_25
REMARK   10  A    between atoms: C_25  and  C_26
REMARK                            x       y       z     vdW  Elec       q    Type
REMARK                         _______ _______ _______ _____ _____    ______ ____
ROOT
ATOM      1  N   UNL     1      32.703 -22.445 -18.350  0.00  0.00    -0.372 NA
ATOM      2  C   UNL     1      34.807 -22.899 -16.588  0.00  0.00    +0.061 C 
ATOM      3  C   UNL     1      35.042 -22.247 -17.806  0.00  0.00    +0.030 C 
ATOM      4  C   UNL     1      33.946 -22.038 -18.669  0.00  0.00    +0.117 C 
ATOM      5  C   UNL     1      33.528 -23.320 -16.256  0.00  0.00    +0.076 C 
ATOM      6  C   UNL     1      32.519 -23.071 -17.165  0.00  0.00    +0.277 C 
ATOM      7  C   UNL     1      36.326 -21.809 -18.172  0.00  0.00    +0.002 C 
ATOM      8  C   UNL     1      34.179 -21.391 -19.879  0.00  0.00    +0.085 C 
ATOM      9  C   UNL     1      36.531 -21.164 -19.387  0.00  0.00    -0.004 C 
ATOM     10  C   UNL     1      35.456 -20.955 -20.242  0.00  0.00    -0.019 C 
ENDROOT
BRANCH   2  13
ATOM     11  O   UNL     1      37.009 -23.462 -16.011  0.00  0.00    -0.270 OA
ATOM     12  N   UNL     1      35.534 -23.051 -14.270  0.00  0.00    -0.303 N 
ATOM     13  C   UNL     1      35.869 -23.167 -15.622  0.00  0.00    +0.246 C 
ATOM     14  H   UNL     1      34.607 -22.814 -14.037  0.00  0.00    +0.150 HD
BRANCH  12  15
ATOM     15  C   UNL     1      36.478 -23.261 -13.197  0.00  0.00    +0.067 C 
BRANCH  15  16
ATOM     16  C   UNL     1      36.592 -24.736 -12.844  0.00  0.00    -0.056 C 
BRANCH  16  17
ATOM     17  N   UNL     1      37.576 -25.387 -13.701  0.00  0.00    +0.388 N 
ATOM     18  H   UNL     1      37.626 -24.867 -14.577  0.00  0.00    -0.080 HD
BRANCH  17  19
ATOM     19  C   UNL     1      38.899 -25.371 -13.072  0.00  0.00    -0.077 C 
ATOM     20  C   UNL     1      40.001 -25.474 -14.112  0.00  0.00    -0.025 C 
ENDBRANCH  17  19
BRANCH  17  21
ATOM     21  C   UNL     1      37.173 -26.763 -13.998  0.00  0.00    -0.077 C 
ATOM     22  C   UNL     1      36.768 -26.914 -15.455  0.00  0.00    -0.025 C 
ENDBRANCH  17  21
ENDBRANCH  16  17
ENDBRANCH  15  16
ENDBRANCH  12  15
ENDBRANCH   2  13
BRANCH   6  23
ATOM     23  O   UNL     1      31.244 -23.473 -16.868  0.00  0.00    -0.452 OA
BRANCH  23  24
ATOM     24  C   UNL     1      30.706 -23.030 -15.627  0.00  0.00    +0.208 C 
BRANCH  24  25
ATOM     25  C   UNL     1      29.645 -24.022 -15.168  0.00  0.00    +0.047 C 
BRANCH  25  26
ATOM     26  C   UNL     1      30.270 -25.310 -14.641  0.00  0.00    +0.004 C 
ATOM     27  C   UNL     1      31.396 -25.022 -13.661  0.00  0.00    +0.000 C 
ENDBRANCH  25  26
ENDBRANCH  24  25
ENDBRANCH  23  24
ENDBRANCH   6  23
TORSDOF 10
ENDMDL
MODEL 3
REMARK VINA RESULT:      -8.6      2.478      7.294
REMARK  Name = 3025
REMARK  10 active torsions:
REMARK  status: ('A' for Active; 'I' for Inactive)
REMARK    1  A    between atoms: C_2  and  C_13
REMARK    2  A    between atoms: C_6  and  O_23
REMARK    3  A    between atoms: N_12  and  C_15
REMARK    4  A    between atoms: C_15  and  C_16
REMARK    5  A    between atoms: C_16  and  N_17
REMARK    6  A    between atoms: N_17  and  C_19
REMARK    7  A    between atoms: N_17  and  C_21
REMARK    8  A    between atoms: O_23  and  C_24
REMARK    9  A    between atoms: C_24  and  C_25
REMARK   10  A    between atoms: C_25  and  C_26
REMARK                            x       y       z     vdW  Elec       q    Type
REMARK                         _______ _______ _______ _____ _____    ______ ____
ROOT
ATOM      1  N   UNL     1      33.553 -23.571 -14.662  0.00  0.00    -0.372 NA
ATOM      2  C   UNL     1      33.632 -22.915 -17.365  0.00  0.00    +0.061 C 
ATOM      3  C   UNL     1      34.801 -22.853 -16.595  0.00  0.00    +0.030 C 
ATOM      4  C   UNL     1      34.715 -23.194 -15.229  0.00  0.00    +0.117 C 
ATOM      5  C   UNL     1      32.433 -23.304 -16.785  0.00  0.00    +0.076 C 
ATOM      6  C   UNL     1      32.447 -23.618 -15.441  0.00  0.00    +0.277 C 
ATOM      7  C   UNL     1      36.031 -22.464 -17.152  0.00  0.00    +0.002 C 
ATOM      8  C   UNL     1      35.875 -23.132 -14.464  0.00  0.00    +0.085 C 
ATOM      9  C   UNL     1      37.176 -22.410 -16.365  0.00  0.00    -0.004 C 
ATOM     10  C   UNL     1      37.098 -22.745 -15.018  0.00  0.00    -0.019 C 
ENDROOT
BRANCH   2  13
ATOM     11  O   UNL     1      33.980 -23.414 -19.630  0.00  0.00    -0.270 OA
ATOM     12  N   UNL     1      33.130 -21.315 -19.130  0.00  0.00    -0.303 N 
ATOM     13  C   UNL     1      33.608 -22.584 -18.787  0.00  0.00    +0.246 C 
ATOM     14  H   UNL     1      32.853 -20.710 -18.405  0.00  0.00    +0.150 HD
BRANCH  12  15
ATOM     15  C   UNL     1      33.023 -20.849 -20.493  0.00  0.00    +0.067 C 
BRANCH  15  16
ATOM     16  C   UNL     1      33.687 -19.491 -20.664  0.00  0.00    -0.056 C 
BRANCH  16  17
ATOM     17  N   UNL     1      34.780 -19.579 -21.625  0.00  0.00    +0.388 N 
ATOM     18  H   UNL     1      34.806 -20.532 -21.988  0.00  0.00    -0.080 HD
BRANCH  17  19
ATOM     19  C   UNL     1      34.560 -18.660 -22.743  0.00  0.00    -0.077 C 
ATOM     20  C   UNL     1      34.889 -19.322 -24.070  0.00  0.00    -0.025 C 
ENDBRANCH  17  19
BRANCH  17  21
ATOM     21  C   UNL     1      36.062 -19.292 -20.977  0.00  0.00    -0.077 C 
ATOM     22  C   UNL     1      36.530 -20.470 -20.141  0.00  0.00    -0.025 C 
ENDBRANCH  17  21
ENDBRANCH  16  17
ENDBRANCH  15  16
ENDBRANCH  12  15
ENDBRANCH   2  13
BRANCH   6  23
ATOM     23  O   UNL     1      31.280 -24.006 -14.837  0.00  0.00    -0.452 OA
BRANCH  23  24
ATOM     24  C   UNL     1      30.110 -23.272 -15.177  0.00  0.00    +0.208 C 
BRANCH  24  25
ATOM     25  C   UNL     1      29.072 -24.233 -15.740  0.00  0.00    +0.047 C 
BRANCH  25  26
ATOM     26  C   UNL     1      28.183 -23.557 -16.780  0.00  0.00    +0.004 C 
ATOM     27  C   UNL     1      27.445 -22.366 -16.191  0.00  0.00    +0.000 C 
ENDBRANCH  25  26
ENDBRANCH  24  25
ENDBRANCH  23  24
ENDBRANCH   6  23
TORSDOF 10
ENDMDL
MODEL 4
REMARK VINA RESULT:      -8.5      1.840      6.224
REMARK  Name = 3025
REMARK  10 active torsions:
REMARK  status: ('A' for Active; 'I' for Inactive)
REMARK    1  A    between atoms: C_2  and  C_13
REMARK    2  A    between atoms: C_6  and  O_23
REMARK    3  A    between atoms: N_12  and  C_15
REMARK    4  A    between atoms: C_15  and  C_16
REMARK    5  A    between atoms: C_16  and  N_17
REMARK    6  A    between atoms: N_17  and  C_19
REMARK    7  A    between atoms: N_17  and  C_21
REMARK    8  A    between atoms: O_23  and  C_24
REMARK    9  A    between atoms: C_24  and  C_25
REMARK   10  A    between atoms: C_25  and  C_26
REMARK                            x       y       z     vdW  Elec       q    Type
REMARK                         _______ _______ _______ _____ _____    ______ ____
ROOT
ATOM      1  N   UNL     1      37.656 -23.226 -15.830  0.00  0.00    -0.372 NA
ATOM      2  C   UNL     1      35.384 -23.824 -14.339  0.00  0.00    +0.061 C 
ATOM      3  C   UNL     1      36.604 -24.446 -14.037  0.00  0.00    +0.030 C 
ATOM      4  C   UNL     1      37.729 -24.113 -14.819  0.00  0.00    +0.117 C 
ATOM      5  C   UNL     1      35.305 -22.909 -15.378  0.00  0.00    +0.076 C 
ATOM      6  C   UNL     1      36.460 -22.648 -16.087  0.00  0.00    +0.277 C 
ATOM      7  C   UNL     1      36.717 -25.377 -12.991  0.00  0.00    +0.002 C 
ATOM      8  C   UNL     1      38.940 -24.732 -14.522  0.00  0.00    +0.085 C 
ATOM      9  C   UNL     1      37.939 -25.981 -12.714  0.00  0.00    -0.004 C 
ATOM     10  C   UNL     1      39.052 -25.658 -13.480  0.00  0.00    -0.019 C 
ENDROOT
BRANCH   2  13
ATOM     11  O   UNL     1      34.031 -23.691 -12.428  0.00  0.00    -0.270 OA
ATOM     12  N   UNL     1      33.154 -24.798 -14.268  0.00  0.00    -0.303 N 
ATOM     13  C   UNL     1      34.158 -24.095 -13.594  0.00  0.00    +0.246 C 
ATOM     14  H   UNL     1      33.327 -25.086 -15.193  0.00  0.00    +0.150 HD
BRANCH  12  15
ATOM     15  C   UNL     1      31.877 -25.121 -13.675  0.00  0.00    +0.067 C 
BRANCH  15  16
ATOM     16  C   UNL     1      30.837 -24.058 -13.996  0.00  0.00    -0.056 C 
BRANCH  16  17
ATOM     17  N   UNL     1      30.408 -24.172 -15.385  0.00  0.00    +0.388 N 
ATOM     18  H   UNL     1      30.968 -24.899 -15.831  0.00  0.00    -0.080 HD
BRANCH  17  19
ATOM     19  C   UNL     1      28.997 -24.560 -15.459  0.00  0.00    -0.077 C 
ATOM     20  C   UNL     1      28.346 -24.019 -16.720  0.00  0.00    -0.025 C 
ENDBRANCH  17  19
BRANCH  17  21
ATOM     21  C   UNL     1      30.626 -22.913 -16.099  0.00  0.00    -0.077 C 
ATOM     22  C   UNL     1      31.912 -22.955 -16.906  0.00  0.00    -0.025 C 
ENDBRANCH  17  21
ENDBRANCH  16  17
ENDBRANCH  15  16
ENDBRANCH  12  15
ENDBRANCH   2  13
BRANCH   6  23
ATOM     23  O   UNL     1      36.416 -21.749 -17.120  0.00  0.00    -0.452 OA
BRANCH  23  24
ATOM     24  C   UNL     1      35.576 -22.079 -18.220  0.00  0.00    +0.208 C 
BRANCH  24  25
ATOM     25  C   UNL     1      36.068 -21.336 -19.455  0.00  0.00    +0.047 C 
BRANCH  25  26
ATOM     26  C   UNL     1      34.921 -20.667 -20.204  0.00  0.00    +0.004 C 
ATOM     27  C   UNL     1      33.570 -21.150 -19.701  0.00  0.00    +0.000 C 
ENDBRANCH  25  26
ENDBRANCH  24  25
ENDBRANCH  23  24
ENDBRANCH   6  23
TORSDOF 10
ENDMDL
MODEL 5
REMARK VINA RESULT:      -8.4      6.392     10.633
REMARK  Name = 3025
REMARK  10 active torsions:
REMARK  status: ('A' for Active; 'I' for Inactive)
REMARK    1  A    between atoms: C_2  and  C_13
REMARK    2  A    between atoms: C_6  and  O_23
REMARK    3  A    between atoms: N_12  and  C_15
REMARK    4  A    between atoms: C_15  and  C_16
REMARK    5  A    between atoms: C_16  and  N_17
REMARK    6  A    between atoms: N_17  and  C_19
REMARK    7  A    between atoms: N_17  and  C_21
REMARK    8  A    between atoms: O_23  and  C_24
REMARK    9  A    between atoms: C_24  and  C_25
REMARK   10  A    between atoms: C_25  and  C_26
REMARK                            x       y       z     vdW  Elec       q    Type
REMARK                         _______ _______ _______ _____ _____    ______ ____
ROOT
ATOM      1  N   UNL     1      32.372 -13.316 -23.512  0.00  0.00    -0.372 NA
ATOM      2  C   UNL     1      33.906 -15.091 -22.017  0.00  0.00    +0.061 C 
ATOM      3  C   UNL     1      33.771 -15.276 -23.400  0.00  0.00    +0.030 C 
ATOM      4  C   UNL     1      32.983 -14.352 -24.118  0.00  0.00    +0.117 C 
ATOM      5  C   UNL     1      33.279 -14.025 -21.390  0.00  0.00    +0.076 C 
ATOM      6  C   UNL     1      32.529 -13.174 -22.176  0.00  0.00    +0.277 C 
ATOM      7  C   UNL     1      34.393 -16.345 -24.066  0.00  0.00    +0.002 C 
ATOM      8  C   UNL     1      32.847 -14.535 -25.491  0.00  0.00    +0.085 C 
ATOM      9  C   UNL     1      34.241 -16.505 -25.439  0.00  0.00    -0.004 C 
ATOM     10  C   UNL     1      33.467 -15.599 -26.153  0.00  0.00    -0.019 C 
ENDROOT
BRANCH   2  13
ATOM     11  O   UNL     1      34.971 -15.672 -20.010  0.00  0.00    -0.270 OA
ATOM     12  N   UNL     1      35.094 -17.200 -21.751  0.00  0.00    -0.303 N 
ATOM     13  C   UNL     1      34.697 -15.987 -21.178  0.00  0.00    +0.246 C 
ATOM     14  H   UNL     1      34.838 -17.380 -22.684  0.00  0.00    +0.150 HD
BRANCH  12  15
ATOM     15  C   UNL     1      35.858 -18.200 -21.042  0.00  0.00    +0.067 C 
BRANCH  15  16
ATOM     16  C   UNL     1      35.268 -19.588 -21.243  0.00  0.00    -0.056 C 
BRANCH  16  17
ATOM     17  N   UNL     1      35.186 -20.293 -19.970  0.00  0.00    +0.388 N 
ATOM     18  H   UNL     1      35.238 -19.602 -19.221  0.00  0.00    -0.080 HD
BRANCH  17  19
ATOM     19  C   UNL     1      33.913 -21.009 -19.857  0.00  0.00    -0.077 C 
ATOM     20  C   UNL     1      32.774 -20.197 -20.449  0.00  0.00    -0.025 C 
ENDBRANCH  17  19
BRANCH  17  21
ATOM     21  C   UNL     1      36.306 -21.224 -19.822  0.00  0.00    -0.077 C 
ATOM     22  C   UNL     1      36.510 -21.610 -18.367  0.00  0.00    -0.025 C 
ENDBRANCH  17  21
ENDBRANCH  16  17
ENDBRANCH  15  16
ENDBRANCH  12  15
ENDBRANCH   2  13
BRANCH   6  23
ATOM     23  O   UNL     1      31.896 -12.111 -21.588  0.00  0.00    -0.452 OA
BRANCH  23  24
ATOM     24  C   UNL     1      31.731 -12.167 -20.176  0.00  0.00    +0.208 C 
BRANCH  24  25
ATOM     25  C   UNL     1      31.009 -10.907 -19.715  0.00  0.00    +0.047 C 
BRANCH  25  26
ATOM     26  C   UNL     1      31.986  -9.853 -19.205  0.00  0.00    +0.004 C 
ATOM     27  C   UNL     1      32.187  -8.742 -20.223  0.00  0.00    +0.000 C 
ENDBRANCH  25  26
ENDBRANCH  24  25
ENDBRANCH  23  24
ENDBRANCH   6  23
TORSDOF 10
ENDMDL
MODEL 6
REMARK VINA RESULT:      -8.4      7.860     13.609
REMARK  Name = 3025
REMARK  10 active torsions:
REMARK  status: ('A' for Active; 'I' for Inactive)
REMARK    1  A    between atoms: C_2  and  C_13
REMARK    2  A    between atoms: C_6  and  O_23
REMARK    3  A    between atoms: N_12  and  C_15
REMARK    4  A    between atoms: C_15  and  C_16
REMARK    5  A    between atoms: C_16  and  N_17
REMARK    6  A    between atoms: N_17  and  C_19
REMARK    7  A    between atoms: N_17  and  C_21
REMARK    8  A    between atoms: O_23  and  C_24
REMARK    9  A    between atoms: C_24  and  C_25
REMARK   10  A    between atoms: C_25  and  C_26
REMARK                            x       y       z     vdW  Elec       q    Type
REMARK                         _______ _______ _______ _____ _____    ______ ____
ROOT
ATOM      1  N   UNL     1      34.695 -16.723 -22.962  0.00  0.00    -0.372 NA
ATOM      2  C   UNL     1      33.303 -14.480 -22.084  0.00  0.00    +0.061 C 
ATOM      3  C   UNL     1      33.357 -14.780 -23.453  0.00  0.00    +0.030 C 
ATOM      4  C   UNL     1      34.074 -15.927 -23.852  0.00  0.00    +0.117 C 
ATOM      5  C   UNL     1      33.941 -15.298 -21.164  0.00  0.00    +0.076 C 
ATOM      6  C   UNL     1      34.618 -16.398 -21.651  0.00  0.00    +0.277 C 
ATOM      7  C   UNL     1      32.721 -13.971 -24.410  0.00  0.00    +0.002 C 
ATOM      8  C   UNL     1      34.129 -16.224 -25.211  0.00  0.00    +0.085 C 
ATOM      9  C   UNL     1      32.791 -14.292 -25.761  0.00  0.00    -0.004 C 
ATOM     10  C   UNL     1      33.496 -15.420 -26.163  0.00  0.00    -0.019 C 
ENDROOT
BRANCH   2  13
ATOM     11  O   UNL     1      32.268 -13.268 -20.365  0.00  0.00    -0.270 OA
ATOM     12  N   UNL     1      32.321 -12.285 -22.464  0.00  0.00    -0.303 N 
ATOM     13  C   UNL     1      32.590 -13.318 -21.561  0.00  0.00    +0.246 C 
ATOM     14  H   UNL     1      32.607 -12.396 -23.399  0.00  0.00    +0.150 HD
BRANCH  12  15
ATOM     15  C   UNL     1      31.646 -11.063 -22.094  0.00  0.00    +0.067 C 
BRANCH  15  16
ATOM     16  C   UNL     1      32.150  -9.885 -22.915  0.00  0.00    -0.056 C 
BRANCH  16  17
ATOM     17  N   UNL     1      32.901  -8.964 -22.070  0.00  0.00    +0.388 N 
ATOM     18  H   UNL     1      33.794  -9.401 -21.840  0.00  0.00    -0.080 HD
BRANCH  17  19
ATOM     19  C   UNL     1      33.165  -7.710 -22.781  0.00  0.00    -0.077 C 
ATOM     20  C   UNL     1      34.579  -7.680 -23.333  0.00  0.00    -0.025 C 
ENDBRANCH  17  19
BRANCH  17  21
ATOM     21  C   UNL     1      32.178  -8.698 -20.825  0.00  0.00    -0.077 C 
ATOM     22  C   UNL     1      32.483  -7.306 -20.299  0.00  0.00    -0.025 C 
ENDBRANCH  17  21
ENDBRANCH  16  17
ENDBRANCH  15  16
ENDBRANCH  12  15
ENDBRANCH   2  13
BRANCH   6  23
ATOM     23  O   UNL     1      35.259 -17.227 -20.768  0.00  0.00    -0.452 OA
BRANCH  23  24
ATOM     24  C   UNL     1      35.887 -18.381 -21.316  0.00  0.00    +0.208 C 
BRANCH  24  25
ATOM     25  C   UNL     1      35.256 -19.623 -20.701  0.00  0.00    +0.047 C 
BRANCH  25  26
ATOM     26  C   UNL     1      33.798 -19.781 -21.121  0.00  0.00    +0.004 C 
ATOM     27  C   UNL     1      32.993 -20.526 -20.069  0.00  0.00    +0.000 C 
ENDBRANCH  25  26
ENDBRANCH  24  25
ENDBRANCH  23  24
ENDBRANCH   6  23
TORSDOF 10
ENDMDL
MODEL 7
REMARK VINA RESULT:      -8.4      1.623      6.927
REMARK  Name = 3025
REMARK  10 active torsions:
REMARK  status: ('A' for Active; 'I' for Inactive)
REMARK    1  A    between atoms: C_2  and  C_13
REMARK    2  A    between atoms: C_6  and  O_23
REMARK    3  A    between atoms: N_12  and  C_15
REMARK    4  A    between atoms: C_15  and  C_16
REMARK    5  A    between atoms: C_16  and  N_17
REMARK    6  A    between atoms: N_17  and  C_19
REMARK    7  A    between atoms: N_17  and  C_21
REMARK    8  A    between atoms: O_23  and  C_24
REMARK    9  A    between atoms: C_24  and  C_25
REMARK   10  A    between atoms: C_25  and  C_26
REMARK                            x       y       z     vdW  Elec       q    Type
REMARK                         _______ _______ _______ _____ _____    ______ ____
ROOT
ATOM      1  N   UNL     1      33.704 -23.585 -14.245  0.00  0.00    -0.372 NA
ATOM      2  C   UNL     1      33.543 -23.112 -16.983  0.00  0.00    +0.061 C 
ATOM      3  C   UNL     1      32.376 -23.138 -16.206  0.00  0.00    +0.030 C 
ATOM      4  C   UNL     1      32.505 -23.381 -14.823  0.00  0.00    +0.117 C 
ATOM      5  C   UNL     1      34.780 -23.321 -16.391  0.00  0.00    +0.076 C 
ATOM      6  C   UNL     1      34.806 -23.552 -15.030  0.00  0.00    +0.277 C 
ATOM      7  C   UNL     1      31.108 -22.930 -16.775  0.00  0.00    +0.002 C 
ATOM      8  C   UNL     1      31.347 -23.408 -14.052  0.00  0.00    +0.085 C 
ATOM      9  C   UNL     1      29.966 -22.961 -15.982  0.00  0.00    -0.004 C 
ATOM     10  C   UNL     1      30.085 -23.201 -14.618  0.00  0.00    -0.019 C 
ENDROOT
BRANCH   2  13
ATOM     11  O   UNL     1      33.885 -23.757 -19.211  0.00  0.00    -0.270 OA
ATOM     12  N   UNL     1      33.067 -21.618 -18.845  0.00  0.00    -0.303 N 
ATOM     13  C   UNL     1      33.525 -22.870 -18.422  0.00  0.00    +0.246 C 
ATOM     14  H   UNL     1      32.798 -20.964 -18.160  0.00  0.00    +0.150 HD
BRANCH  12  15
ATOM     15  C   UNL     1      32.967 -21.237 -20.234  0.00  0.00    +0.067 C 
BRANCH  15  16
ATOM     16  C   UNL     1      33.602 -19.875 -20.478  0.00  0.00    -0.056 C 
BRANCH  16  17
ATOM     17  N   UNL     1      34.739 -20.001 -21.382  0.00  0.00    +0.388 N 
ATOM     18  H   UNL     1      34.796 -20.974 -21.685  0.00  0.00    -0.080 HD
BRANCH  17  19
ATOM     19  C   UNL     1      34.555 -19.155 -22.564  0.00  0.00    -0.077 C 
ATOM     20  C   UNL     1      35.814 -18.365 -22.874  0.00  0.00    -0.025 C 
ENDBRANCH  17  19
BRANCH  17  21
ATOM     21  C   UNL     1      35.985 -19.652 -20.697  0.00  0.00    -0.077 C 
ATOM     22  C   UNL     1      36.512 -20.823 -19.886  0.00  0.00    -0.025 C 
ENDBRANCH  17  21
ENDBRANCH  16  17
ENDBRANCH  15  16
ENDBRANCH  12  15
ENDBRANCH   2  13
BRANCH   6  23
ATOM     23  O   UNL     1      36.011 -23.761 -14.415  0.00  0.00    -0.452 OA
BRANCH  23  24
ATOM     24  C   UNL     1      36.831 -24.795 -14.948  0.00  0.00    +0.208 C 
BRANCH  24  25
ATOM     25  C   UNL     1      38.291 -24.389 -14.803  0.00  0.00    +0.047 C 
BRANCH  25  26
ATOM     26  C   UNL     1      39.055 -25.347 -13.894  0.00  0.00    +0.004 C 
ATOM     27  C   UNL     1      40.308 -25.878 -14.571  0.00  0.00    +0.000 C 
ENDBRANCH  25  26
ENDBRANCH  24  25
ENDBRANCH  23  24
ENDBRANCH   6  23
TORSDOF 10
ENDMDL
MODEL 8
REMARK VINA RESULT:      -8.3      8.933     13.008
REMARK  Name = 3025
REMARK  10 active torsions:
REMARK  status: ('A' for Active; 'I' for Inactive)
REMARK    1  A    between atoms: C_2  and  C_13
REMARK    2  A    between atoms: C_6  and  O_23
REMARK    3  A    between atoms: N_12  and  C_15
REMARK    4  A    between atoms: C_15  and  C_16
REMARK    5  A    between atoms: C_16  and  N_17
REMARK    6  A    between atoms: N_17  and  C_19
REMARK    7  A    between atoms: N_17  and  C_21
REMARK    8  A    between atoms: O_23  and  C_24
REMARK    9  A    between atoms: C_24  and  C_25
REMARK   10  A    between atoms: C_25  and  C_26
REMARK                            x       y       z     vdW  Elec       q    Type
REMARK                         _______ _______ _______ _____ _____    ______ ____
ROOT
ATOM      1  N   UNL     1      34.388 -17.091 -25.032  0.00  0.00    -0.372 NA
ATOM      2  C   UNL     1      33.957 -15.461 -22.819  0.00  0.00    +0.061 C 
ATOM      3  C   UNL     1      34.385 -16.785 -22.642  0.00  0.00    +0.030 C 
ATOM      4  C   UNL     1      34.590 -17.574 -23.792  0.00  0.00    +0.117 C 
ATOM      5  C   UNL     1      33.748 -14.960 -24.095  0.00  0.00    +0.076 C 
ATOM      6  C   UNL     1      33.975 -15.809 -25.159  0.00  0.00    +0.277 C 
ATOM      7  C   UNL     1      34.605 -17.323 -21.363  0.00  0.00    +0.002 C 
ATOM      8  C   UNL     1      35.013 -18.889 -23.617  0.00  0.00    +0.085 C 
ATOM      9  C   UNL     1      35.030 -18.639 -21.216  0.00  0.00    -0.004 C 
ATOM     10  C   UNL     1      35.234 -19.424 -22.344  0.00  0.00    -0.019 C 
ENDROOT
BRANCH   2  13
ATOM     11  O   UNL     1      34.534 -14.473 -20.772  0.00  0.00    -0.270 OA
ATOM     12  N   UNL     1      32.543 -13.796 -21.747  0.00  0.00    -0.303 N 
ATOM     13  C   UNL     1      33.714 -14.557 -21.699  0.00  0.00    +0.246 C 
ATOM     14  H   UNL     1      31.939 -13.916 -22.515  0.00  0.00    +0.150 HD
BRANCH  12  15
ATOM     15  C   UNL     1      32.174 -12.840 -20.728  0.00  0.00    +0.067 C 
BRANCH  15  16
ATOM     16  C   UNL     1      31.263 -11.759 -21.291  0.00  0.00    -0.056 C 
BRANCH  16  17
ATOM     17  N   UNL     1      31.953 -10.474 -21.307  0.00  0.00    +0.388 N 
ATOM     18  H   UNL     1      32.954 -10.653 -21.383  0.00  0.00    -0.080 HD
BRANCH  17  19
ATOM     19  C   UNL     1      31.531  -9.678 -22.462  0.00  0.00    -0.077 C 
ATOM     20  C   UNL     1      32.626  -9.614 -23.513  0.00  0.00    -0.025 C 
ENDBRANCH  17  19
BRANCH  17  21
ATOM     21  C   UNL     1      31.705  -9.739 -20.066  0.00  0.00    -0.077 C 
ATOM     22  C   UNL     1      32.320  -8.351 -20.118  0.00  0.00    -0.025 C 
ENDBRANCH  17  21
ENDBRANCH  16  17
ENDBRANCH  15  16
ENDBRANCH  12  15
ENDBRANCH   2  13
BRANCH   6  23
ATOM     23  O   UNL     1      33.778 -15.344 -26.433  0.00  0.00    -0.452 OA
BRANCH  23  24
ATOM     24  C   UNL     1      32.821 -14.305 -26.594  0.00  0.00    +0.208 C 
BRANCH  24  25
ATOM     25  C   UNL     1      33.525 -13.065 -27.130  0.00  0.00    +0.047 C 
BRANCH  25  26
ATOM     26  C   UNL     1      33.662 -11.988 -26.058  0.00  0.00    +0.004 C 
ATOM     27  C   UNL     1      34.934 -11.178 -26.243  0.00  0.00    +0.000 C 
ENDBRANCH  25  26
ENDBRANCH  24  25
ENDBRANCH  23  24
ENDBRANCH   6  23
TORSDOF 10
ENDMDL
MODEL 9
REMARK VINA RESULT:      -8.3      2.078      7.367
REMARK  Name = 3025
REMARK  10 active torsions:
REMARK  status: ('A' for Active; 'I' for Inactive)
REMARK    1  A    between atoms: C_2  and  C_13
REMARK    2  A    between atoms: C_6  and  O_23
REMARK    3  A    between atoms: N_12  and  C_15
REMARK    4  A    between atoms: C_15  and  C_16
REMARK    5  A    between atoms: C_16  and  N_17
REMARK    6  A    between atoms: N_17  and  C_19
REMARK    7  A    between atoms: N_17  and  C_21
REMARK    8  A    between atoms: O_23  and  C_24
REMARK    9  A    between atoms: C_24  and  C_25
REMARK   10  A    between atoms: C_25  and  C_26
REMARK                            x       y       z     vdW  Elec       q    Type
REMARK                         _______ _______ _______ _____ _____    ______ ____
ROOT
ATOM      1  N   UNL     1      35.320 -23.238 -14.625  0.00  0.00    -0.372 NA
ATOM      2  C   UNL     1      35.487 -22.500 -17.302  0.00  0.00    +0.061 C 
ATOM      3  C   UNL     1      34.245 -22.835 -16.744  0.00  0.00    +0.030 C 
ATOM      4  C   UNL     1      34.208 -23.204 -15.383  0.00  0.00    +0.117 C 
ATOM      5  C   UNL     1      36.634 -22.534 -16.524  0.00  0.00    +0.076 C 
ATOM      6  C   UNL     1      36.498 -22.907 -15.202  0.00  0.00    +0.277 C 
ATOM      7  C   UNL     1      33.065 -22.811 -17.505  0.00  0.00    +0.002 C 
ATOM      8  C   UNL     1      32.976 -23.538 -14.829  0.00  0.00    +0.085 C 
ATOM      9  C   UNL     1      31.846 -23.149 -16.926  0.00  0.00    -0.004 C 
ATOM     10  C   UNL     1      31.801 -23.513 -15.586  0.00  0.00    -0.019 C 
ENDROOT
BRANCH   2  13
ATOM     11  O   UNL     1      35.094 -22.761 -19.599  0.00  0.00    -0.270 OA
ATOM     12  N   UNL     1      36.401 -20.959 -18.950  0.00  0.00    -0.303 N 
ATOM     13  C   UNL     1      35.640 -22.105 -18.699  0.00  0.00    +0.246 C 
ATOM     14  H   UNL     1      36.804 -20.490 -18.185  0.00  0.00    +0.150 HD
BRANCH  12  15
ATOM     15  C   UNL     1      36.624 -20.428 -20.275  0.00  0.00    +0.067 C 
BRANCH  15  16
ATOM     16  C   UNL     1      35.649 -19.303 -20.589  0.00  0.00    -0.056 C 
BRANCH  16  17
ATOM     17  N   UNL     1      34.708 -19.721 -21.621  0.00  0.00    +0.388 N 
ATOM     18  H   UNL     1      34.772 -20.734 -21.717  0.00  0.00    -0.080 HD
BRANCH  17  19
ATOM     19  C   UNL     1      33.336 -19.375 -21.239  0.00  0.00    -0.077 C 
ATOM     20  C   UNL     1      32.822 -20.297 -20.148  0.00  0.00    -0.025 C 
ENDBRANCH  17  19
BRANCH  17  21
ATOM     21  C   UNL     1      35.046 -19.109 -22.907  0.00  0.00    -0.077 C 
ATOM     22  C   UNL     1      35.459 -17.658 -22.733  0.00  0.00    -0.025 C 
ENDBRANCH  17  21
ENDBRANCH  16  17
ENDBRANCH  15  16
ENDBRANCH  12  15
ENDBRANCH   2  13
BRANCH   6  23
ATOM     23  O   UNL     1      37.612 -22.951 -14.406  0.00  0.00    -0.452 OA
BRANCH  23  24
ATOM     24  C   UNL     1      37.609 -23.908 -13.354  0.00  0.00    +0.208 C 
BRANCH  24  25
ATOM     25  C   UNL     1      38.312 -25.171 -13.835  0.00  0.00    +0.047 C 
BRANCH  25  26
ATOM     26  C   UNL     1      37.379 -26.378 -13.813  0.00  0.00    +0.004 C 
ATOM     27  C   UNL     1      36.740 -26.612 -15.172  0.00  0.00    +0.000 C 
ENDBRANCH  25  26
ENDBRANCH  24  25
ENDBRANCH  23  24
ENDBRANCH   6  23
TORSDOF 10
ENDMDL
