MODEL 1
REMARK VINA RESULT:      -3.9      0.000      0.000
REMARK  Name = 11154476
REMARK  4 active torsions:
REMARK  status: ('A' for Active; 'I' for Inactive)
REMARK    1  A    between atoms: C_12  and  C_24
REMARK    2  A    between atoms: C_13  and  O_28
REMARK    3  A    between atoms: C_16  and  O_30
REMARK    4  A    between atoms: C_18  and  O_32
REMARK                            x       y       z     vdW  Elec       q    Type
REMARK                         _______ _______ _______ _____ _____    ______ ____
ROOT
ATOM      1  O   UNL     1      33.926 -25.257 -15.141  0.00  0.00    -0.312 OA
ATOM      2  O   UNL     1      35.151 -22.911 -17.248  0.00  0.00    -0.448 OA
ATOM      3  O   UNL     1      34.433 -25.380 -12.831  0.00  0.00    -0.423 OA
ATOM      4  O   UNL     1      32.188 -23.514 -13.096  0.00  0.00    -0.450 OA
ATOM      5  O   UNL     1      33.816 -24.635 -17.938  0.00  0.00    -0.247 OA
ATOM      6  O   UNL     1      34.793 -24.226 -10.880  0.00  0.00    -0.247 OA
ATOM      7  O   UNL     1      30.829 -25.359 -13.023  0.00  0.00    -0.250 OA
ATOM      8  C   UNL     1      34.827 -23.057 -14.879  0.00  0.00    +0.086 C 
ATOM      9  C   UNL     1      35.808 -24.087 -14.247  0.00  0.00    +0.108 C 
ATOM     10  C   UNL     1      33.809 -23.922 -15.617  0.00  0.00    +0.214 C 
ATOM     11  C   UNL     1      35.593 -22.343 -16.000  0.00  0.00    +0.198 C 
ATOM     12  C   UNL     1      36.968 -24.164 -15.280  0.00  0.00    +0.039 C 
ATOM     13  C   UNL     1      32.418 -23.281 -15.413  0.00  0.00    +0.167 C 
ATOM     14  C   UNL     1      34.001 -22.117 -13.980  0.00  0.00    +0.053 C 
ATOM     15  C   UNL     1      34.968 -25.348 -14.166  0.00  0.00    +0.294 C 
ATOM     16  C   UNL     1      37.056 -22.716 -15.770  0.00  0.00    +0.151 C 
ATOM     17  C   UNL     1      32.542 -22.555 -14.091  0.00  0.00    +0.197 C 
ATOM     18  C   UNL     1      36.255 -23.918 -12.801  0.00  0.00    +0.216 C 
ATOM     19  C   UNL     1      34.236 -23.900 -17.058  0.00  0.00    +0.344 C 
ATOM     20  C   UNL     1      31.277 -24.259 -15.147  0.00  0.00    +0.130 C 
ATOM     21  C   UNL     1      35.094 -24.487 -12.033  0.00  0.00    +0.346 C 
ATOM     22  C   UNL     1      31.383 -24.471 -13.654  0.00  0.00    +0.319 C 
ATOM     23  C   UNL     1      29.886 -23.733 -15.482  0.00  0.00    +0.014 C 
ENDROOT
BRANCH  12  24
ATOM     24  C   UNL     1      38.315 -24.690 -14.794  0.00  0.00    +0.003 C 
ATOM     25  C   UNL     1      38.286 -26.228 -14.739  0.00  0.00    +0.000 C 
ATOM     26  C   UNL     1      39.429 -24.242 -15.757  0.00  0.00    +0.000 C 
ATOM     27  C   UNL     1      38.614 -24.141 -13.388  0.00  0.00    +0.000 C 
ENDBRANCH  12  24
BRANCH  13  28
ATOM     28  O   UNL     1      32.105 -22.340 -16.430  0.00  0.00    -0.380 OA
ATOM     29  H   UNL     1      32.311 -21.446 -16.117  0.00  0.00    +0.211 HD
ENDBRANCH  13  28
BRANCH  16  30
ATOM     30  O   UNL     1      37.836 -22.581 -16.942  0.00  0.00    -0.381 OA
ATOM     31  H   UNL     1      37.623 -23.301 -17.557  0.00  0.00    +0.210 HD
ENDBRANCH  16  30
BRANCH  18  32
ATOM     32  O   UNL     1      36.601 -22.604 -12.464  0.00  0.00    -0.374 OA
ATOM     33  H   UNL     1      36.069 -22.312 -11.708  0.00  0.00    +0.211 HD
ENDBRANCH  18  32
TORSDOF 4
ENDMDL
MODEL 2
REMARK VINA RESULT:      -2.6      1.844      6.165
REMARK  Name = 11154476
REMARK  4 active torsions:
REMARK  status: ('A' for Active; 'I' for Inactive)
REMARK    1  A    between atoms: C_12  and  C_24
REMARK    2  A    between atoms: C_13  and  O_28
REMARK    3  A    between atoms: C_16  and  O_30
REMARK    4  A    between atoms: C_18  and  O_32
REMARK                            x       y       z     vdW  Elec       q    Type
REMARK                         _______ _______ _______ _____ _____    ______ ____
ROOT
ATOM      1  O   UNL     1      36.694 -25.909 -14.402  0.00  0.00    -0.312 OA
ATOM      2  O   UNL     1      35.991 -24.843 -11.269  0.00  0.00    -0.448 OA
ATOM      3  O   UNL     1      36.361 -24.621 -16.362  0.00  0.00    -0.423 OA
ATOM      4  O   UNL     1      39.001 -23.890 -15.320  0.00  0.00    -0.450 OA
ATOM      5  O   UNL     1      36.743 -26.953 -11.732  0.00  0.00    -0.247 OA
ATOM      6  O   UNL     1      36.488 -22.551 -17.344  0.00  0.00    -0.247 OA
ATOM      7  O   UNL     1      39.805 -25.690 -16.489  0.00  0.00    -0.250 OA
ATOM      8  C   UNL     1      36.453 -23.769 -13.360  0.00  0.00    +0.086 C 
ATOM      9  C   UNL     1      35.282 -23.981 -14.363  0.00  0.00    +0.108 C 
ATOM     10  C   UNL     1      37.132 -25.134 -13.293  0.00  0.00    +0.214 C 
ATOM     11  C   UNL     1      35.823 -23.597 -11.972  0.00  0.00    +0.198 C 
ATOM     12  C   UNL     1      34.065 -24.284 -13.442  0.00  0.00    +0.039 C 
ATOM     13  C   UNL     1      38.657 -24.893 -13.234  0.00  0.00    +0.167 C 
ATOM     14  C   UNL     1      37.574 -22.760 -13.674  0.00  0.00    +0.053 C 
ATOM     15  C   UNL     1      35.748 -25.170 -15.182  0.00  0.00    +0.294 C 
ATOM     16  C   UNL     1      34.338 -23.371 -12.244  0.00  0.00    +0.151 C 
ATOM     17  C   UNL     1      38.844 -23.567 -13.940  0.00  0.00    +0.197 C 
ATOM     18  C   UNL     1      35.016 -22.944 -15.447  0.00  0.00    +0.216 C 
ATOM     19  C   UNL     1      36.613 -25.778 -12.038  0.00  0.00    +0.344 C 
ATOM     20  C   UNL     1      39.505 -25.839 -14.079  0.00  0.00    +0.130 C 
ATOM     21  C   UNL     1      36.036 -23.300 -16.494  0.00  0.00    +0.346 C 
ATOM     22  C   UNL     1      39.465 -25.174 -15.436  0.00  0.00    +0.319 C 
ATOM     23  C   UNL     1      40.955 -25.980 -13.630  0.00  0.00    +0.014 C 
ENDROOT
BRANCH  12  24
ATOM     24  C   UNL     1      32.670 -24.073 -14.021  0.00  0.00    +0.003 C 
ATOM     25  C   UNL     1      31.735 -25.203 -13.556  0.00  0.00    +0.000 C 
ATOM     26  C   UNL     1      32.104 -22.723 -13.544  0.00  0.00    +0.000 C 
ATOM     27  C   UNL     1      32.736 -24.075 -15.559  0.00  0.00    +0.000 C 
ENDBRANCH  12  24
BRANCH  13  28
ATOM     28  O   UNL     1      39.132 -24.777 -11.900  0.00  0.00    -0.380 OA
ATOM     29  H   UNL     1      39.215 -23.840 -11.667  0.00  0.00    +0.211 HD
ENDBRANCH  13  28
BRANCH  16  30
ATOM     30  O   UNL     1      33.532 -23.684 -11.125  0.00  0.00    -0.381 OA
ATOM     31  H   UNL     1      33.337 -22.872 -10.630  0.00  0.00    +0.210 HD
ENDBRANCH  16  30
BRANCH  18  32
ATOM     32  O   UNL     1      35.070 -21.621 -14.991  0.00  0.00    -0.374 OA
ATOM     33  H   UNL     1      34.981 -21.015 -15.743  0.00  0.00    +0.211 HD
ENDBRANCH  18  32
TORSDOF 4
ENDMDL
MODEL 3
REMARK VINA RESULT:      -2.4      1.593      4.251
REMARK  Name = 11154476
REMARK  4 active torsions:
REMARK  status: ('A' for Active; 'I' for Inactive)
REMARK    1  A    between atoms: C_12  and  C_24
REMARK    2  A    between atoms: C_13  and  O_28
REMARK    3  A    between atoms: C_16  and  O_30
REMARK    4  A    between atoms: C_18  and  O_32
REMARK                            x       y       z     vdW  Elec       q    Type
REMARK                         _______ _______ _______ _____ _____    ______ ____
ROOT
ATOM      1  O   UNL     1      32.353 -22.181 -14.728  0.00  0.00    -0.312 OA
ATOM      2  O   UNL     1      32.881 -24.238 -12.094  0.00  0.00    -0.448 OA
ATOM      3  O   UNL     1      33.188 -22.559 -16.911  0.00  0.00    -0.423 OA
ATOM      4  O   UNL     1      30.658 -24.026 -16.719  0.00  0.00    -0.450 OA
ATOM      5  O   UNL     1      31.758 -22.253 -11.923  0.00  0.00    -0.247 OA
ATOM      6  O   UNL     1      33.625 -24.093 -18.561  0.00  0.00    -0.247 OA
ATOM      7  O   UNL     1      29.636 -22.062 -17.315  0.00  0.00    -0.250 OA
ATOM      8  C   UNL     1      32.916 -24.493 -14.475  0.00  0.00    +0.086 C 
ATOM      9  C   UNL     1      34.128 -23.739 -15.096  0.00  0.00    +0.108 C 
ATOM     10  C   UNL     1      31.958 -23.377 -14.066  0.00  0.00    +0.214 C 
ATOM     11  C   UNL     1      33.395 -25.082 -13.142  0.00  0.00    +0.198 C 
ATOM     12  C   UNL     1      35.131 -23.627 -13.912  0.00  0.00    +0.039 C 
ATOM     13  C   UNL     1      30.524 -23.853 -14.389  0.00  0.00    +0.167 C 
ATOM     14  C   UNL     1      32.083 -25.464 -15.332  0.00  0.00    +0.053 C 
ATOM     15  C   UNL     1      33.521 -22.414 -15.519  0.00  0.00    +0.294 C 
ATOM     16  C   UNL     1      34.916 -24.956 -13.186  0.00  0.00    +0.151 C 
ATOM     17  C   UNL     1      30.712 -24.822 -15.537  0.00  0.00    +0.197 C 
ATOM     18  C   UNL     1      34.738 -24.231 -16.402  0.00  0.00    +0.216 C 
ATOM     19  C   UNL     1      32.172 -23.188 -12.591  0.00  0.00    +0.344 C 
ATOM     20  C   UNL     1      29.604 -22.798 -14.995  0.00  0.00    +0.130 C 
ATOM     21  C   UNL     1      33.801 -23.664 -17.433  0.00  0.00    +0.346 C 
ATOM     22  C   UNL     1      29.948 -22.882 -16.465  0.00  0.00    +0.319 C 
ATOM     23  C   UNL     1      28.113 -23.062 -14.813  0.00  0.00    +0.014 C 
ENDROOT
BRANCH  12  24
ATOM     24  C   UNL     1      36.599 -23.385 -14.249  0.00  0.00    +0.003 C 
ATOM     25  C   UNL     1      37.323 -22.788 -13.029  0.00  0.00    +0.000 C 
ATOM     26  C   UNL     1      37.272 -24.714 -14.634  0.00  0.00    +0.000 C 
ATOM     27  C   UNL     1      36.710 -22.404 -15.430  0.00  0.00    +0.000 C 
ENDBRANCH  12  24
BRANCH  13  28
ATOM     28  O   UNL     1      29.926 -24.539 -13.299  0.00  0.00    -0.380 OA
ATOM     29  H   UNL     1      29.230 -25.126 -13.629  0.00  0.00    +0.211 HD
ENDBRANCH  13  28
BRANCH  16  30
ATOM     30  O   UNL     1      35.494 -24.975 -11.895  0.00  0.00    -0.381 OA
ATOM     31  H   UNL     1      35.288 -24.145 -11.437  0.00  0.00    +0.210 HD
ENDBRANCH  16  30
BRANCH  18  32
ATOM     32  O   UNL     1      34.912 -25.619 -16.458  0.00  0.00    -0.374 OA
ATOM     33  H   UNL     1      34.064 -26.044 -16.659  0.00  0.00    +0.211 HD
ENDBRANCH  18  32
TORSDOF 4
ENDMDL
MODEL 4
REMARK VINA RESULT:      -2.0     10.974     13.687
REMARK  Name = 11154476
REMARK  4 active torsions:
REMARK  status: ('A' for Active; 'I' for Inactive)
REMARK    1  A    between atoms: C_12  and  C_24
REMARK    2  A    between atoms: C_13  and  O_28
REMARK    3  A    between atoms: C_16  and  O_30
REMARK    4  A    between atoms: C_18  and  O_32
REMARK                            x       y       z     vdW  Elec       q    Type
REMARK                         _______ _______ _______ _____ _____    ______ ____
ROOT
ATOM      1  O   UNL     1      32.110 -15.333 -23.199  0.00  0.00    -0.312 OA
ATOM      2  O   UNL     1      32.738 -14.906 -19.902  0.00  0.00    -0.448 OA
ATOM      3  O   UNL     1      32.811 -13.841 -24.901  0.00  0.00    -0.423 OA
ATOM      4  O   UNL     1      35.046 -15.677 -24.425  0.00  0.00    -0.450 OA
ATOM      5  O   UNL     1      31.479 -16.631 -20.721  0.00  0.00    -0.247 OA
ATOM      6  O   UNL     1      34.474 -12.469 -25.685  0.00  0.00    -0.247 OA
ATOM      7  O   UNL     1      34.019 -17.088 -25.912  0.00  0.00    -0.250 OA
ATOM      8  C   UNL     1      33.738 -14.121 -21.932  0.00  0.00    +0.086 C 
ATOM      9  C   UNL     1      32.801 -13.110 -22.657  0.00  0.00    +0.108 C 
ATOM     10  C   UNL     1      33.062 -15.471 -22.151  0.00  0.00    +0.214 C 
ATOM     11  C   UNL     1      33.586 -13.867 -20.427  0.00  0.00    +0.198 C 
ATOM     12  C   UNL     1      31.888 -12.579 -21.515  0.00  0.00    +0.039 C 
ATOM     13  C   UNL     1      34.174 -16.510 -22.420  0.00  0.00    +0.167 C 
ATOM     14  C   UNL     1      35.195 -14.302 -22.398  0.00  0.00    +0.053 C 
ATOM     15  C   UNL     1      32.081 -13.982 -23.668  0.00  0.00    +0.294 C 
ATOM     16  C   UNL     1      32.856 -12.529 -20.330  0.00  0.00    +0.151 C 
ATOM     17  C   UNL     1      35.298 -15.693 -23.021  0.00  0.00    +0.197 C 
ATOM     18  C   UNL     1      33.399 -12.029 -23.548  0.00  0.00    +0.216 C 
ATOM     19  C   UNL     1      32.318 -15.757 -20.878  0.00  0.00    +0.344 C 
ATOM     20  C   UNL     1      33.875 -17.522 -23.522  0.00  0.00    +0.130 C 
ATOM     21  C   UNL     1      33.660 -12.772 -24.829  0.00  0.00    +0.346 C 
ATOM     22  C   UNL     1      34.295 -16.771 -24.765  0.00  0.00    +0.319 C 
ATOM     23  C   UNL     1      34.662 -18.824 -23.432  0.00  0.00    +0.014 C 
ENDROOT
BRANCH  12  24
ATOM     24  C   UNL     1      31.181 -11.246 -21.737  0.00  0.00    +0.003 C 
ATOM     25  C   UNL     1      29.941 -11.155 -20.830  0.00  0.00    +0.000 C 
ATOM     26  C   UNL     1      32.135 -10.085 -21.401  0.00  0.00    +0.000 C 
ATOM     27  C   UNL     1      30.741 -11.126 -23.206  0.00  0.00    +0.000 C 
ENDBRANCH  12  24
BRANCH  13  28
ATOM     28  O   UNL     1      34.637 -17.123 -21.226  0.00  0.00    -0.380 OA
ATOM     29  H   UNL     1      35.558 -16.864 -21.065  0.00  0.00    +0.211 HD
ENDBRANCH  13  28
BRANCH  16  30
ATOM     30  O   UNL     1      32.195 -12.366 -19.091  0.00  0.00    -0.381 OA
ATOM     31  H   UNL     1      32.189 -13.210 -18.613  0.00  0.00    +0.210 HD
ENDBRANCH  16  30
BRANCH  18  32
ATOM     32  O   UNL     1      34.515 -11.390 -22.994  0.00  0.00    -0.374 OA
ATOM     33  H   UNL     1      35.156 -11.192 -23.695  0.00  0.00    +0.211 HD
ENDBRANCH  18  32
TORSDOF 4
ENDMDL
MODEL 5
REMARK VINA RESULT:      -1.8      1.609      4.081
REMARK  Name = 11154476
REMARK  4 active torsions:
REMARK  status: ('A' for Active; 'I' for Inactive)
REMARK    1  A    between atoms: C_12  and  C_24
REMARK    2  A    between atoms: C_13  and  O_28
REMARK    3  A    between atoms: C_16  and  O_30
REMARK    4  A    between atoms: C_18  and  O_32
REMARK                            x       y       z     vdW  Elec       q    Type
REMARK                         _______ _______ _______ _____ _____    ______ ____
ROOT
ATOM      1  O   UNL     1      33.718 -22.155 -14.772  0.00  0.00    -0.312 OA
ATOM      2  O   UNL     1      33.308 -24.839 -12.752  0.00  0.00    -0.448 OA
ATOM      3  O   UNL     1      35.568 -21.835 -16.215  0.00  0.00    -0.423 OA
ATOM      4  O   UNL     1      33.630 -23.465 -17.691  0.00  0.00    -0.450 OA
ATOM      5  O   UNL     1      31.862 -23.067 -12.785  0.00  0.00    -0.247 OA
ATOM      6  O   UNL     1      37.059 -22.799 -17.669  0.00  0.00    -0.247 OA
ATOM      7  O   UNL     1      32.647 -21.487 -18.307  0.00  0.00    -0.250 OA
ATOM      8  C   UNL     1      34.549 -24.398 -14.753  0.00  0.00    +0.086 C 
ATOM      9  C   UNL     1      35.725 -23.417 -14.472  0.00  0.00    +0.108 C 
ATOM     10  C   UNL     1      33.307 -23.514 -14.683  0.00  0.00    +0.214 C 
ATOM     11  C   UNL     1      34.428 -25.310 -13.525  0.00  0.00    +0.198 C 
ATOM     12  C   UNL     1      35.976 -23.580 -12.945  0.00  0.00    +0.039 C 
ATOM     13  C   UNL     1      32.346 -23.974 -15.802  0.00  0.00    +0.167 C 
ATOM     14  C   UNL     1      34.460 -25.139 -16.101  0.00  0.00    +0.053 C 
ATOM     15  C   UNL     1      35.143 -22.071 -14.861  0.00  0.00    +0.294 C 
ATOM     16  C   UNL     1      35.714 -25.074 -12.737  0.00  0.00    +0.151 C 
ATOM     17  C   UNL     1      33.263 -24.560 -16.854  0.00  0.00    +0.197 C 
ATOM     18  C   UNL     1      36.980 -23.473 -15.332  0.00  0.00    +0.216 C 
ATOM     19  C   UNL     1      32.731 -23.741 -13.314  0.00  0.00    +0.344 C 
ATOM     20  C   UNL     1      31.642 -22.856 -16.564  0.00  0.00    +0.130 C 
ATOM     21  C   UNL     1      36.570 -22.700 -16.556  0.00  0.00    +0.346 C 
ATOM     22  C   UNL     1      32.667 -22.493 -17.614  0.00  0.00    +0.319 C 
ATOM     23  C   UNL     1      30.342 -23.262 -17.250  0.00  0.00    +0.014 C 
ENDROOT
BRANCH  12  24
ATOM     24  C   UNL     1      37.336 -23.153 -12.403  0.00  0.00    +0.003 C 
ATOM     25  C   UNL     1      37.193 -22.684 -10.944  0.00  0.00    +0.000 C 
ATOM     26  C   UNL     1      38.316 -24.339 -12.456  0.00  0.00    +0.000 C 
ATOM     27  C   UNL     1      37.898 -21.998 -13.250  0.00  0.00    +0.000 C 
ENDBRANCH  12  24
BRANCH  13  28
ATOM     28  O   UNL     1      31.449 -24.983 -15.359  0.00  0.00    -0.380 OA
ATOM     29  H   UNL     1      30.561 -24.800 -15.704  0.00  0.00    +0.211 HD
ENDBRANCH  13  28
BRANCH  16  30
ATOM     30  O   UNL     1      35.580 -25.421 -11.373  0.00  0.00    -0.381 OA
ATOM     31  H   UNL     1      34.872 -26.076 -11.273  0.00  0.00    +0.210 HD
ENDBRANCH  16  30
BRANCH  18  32
ATOM     32  O   UNL     1      37.442 -24.772 -15.578  0.00  0.00    -0.374 OA
ATOM     33  H   UNL     1      38.289 -24.906 -15.125  0.00  0.00    +0.211 HD
ENDBRANCH  18  32
TORSDOF 4
ENDMDL
MODEL 6
REMARK VINA RESULT:      -1.6      1.465      5.203
REMARK  Name = 11154476
REMARK  4 active torsions:
REMARK  status: ('A' for Active; 'I' for Inactive)
REMARK    1  A    between atoms: C_12  and  C_24
REMARK    2  A    between atoms: C_13  and  O_28
REMARK    3  A    between atoms: C_16  and  O_30
REMARK    4  A    between atoms: C_18  and  O_32
REMARK                            x       y       z     vdW  Elec       q    Type
REMARK                         _______ _______ _______ _____ _____    ______ ____
ROOT
ATOM      1  O   UNL     1      35.477 -22.608 -13.908  0.00  0.00    -0.312 OA
ATOM      2  O   UNL     1      35.652 -23.220 -17.232  0.00  0.00    -0.448 OA
ATOM      3  O   UNL     1      34.045 -23.752 -12.409  0.00  0.00    -0.423 OA
ATOM      4  O   UNL     1      36.478 -25.370 -12.641  0.00  0.00    -0.450 OA
ATOM      5  O   UNL     1      36.840 -21.558 -16.203  0.00  0.00    -0.247 OA
ATOM      6  O   UNL     1      33.110 -25.757 -11.800  0.00  0.00    -0.247 OA
ATOM      7  O   UNL     1      37.351 -24.041 -10.990  0.00  0.00    -0.250 OA
ATOM      8  C   UNL     1      34.935 -24.465 -15.315  0.00  0.00    +0.086 C 
ATOM      9  C   UNL     1      33.622 -23.872 -14.728  0.00  0.00    +0.108 C 
ATOM     10  C   UNL     1      36.005 -23.447 -14.928  0.00  0.00    +0.214 C 
ATOM     11  C   UNL     1      34.836 -24.340 -16.841  0.00  0.00    +0.198 C 
ATOM     12  C   UNL     1      33.000 -23.106 -15.930  0.00  0.00    +0.039 C 
ATOM     13  C   UNL     1      37.273 -24.235 -14.526  0.00  0.00    +0.167 C 
ATOM     14  C   UNL     1      35.460 -25.829 -14.826  0.00  0.00    +0.053 C 
ATOM     15  C   UNL     1      34.125 -22.972 -13.615  0.00  0.00    +0.294 C 
ATOM     16  C   UNL     1      33.370 -24.009 -17.109  0.00  0.00    +0.151 C 
ATOM     17  C   UNL     1      36.737 -25.561 -14.031  0.00  0.00    +0.197 C 
ATOM     18  C   UNL     1      32.651 -24.776 -13.979  0.00  0.00    +0.216 C 
ATOM     19  C   UNL     1      36.224 -22.611 -16.157  0.00  0.00    +0.344 C 
ATOM     20  C   UNL     1      38.017 -23.702 -13.306  0.00  0.00    +0.130 C 
ATOM     21  C   UNL     1      33.275 -24.863 -12.613  0.00  0.00    +0.346 C 
ATOM     22  C   UNL     1      37.267 -24.356 -12.167  0.00  0.00    +0.319 C 
ATOM     23  C   UNL     1      39.488 -24.092 -13.227  0.00  0.00    +0.014 C 
ENDROOT
BRANCH  12  24
ATOM     24  C   UNL     1      31.505 -22.806 -15.881  0.00  0.00    +0.003 C 
ATOM     25  C   UNL     1      31.111 -21.921 -17.076  0.00  0.00    +0.000 C 
ATOM     26  C   UNL     1      30.706 -24.120 -15.942  0.00  0.00    +0.000 C 
ATOM     27  C   UNL     1      31.162 -22.069 -14.574  0.00  0.00    +0.000 C 
ENDBRANCH  12  24
BRANCH  13  28
ATOM     28  O   UNL     1      38.133 -24.469 -15.632  0.00  0.00    -0.380 OA
ATOM     29  H   UNL     1      39.004 -24.747 -15.311  0.00  0.00    +0.211 HD
ENDBRANCH  13  28
BRANCH  16  30
ATOM     30  O   UNL     1      33.181 -23.379 -18.361  0.00  0.00    -0.381 OA
ATOM     31  H   UNL     1      33.205 -22.416 -18.246  0.00  0.00    +0.210 HD
ENDBRANCH  16  30
BRANCH  18  32
ATOM     32  O   UNL     1      32.424 -26.007 -14.607  0.00  0.00    -0.374 OA
ATOM     33  H   UNL     1      33.237 -26.536 -14.586  0.00  0.00    +0.211 HD
ENDBRANCH  18  32
TORSDOF 4
ENDMDL
MODEL 7
REMARK VINA RESULT:      -1.3      1.422      5.946
REMARK  Name = 11154476
REMARK  4 active torsions:
REMARK  status: ('A' for Active; 'I' for Inactive)
REMARK    1  A    between atoms: C_12  and  C_24
REMARK    2  A    between atoms: C_13  and  O_28
REMARK    3  A    between atoms: C_16  and  O_30
REMARK    4  A    between atoms: C_18  and  O_32
REMARK                            x       y       z     vdW  Elec       q    Type
REMARK                         _______ _______ _______ _____ _____    ______ ____
ROOT
ATOM      1  O   UNL     1      35.548 -25.723 -13.830  0.00  0.00    -0.312 OA
ATOM      2  O   UNL     1      34.699 -23.583 -11.350  0.00  0.00    -0.448 OA
ATOM      3  O   UNL     1      35.111 -25.353 -16.128  0.00  0.00    -0.423 OA
ATOM      4  O   UNL     1      37.649 -24.013 -15.533  0.00  0.00    -0.450 OA
ATOM      5  O   UNL     1      35.669 -25.619 -10.966  0.00  0.00    -0.247 OA
ATOM      6  O   UNL     1      35.039 -23.835 -17.848  0.00  0.00    -0.247 OA
ATOM      7  O   UNL     1      38.648 -26.039 -15.922  0.00  0.00    -0.250 OA
ATOM      8  C   UNL     1      35.077 -23.381 -13.707  0.00  0.00    +0.086 C 
ATOM      9  C   UNL     1      33.946 -24.086 -14.512  0.00  0.00    +0.108 C 
ATOM     10  C   UNL     1      35.890 -24.535 -13.127  0.00  0.00    +0.214 C 
ATOM     11  C   UNL     1      34.414 -22.738 -12.481  0.00  0.00    +0.198 C 
ATOM     12  C   UNL     1      32.755 -24.120 -13.512  0.00  0.00    +0.039 C 
ATOM     13  C   UNL     1      37.382 -24.140 -13.212  0.00  0.00    +0.167 C 
ATOM     14  C   UNL     1      36.093 -22.473 -14.425  0.00  0.00    +0.053 C 
ATOM     15  C   UNL     1      34.542 -25.449 -14.810  0.00  0.00    +0.294 C 
ATOM     16  C   UNL     1      32.918 -22.787 -12.778  0.00  0.00    +0.151 C 
ATOM     17  C   UNL     1      37.442 -23.188 -14.387  0.00  0.00    +0.197 C 
ATOM     18  C   UNL     1      33.590 -23.592 -15.909  0.00  0.00    +0.216 C 
ATOM     19  C   UNL     1      35.424 -24.680 -11.707  0.00  0.00    +0.344 C 
ATOM     20  C   UNL     1      38.333 -25.254 -13.640  0.00  0.00    +0.130 C 
ATOM     21  C   UNL     1      34.654 -24.229 -16.759  0.00  0.00    +0.346 C 
ATOM     22  C   UNL     1      38.243 -25.185 -15.147  0.00  0.00    +0.319 C 
ATOM     23  C   UNL     1      39.784 -25.063 -13.213  0.00  0.00    +0.014 C 
ENDROOT
BRANCH  12  24
ATOM     24  C   UNL     1      31.353 -24.294 -14.088  0.00  0.00    +0.003 C 
ATOM     25  C   UNL     1      30.419 -24.886 -13.017  0.00  0.00    +0.000 C 
ATOM     26  C   UNL     1      30.801 -22.929 -14.539  0.00  0.00    +0.000 C 
ATOM     27  C   UNL     1      31.399 -25.243 -15.298  0.00  0.00    +0.000 C 
ENDBRANCH  12  24
BRANCH  13  28
ATOM     28  O   UNL     1      37.826 -23.462 -12.045  0.00  0.00    -0.380 OA
ATOM     29  H   UNL     1      37.060 -23.114 -11.563  0.00  0.00    +0.211 HD
ENDBRANCH  13  28
BRANCH  16  30
ATOM     30  O   UNL     1      32.134 -22.710 -11.604  0.00  0.00    -0.381 OA
ATOM     31  H   UNL     1      32.478 -22.008 -11.030  0.00  0.00    +0.210 HD
ENDBRANCH  16  30
BRANCH  18  32
ATOM     32  O   UNL     1      33.503 -22.199 -16.012  0.00  0.00    -0.374 OA
ATOM     33  H   UNL     1      33.027 -21.962 -16.823  0.00  0.00    +0.211 HD
ENDBRANCH  18  32
TORSDOF 4
ENDMDL
