MODEL 1
REMARK VINA RESULT:      -9.7      0.000      0.000
REMARK  Name = 71398
REMARK  9 active torsions:
REMARK  status: ('A' for Active; 'I' for Inactive)
REMARK    1  A    between atoms: C_1  and  C_3
REMARK    2  A    between atoms: C_1  and  C_16
REMARK    3  A    between atoms: C_3  and  C_5
REMARK    4  A    between atoms: C_5  and  C_6
REMARK    5  A    between atoms: C_9  and  O_12
REMARK    6  A    between atoms: C_11  and  O_14
REMARK    7  A    between atoms: C_16  and  C_17
REMARK    8  A    between atoms: C_20  and  O_23
REMARK    9  A    between atoms: C_22  and  O_25
REMARK                            x       y       z     vdW  Elec       q    Type
REMARK                         _______ _______ _______ _____ _____    ______ ____
ROOT
ATOM      1  C   UNL     1      34.462 -20.357 -20.611  0.00  0.00    +0.005 C 
ATOM      2  C   UNL     1      32.963 -20.125 -20.352  0.00  0.00    +0.000 C 
ENDROOT
BRANCH   1   3
ATOM      3  C   UNL     1      35.090 -21.220 -19.470  0.00  0.00    +0.005 C 
ATOM      4  C   UNL     1      36.577 -21.530 -19.692  0.00  0.00    +0.000 C 
BRANCH   3   5
ATOM      5  C   UNL     1      34.337 -22.550 -19.220  0.00  0.00    +0.026 C 
BRANCH   5   6
ATOM      6  C   UNL     1      33.940 -22.786 -17.783  0.00  0.00    -0.019 C 
ATOM      7  C   UNL     1      34.911 -22.747 -16.794  0.00  0.00    +0.036 C 
ATOM      8  C   UNL     1      32.611 -23.038 -17.478  0.00  0.00    -0.001 C 
ATOM      9  C   UNL     1      34.544 -22.966 -15.466  0.00  0.00    +0.167 C 
ATOM     10  C   UNL     1      32.244 -23.256 -16.150  0.00  0.00    +0.039 C 
ATOM     11  C   UNL     1      33.210 -23.220 -15.144  0.00  0.00    +0.167 C 
BRANCH   9  12
ATOM     12  O   UNL     1      35.496 -22.926 -14.492  0.00  0.00    -0.503 OA
ATOM     13  H   UNL     1      36.174 -22.280 -14.527  0.00  0.00    +0.292 HD
ENDBRANCH   9  12
BRANCH  11  14
ATOM     14  O   UNL     1      32.839 -23.434 -13.851  0.00  0.00    -0.503 OA
ATOM     15  H   UNL     1      33.209 -24.148 -13.369  0.00  0.00    +0.292 HD
ENDBRANCH  11  14
ENDBRANCH   5   6
ENDBRANCH   3   5
ENDBRANCH   1   3
BRANCH   1  16
ATOM     16  C   UNL     1      35.196 -19.014 -20.834  0.00  0.00    +0.026 C 
BRANCH  16  17
ATOM     17  C   UNL     1      34.975 -18.421 -22.207  0.00  0.00    -0.019 C 
ATOM     18  C   UNL     1      34.919 -17.044 -22.348  0.00  0.00    +0.036 C 
ATOM     19  C   UNL     1      34.831 -19.265 -23.294  0.00  0.00    -0.001 C 
ATOM     20  C   UNL     1      34.714 -16.497 -23.615  0.00  0.00    +0.167 C 
ATOM     21  C   UNL     1      34.626 -18.718 -24.561  0.00  0.00    +0.039 C 
ATOM     22  C   UNL     1      34.567 -17.334 -24.721  0.00  0.00    +0.167 C 
BRANCH  20  23
ATOM     23  O   UNL     1      34.660 -15.143 -23.759  0.00  0.00    -0.503 OA
ATOM     24  H   UNL     1      35.451 -14.649 -23.846  0.00  0.00    +0.292 HD
ENDBRANCH  20  23
BRANCH  22  25
ATOM     25  O   UNL     1      34.367 -16.811 -25.962  0.00  0.00    -0.503 OA
ATOM     26  H   UNL     1      35.034 -16.884 -26.615  0.00  0.00    +0.292 HD
ENDBRANCH  22  25
ENDBRANCH  16  17
ENDBRANCH   1  16
TORSDOF 9
ENDMDL
MODEL 2
REMARK VINA RESULT:      -9.7      0.465      8.688
REMARK  Name = 71398
REMARK  9 active torsions:
REMARK  status: ('A' for Active; 'I' for Inactive)
REMARK    1  A    between atoms: C_1  and  C_3
REMARK    2  A    between atoms: C_1  and  C_16
REMARK    3  A    between atoms: C_3  and  C_5
REMARK    4  A    between atoms: C_5  and  C_6
REMARK    5  A    between atoms: C_9  and  O_12
REMARK    6  A    between atoms: C_11  and  O_14
REMARK    7  A    between atoms: C_16  and  C_17
REMARK    8  A    between atoms: C_20  and  O_23
REMARK    9  A    between atoms: C_22  and  O_25
REMARK                            x       y       z     vdW  Elec       q    Type
REMARK                         _______ _______ _______ _____ _____    ______ ____
ROOT
ATOM      1  C   UNL     1      34.074 -20.954 -19.715  0.00  0.00    +0.005 C 
ATOM      2  C   UNL     1      32.762 -20.499 -20.377  0.00  0.00    +0.000 C 
ENDROOT
BRANCH   1   3
ATOM      3  C   UNL     1      35.301 -20.563 -20.599  0.00  0.00    +0.005 C 
ATOM      4  C   UNL     1      36.614 -21.211 -20.135  0.00  0.00    +0.000 C 
BRANCH   3   5
ATOM      5  C   UNL     1      35.515 -19.035 -20.714  0.00  0.00    +0.026 C 
BRANCH   5   6
ATOM      6  C   UNL     1      35.236 -18.463 -22.083  0.00  0.00    -0.019 C 
ATOM      7  C   UNL     1      35.254 -17.089 -22.262  0.00  0.00    +0.036 C 
ATOM      8  C   UNL     1      34.964 -19.322 -23.135  0.00  0.00    -0.001 C 
ATOM      9  C   UNL     1      34.995 -16.560 -23.526  0.00  0.00    +0.167 C 
ATOM     10  C   UNL     1      34.704 -18.794 -24.400  0.00  0.00    +0.039 C 
ATOM     11  C   UNL     1      34.721 -17.413 -24.596  0.00  0.00    +0.167 C 
BRANCH   9  12
ATOM     12  O   UNL     1      35.015 -15.209 -23.705  0.00  0.00    -0.503 OA
ATOM     13  H   UNL     1      34.927 -14.638 -22.968  0.00  0.00    +0.292 HD
ENDBRANCH   9  12
BRANCH  11  14
ATOM     14  O   UNL     1      34.467 -16.909 -25.835  0.00  0.00    -0.503 OA
ATOM     15  H   UNL     1      35.175 -16.713 -26.416  0.00  0.00    +0.292 HD
ENDBRANCH  11  14
ENDBRANCH   5   6
ENDBRANCH   3   5
ENDBRANCH   1   3
BRANCH   1  16
ATOM     16  C   UNL     1      34.024 -22.461 -19.372  0.00  0.00    +0.026 C 
BRANCH  16  17
ATOM     17  C   UNL     1      33.891 -22.745 -17.893  0.00  0.00    -0.019 C 
ATOM     18  C   UNL     1      35.018 -22.694 -17.090  0.00  0.00    +0.036 C 
ATOM     19  C   UNL     1      32.645 -23.051 -17.372  0.00  0.00    -0.001 C 
ATOM     20  C   UNL     1      34.895 -22.956 -15.725  0.00  0.00    +0.167 C 
ATOM     21  C   UNL     1      32.522 -23.313 -16.007  0.00  0.00    +0.039 C 
ATOM     22  C   UNL     1      33.647 -23.266 -15.184  0.00  0.00    +0.167 C 
BRANCH  20  23
ATOM     23  O   UNL     1      36.001 -22.906 -14.931  0.00  0.00    -0.503 OA
ATOM     24  H   UNL     1      36.234 -22.106 -14.503  0.00  0.00    +0.292 HD
ENDBRANCH  20  23
BRANCH  22  25
ATOM     25  O   UNL     1      33.514 -23.524 -13.854  0.00  0.00    -0.503 OA
ATOM     26  H   UNL     1      34.226 -23.354 -13.269  0.00  0.00    +0.292 HD
ENDBRANCH  22  25
ENDBRANCH  16  17
ENDBRANCH   1  16
TORSDOF 9
ENDMDL
MODEL 3
REMARK VINA RESULT:      -9.7      3.466      9.406
REMARK  Name = 71398
REMARK  9 active torsions:
REMARK  status: ('A' for Active; 'I' for Inactive)
REMARK    1  A    between atoms: C_1  and  C_3
REMARK    2  A    between atoms: C_1  and  C_16
REMARK    3  A    between atoms: C_3  and  C_5
REMARK    4  A    between atoms: C_5  and  C_6
REMARK    5  A    between atoms: C_9  and  O_12
REMARK    6  A    between atoms: C_11  and  O_14
REMARK    7  A    between atoms: C_16  and  C_17
REMARK    8  A    between atoms: C_20  and  O_23
REMARK    9  A    between atoms: C_22  and  O_25
REMARK                            x       y       z     vdW  Elec       q    Type
REMARK                         _______ _______ _______ _____ _____    ______ ____
ROOT
ATOM      1  C   UNL     1      34.547 -17.085 -22.507  0.00  0.00    +0.005 C 
ATOM      2  C   UNL     1      35.019 -16.998 -23.969  0.00  0.00    +0.000 C 
ENDROOT
BRANCH   1   3
ATOM      3  C   UNL     1      34.344 -15.657 -21.908  0.00  0.00    +0.005 C 
ATOM      4  C   UNL     1      34.677 -15.574 -20.411  0.00  0.00    +0.000 C 
BRANCH   3   5
ATOM      5  C   UNL     1      32.921 -15.092 -22.132  0.00  0.00    +0.026 C 
BRANCH   5   6
ATOM      6  C   UNL     1      32.879 -13.635 -22.527  0.00  0.00    -0.019 C 
ATOM      7  C   UNL     1      33.749 -13.169 -23.499  0.00  0.00    +0.036 C 
ATOM      8  C   UNL     1      31.971 -12.790 -21.908  0.00  0.00    -0.001 C 
ATOM      9  C   UNL     1      33.711 -11.823 -23.863  0.00  0.00    +0.167 C 
ATOM     10  C   UNL     1      31.933 -11.443 -22.272  0.00  0.00    +0.039 C 
ATOM     11  C   UNL     1      32.802 -10.960 -23.249  0.00  0.00    +0.167 C 
BRANCH   9  12
ATOM     12  O   UNL     1      34.564 -11.363 -24.821  0.00  0.00    -0.503 OA
ATOM     13  H   UNL     1      34.346 -10.596 -25.313  0.00  0.00    +0.292 HD
ENDBRANCH   9  12
BRANCH  11  14
ATOM     14  O   UNL     1      32.755  -9.644 -23.597  0.00  0.00    -0.503 OA
ATOM     15  H   UNL     1      33.133  -8.997 -23.034  0.00  0.00    +0.292 HD
ENDBRANCH  11  14
ENDBRANCH   5   6
ENDBRANCH   3   5
ENDBRANCH   1   3
BRANCH   1  16
ATOM     16  C   UNL     1      35.505 -17.966 -21.671  0.00  0.00    +0.026 C 
BRANCH  16  17
ATOM     17  C   UNL     1      34.822 -19.133 -20.994  0.00  0.00    -0.019 C 
ATOM     18  C   UNL     1      35.594 -20.116 -20.397  0.00  0.00    +0.036 C 
ATOM     19  C   UNL     1      33.439 -19.196 -20.984  0.00  0.00    -0.001 C 
ATOM     20  C   UNL     1      34.964 -21.192 -19.772  0.00  0.00    +0.167 C 
ATOM     21  C   UNL     1      32.809 -20.272 -20.359  0.00  0.00    +0.039 C 
ATOM     22  C   UNL     1      33.572 -21.271 -19.754  0.00  0.00    +0.167 C 
BRANCH  20  23
ATOM     23  O   UNL     1      35.720 -22.161 -19.183  0.00  0.00    -0.503 OA
ATOM     24  H   UNL     1      35.444 -23.056 -19.216  0.00  0.00    +0.292 HD
ENDBRANCH  20  23
BRANCH  22  25
ATOM     25  O   UNL     1      32.946 -22.317 -19.147  0.00  0.00    -0.503 OA
ATOM     26  H   UNL     1      32.753 -22.281 -18.231  0.00  0.00    +0.292 HD
ENDBRANCH  22  25
ENDBRANCH  16  17
ENDBRANCH   1  16
TORSDOF 9
ENDMDL
MODEL 4
REMARK VINA RESULT:      -9.7      0.754      1.533
REMARK  Name = 71398
REMARK  9 active torsions:
REMARK  status: ('A' for Active; 'I' for Inactive)
REMARK    1  A    between atoms: C_1  and  C_3
REMARK    2  A    between atoms: C_1  and  C_16
REMARK    3  A    between atoms: C_3  and  C_5
REMARK    4  A    between atoms: C_5  and  C_6
REMARK    5  A    between atoms: C_9  and  O_12
REMARK    6  A    between atoms: C_11  and  O_14
REMARK    7  A    between atoms: C_16  and  C_17
REMARK    8  A    between atoms: C_20  and  O_23
REMARK    9  A    between atoms: C_22  and  O_25
REMARK                            x       y       z     vdW  Elec       q    Type
REMARK                         _______ _______ _______ _____ _____    ______ ____
ROOT
ATOM      1  C   UNL     1      34.457 -20.385 -20.625  0.00  0.00    +0.005 C 
ATOM      2  C   UNL     1      33.007 -19.894 -20.478  0.00  0.00    +0.000 C 
ENDROOT
BRANCH   1   3
ATOM      3  C   UNL     1      34.887 -21.214 -19.373  0.00  0.00    +0.005 C 
ATOM      4  C   UNL     1      36.392 -21.514 -19.331  0.00  0.00    +0.000 C 
BRANCH   3   5
ATOM      5  C   UNL     1      34.111 -22.545 -19.220  0.00  0.00    +0.026 C 
BRANCH   5   6
ATOM      6  C   UNL     1      33.651 -22.846 -17.814  0.00  0.00    -0.019 C 
ATOM      7  C   UNL     1      32.294 -22.862 -17.533  0.00  0.00    +0.036 C 
ATOM      8  C   UNL     1      34.593 -23.098 -16.830  0.00  0.00    -0.001 C 
ATOM      9  C   UNL     1      31.868 -23.139 -16.234  0.00  0.00    +0.167 C 
ATOM     10  C   UNL     1      34.168 -23.374 -15.531  0.00  0.00    +0.039 C 
ATOM     11  C   UNL     1      32.805 -23.396 -15.233  0.00  0.00    +0.167 C 
BRANCH   9  12
ATOM     12  O   UNL     1      30.534 -23.158 -15.955  0.00  0.00    -0.503 OA
ATOM     13  H   UNL     1      29.969 -23.748 -16.414  0.00  0.00    +0.292 HD
ENDBRANCH   9  12
BRANCH  11  14
ATOM     14  O   UNL     1      32.402 -23.668 -13.960  0.00  0.00    -0.503 OA
ATOM     15  H   UNL     1      32.973 -24.124 -13.375  0.00  0.00    +0.292 HD
ENDBRANCH  11  14
ENDBRANCH   5   6
ENDBRANCH   3   5
ENDBRANCH   1   3
BRANCH   1  16
ATOM     16  C   UNL     1      35.409 -19.205 -20.932  0.00  0.00    +0.026 C 
BRANCH  16  17
ATOM     17  C   UNL     1      35.141 -18.537 -22.261  0.00  0.00    -0.019 C 
ATOM     18  C   UNL     1      35.170 -17.155 -22.342  0.00  0.00    +0.036 C 
ATOM     19  C   UNL     1      34.870 -19.320 -23.371  0.00  0.00    -0.001 C 
ATOM     20  C   UNL     1      34.922 -16.538 -23.568  0.00  0.00    +0.167 C 
ATOM     21  C   UNL     1      34.622 -18.703 -24.597  0.00  0.00    +0.039 C 
ATOM     22  C   UNL     1      34.647 -17.312 -24.696  0.00  0.00    +0.167 C 
BRANCH  20  23
ATOM     23  O   UNL     1      34.951 -15.178 -23.652  0.00  0.00    -0.503 OA
ATOM     24  H   UNL     1      34.457 -14.661 -23.047  0.00  0.00    +0.292 HD
ENDBRANCH  20  23
BRANCH  22  25
ATOM     25  O   UNL     1      34.404 -16.722 -25.898  0.00  0.00    -0.503 OA
ATOM     26  H   UNL     1      33.683 -16.131 -25.993  0.00  0.00    +0.292 HD
ENDBRANCH  22  25
ENDBRANCH  16  17
ENDBRANCH   1  16
TORSDOF 9
ENDMDL
MODEL 5
REMARK VINA RESULT:      -9.6      1.174      8.766
REMARK  Name = 71398
REMARK  9 active torsions:
REMARK  status: ('A' for Active; 'I' for Inactive)
REMARK    1  A    between atoms: C_1  and  C_3
REMARK    2  A    between atoms: C_1  and  C_16
REMARK    3  A    between atoms: C_3  and  C_5
REMARK    4  A    between atoms: C_5  and  C_6
REMARK    5  A    between atoms: C_9  and  O_12
REMARK    6  A    between atoms: C_11  and  O_14
REMARK    7  A    between atoms: C_16  and  C_17
REMARK    8  A    between atoms: C_20  and  O_23
REMARK    9  A    between atoms: C_22  and  O_25
REMARK                            x       y       z     vdW  Elec       q    Type
REMARK                         _______ _______ _______ _____ _____    ______ ____
ROOT
ATOM      1  C   UNL     1      34.434 -20.284 -20.165  0.00  0.00    +0.005 C 
ATOM      2  C   UNL     1      32.994 -20.203 -20.700  0.00  0.00    +0.000 C 
ENDROOT
BRANCH   1   3
ATOM      3  C   UNL     1      35.404 -19.454 -21.067  0.00  0.00    +0.005 C 
ATOM      4  C   UNL     1      36.881 -19.621 -20.683  0.00  0.00    +0.000 C 
BRANCH   3   5
ATOM      5  C   UNL     1      35.067 -17.943 -21.103  0.00  0.00    +0.026 C 
BRANCH   5   6
ATOM      6  C   UNL     1      34.778 -17.397 -22.480  0.00  0.00    -0.019 C 
ATOM      7  C   UNL     1      34.467 -16.055 -22.627  0.00  0.00    +0.036 C 
ATOM      8  C   UNL     1      34.828 -18.249 -23.573  0.00  0.00    -0.001 C 
ATOM      9  C   UNL     1      34.199 -15.550 -23.900  0.00  0.00    +0.167 C 
ATOM     10  C   UNL     1      34.560 -17.744 -24.845  0.00  0.00    +0.039 C 
ATOM     11  C   UNL     1      34.246 -16.395 -25.009  0.00  0.00    +0.167 C 
BRANCH   9  12
ATOM     12  O   UNL     1      33.896 -14.229 -24.048  0.00  0.00    -0.503 OA
ATOM     13  H   UNL     1      33.209 -13.970 -24.630  0.00  0.00    +0.292 HD
ENDBRANCH   9  12
BRANCH  11  14
ATOM     14  O   UNL     1      33.987 -15.914 -26.257  0.00  0.00    -0.503 OA
ATOM     15  H   UNL     1      33.524 -16.443 -26.876  0.00  0.00    +0.292 HD
ENDBRANCH  11  14
ENDBRANCH   5   6
ENDBRANCH   3   5
ENDBRANCH   1   3
BRANCH   1  16
ATOM     16  C   UNL     1      34.875 -21.756 -19.991  0.00  0.00    +0.026 C 
BRANCH  16  17
ATOM     17  C   UNL     1      35.019 -22.181 -18.547  0.00  0.00    -0.019 C 
ATOM     18  C   UNL     1      36.207 -21.927 -17.882  0.00  0.00    +0.036 C 
ATOM     19  C   UNL     1      33.962 -22.817 -17.920  0.00  0.00    -0.001 C 
ATOM     20  C   UNL     1      36.339 -22.320 -16.550  0.00  0.00    +0.167 C 
ATOM     21  C   UNL     1      34.094 -23.210 -16.588  0.00  0.00    +0.039 C 
ATOM     22  C   UNL     1      35.283 -22.961 -15.903  0.00  0.00    +0.167 C 
BRANCH  20  23
ATOM     23  O   UNL     1      37.506 -22.070 -15.891  0.00  0.00    -0.503 OA
ATOM     24  H   UNL     1      37.599 -22.319 -14.993  0.00  0.00    +0.292 HD
ENDBRANCH  20  23
BRANCH  22  25
ATOM     25  O   UNL     1      35.401 -23.349 -14.603  0.00  0.00    -0.503 OA
ATOM     26  H   UNL     1      36.083 -23.939 -14.350  0.00  0.00    +0.292 HD
ENDBRANCH  22  25
ENDBRANCH  16  17
ENDBRANCH   1  16
TORSDOF 9
ENDMDL
MODEL 6
REMARK VINA RESULT:      -9.6      2.838      8.732
REMARK  Name = 71398
REMARK  9 active torsions:
REMARK  status: ('A' for Active; 'I' for Inactive)
REMARK    1  A    between atoms: C_1  and  C_3
REMARK    2  A    between atoms: C_1  and  C_16
REMARK    3  A    between atoms: C_3  and  C_5
REMARK    4  A    between atoms: C_5  and  C_6
REMARK    5  A    between atoms: C_9  and  O_12
REMARK    6  A    between atoms: C_11  and  O_14
REMARK    7  A    between atoms: C_16  and  C_17
REMARK    8  A    between atoms: C_20  and  O_23
REMARK    9  A    between atoms: C_22  and  O_25
REMARK                            x       y       z     vdW  Elec       q    Type
REMARK                         _______ _______ _______ _____ _____    ______ ____
ROOT
ATOM      1  C   UNL     1      34.589 -18.554 -23.078  0.00  0.00    +0.005 C 
ATOM      2  C   UNL     1      35.021 -19.541 -24.175  0.00  0.00    +0.000 C 
ENDROOT
BRANCH   1   3
ATOM      3  C   UNL     1      34.329 -17.137 -23.684  0.00  0.00    +0.005 C 
ATOM      4  C   UNL     1      34.830 -16.994 -25.128  0.00  0.00    +0.000 C 
BRANCH   3   5
ATOM      5  C   UNL     1      34.925 -15.987 -22.836  0.00  0.00    +0.026 C 
BRANCH   5   6
ATOM      6  C   UNL     1      34.004 -14.807 -22.643  0.00  0.00    -0.019 C 
ATOM      7  C   UNL     1      34.099 -13.723 -23.502  0.00  0.00    +0.036 C 
ATOM      8  C   UNL     1      33.080 -14.828 -21.610  0.00  0.00    -0.001 C 
ATOM      9  C   UNL     1      33.249 -12.632 -23.324  0.00  0.00    +0.167 C 
ATOM     10  C   UNL     1      32.229 -13.736 -21.432  0.00  0.00    +0.039 C 
ATOM     11  C   UNL     1      32.313 -12.639 -22.289  0.00  0.00    +0.167 C 
BRANCH   9  12
ATOM     12  O   UNL     1      33.339 -11.566 -24.168  0.00  0.00    -0.503 OA
ATOM     13  H   UNL     1      33.084 -10.714 -23.875  0.00  0.00    +0.292 HD
ENDBRANCH   9  12
BRANCH  11  14
ATOM     14  O   UNL     1      31.476 -11.580 -22.105  0.00  0.00    -0.503 OA
ATOM     15  H   UNL     1      30.552 -11.718 -22.042  0.00  0.00    +0.292 HD
ENDBRANCH  11  14
ENDBRANCH   5   6
ENDBRANCH   3   5
ENDBRANCH   1   3
BRANCH   1  16
ATOM     16  C   UNL     1      35.607 -18.542 -21.915  0.00  0.00    +0.026 C 
BRANCH  16  17
ATOM     17  C   UNL     1      35.417 -19.673 -20.929  0.00  0.00    -0.019 C 
ATOM     18  C   UNL     1      34.139 -20.143 -20.676  0.00  0.00    +0.036 C 
ATOM     19  C   UNL     1      36.523 -20.215 -20.298  0.00  0.00    -0.001 C 
ATOM     20  C   UNL     1      33.963 -21.186 -19.767  0.00  0.00    +0.167 C 
ATOM     21  C   UNL     1      36.348 -21.258 -19.388  0.00  0.00    +0.039 C 
ATOM     22  C   UNL     1      35.068 -21.743 -19.122  0.00  0.00    +0.167 C 
BRANCH  20  23
ATOM     23  O   UNL     1      32.707 -21.652 -19.516  0.00  0.00    -0.503 OA
ATOM     24  H   UNL     1      32.519 -22.565 -19.614  0.00  0.00    +0.292 HD
ENDBRANCH  20  23
BRANCH  22  25
ATOM     25  O   UNL     1      34.909 -22.761 -18.232  0.00  0.00    -0.503 OA
ATOM     26  H   UNL     1      35.278 -22.696 -17.374  0.00  0.00    +0.292 HD
ENDBRANCH  22  25
ENDBRANCH  16  17
ENDBRANCH   1  16
TORSDOF 9
ENDMDL
MODEL 7
REMARK VINA RESULT:      -9.3      2.525      4.572
REMARK  Name = 71398
REMARK  9 active torsions:
REMARK  status: ('A' for Active; 'I' for Inactive)
REMARK    1  A    between atoms: C_1  and  C_3
REMARK    2  A    between atoms: C_1  and  C_16
REMARK    3  A    between atoms: C_3  and  C_5
REMARK    4  A    between atoms: C_5  and  C_6
REMARK    5  A    between atoms: C_9  and  O_12
REMARK    6  A    between atoms: C_11  and  O_14
REMARK    7  A    between atoms: C_16  and  C_17
REMARK    8  A    between atoms: C_20  and  O_23
REMARK    9  A    between atoms: C_22  and  O_25
REMARK                            x       y       z     vdW  Elec       q    Type
REMARK                         _______ _______ _______ _____ _____    ______ ____
ROOT
ATOM      1  C   UNL     1      35.293 -17.238 -22.956  0.00  0.00    +0.005 C 
ATOM      2  C   UNL     1      34.516 -16.673 -24.157  0.00  0.00    +0.000 C 
ENDROOT
BRANCH   1   3
ATOM      3  C   UNL     1      35.063 -18.778 -22.827  0.00  0.00    +0.005 C 
ATOM      4  C   UNL     1      34.842 -19.474 -24.177  0.00  0.00    +0.000 C 
BRANCH   3   5
ATOM      5  C   UNL     1      33.897 -19.149 -21.879  0.00  0.00    +0.026 C 
BRANCH   5   6
ATOM      6  C   UNL     1      34.257 -20.139 -20.798  0.00  0.00    -0.019 C 
ATOM      7  C   UNL     1      33.246 -20.802 -20.120  0.00  0.00    +0.036 C 
ATOM      8  C   UNL     1      35.592 -20.365 -20.501  0.00  0.00    -0.001 C 
ATOM      9  C   UNL     1      33.579 -21.716 -19.120  0.00  0.00    +0.167 C 
ATOM     10  C   UNL     1      35.925 -21.279 -19.501  0.00  0.00    +0.039 C 
ATOM     11  C   UNL     1      34.918 -21.955 -18.811  0.00  0.00    +0.167 C 
BRANCH   9  12
ATOM     12  O   UNL     1      32.587 -22.372 -18.454  0.00  0.00    -0.503 OA
ATOM     13  H   UNL     1      32.800 -22.944 -17.743  0.00  0.00    +0.292 HD
ENDBRANCH   9  12
BRANCH  11  14
ATOM     14  O   UNL     1      35.256 -22.846 -17.837  0.00  0.00    -0.503 OA
ATOM     15  H   UNL     1      36.060 -23.323 -17.897  0.00  0.00    +0.292 HD
ENDBRANCH  11  14
ENDBRANCH   5   6
ENDBRANCH   3   5
ENDBRANCH   1   3
BRANCH   1  16
ATOM     16  C   UNL     1      34.950 -16.460 -21.664  0.00  0.00    +0.026 C 
BRANCH  16  17
ATOM     17  C   UNL     1      34.097 -15.234 -21.900  0.00  0.00    -0.019 C 
ATOM     18  C   UNL     1      34.491 -14.309 -22.853  0.00  0.00    +0.036 C 
ATOM     19  C   UNL     1      32.941 -15.060 -21.159  0.00  0.00    -0.001 C 
ATOM     20  C   UNL     1      33.705 -13.178 -23.071  0.00  0.00    +0.167 C 
ATOM     21  C   UNL     1      32.155 -13.928 -21.377  0.00  0.00    +0.039 C 
ATOM     22  C   UNL     1      32.537 -12.987 -22.333  0.00  0.00    +0.167 C 
BRANCH  20  23
ATOM     23  O   UNL     1      34.088 -12.266 -24.009  0.00  0.00    -0.503 OA
ATOM     24  H   UNL     1      34.001 -12.467 -24.919  0.00  0.00    +0.292 HD
ENDBRANCH  20  23
BRANCH  22  25
ATOM     25  O   UNL     1      31.761 -11.887 -22.536  0.00  0.00    -0.503 OA
ATOM     26  H   UNL     1      31.045 -11.923 -23.138  0.00  0.00    +0.292 HD
ENDBRANCH  22  25
ENDBRANCH  16  17
ENDBRANCH   1  16
TORSDOF 9
ENDMDL
MODEL 8
REMARK VINA RESULT:      -9.3      2.703      9.380
REMARK  Name = 71398
REMARK  9 active torsions:
REMARK  status: ('A' for Active; 'I' for Inactive)
REMARK    1  A    between atoms: C_1  and  C_3
REMARK    2  A    between atoms: C_1  and  C_16
REMARK    3  A    between atoms: C_3  and  C_5
REMARK    4  A    between atoms: C_5  and  C_6
REMARK    5  A    between atoms: C_9  and  O_12
REMARK    6  A    between atoms: C_11  and  O_14
REMARK    7  A    between atoms: C_16  and  C_17
REMARK    8  A    between atoms: C_20  and  O_23
REMARK    9  A    between atoms: C_22  and  O_25
REMARK                            x       y       z     vdW  Elec       q    Type
REMARK                         _______ _______ _______ _____ _____    ______ ____
ROOT
ATOM      1  C   UNL     1      34.863 -17.968 -22.316  0.00  0.00    +0.005 C 
ATOM      2  C   UNL     1      34.967 -18.228 -23.828  0.00  0.00    +0.000 C 
ENDROOT
BRANCH   1   3
ATOM      3  C   UNL     1      34.685 -16.443 -22.030  0.00  0.00    +0.005 C 
ATOM      4  C   UNL     1      34.856 -16.079 -20.548  0.00  0.00    +0.000 C 
BRANCH   3   5
ATOM      5  C   UNL     1      33.332 -15.878 -22.527  0.00  0.00    +0.026 C 
BRANCH   5   6
ATOM      6  C   UNL     1      33.449 -14.810 -23.587  0.00  0.00    -0.019 C 
ATOM      7  C   UNL     1      33.420 -15.174 -24.924  0.00  0.00    +0.036 C 
ATOM      8  C   UNL     1      33.584 -13.485 -23.205  0.00  0.00    -0.001 C 
ATOM      9  C   UNL     1      33.529 -14.188 -25.905  0.00  0.00    +0.167 C 
ATOM     10  C   UNL     1      33.693 -12.498 -24.185  0.00  0.00    +0.039 C 
ATOM     11  C   UNL     1      33.665 -12.849 -25.535  0.00  0.00    +0.167 C 
BRANCH   9  12
ATOM     12  O   UNL     1      33.499 -14.543 -27.220  0.00  0.00    -0.503 OA
ATOM     13  H   UNL     1      34.237 -14.972 -27.606  0.00  0.00    +0.292 HD
ENDBRANCH   9  12
BRANCH  11  14
ATOM     14  O   UNL     1      33.772 -11.877 -26.483  0.00  0.00    -0.503 OA
ATOM     15  H   UNL     1      33.649 -10.978 -26.248  0.00  0.00    +0.292 HD
ENDBRANCH  11  14
ENDBRANCH   5   6
ENDBRANCH   3   5
ENDBRANCH   1   3
BRANCH   1  16
ATOM     16  C   UNL     1      36.064 -18.592 -21.567  0.00  0.00    +0.026 C 
BRANCH  16  17
ATOM     17  C   UNL     1      35.689 -19.763 -20.685  0.00  0.00    -0.019 C 
ATOM     18  C   UNL     1      34.361 -20.148 -20.601  0.00  0.00    +0.036 C 
ATOM     19  C   UNL     1      36.679 -20.424 -19.980  0.00  0.00    -0.001 C 
ATOM     20  C   UNL     1      34.016 -21.228 -19.787  0.00  0.00    +0.167 C 
ATOM     21  C   UNL     1      36.334 -21.503 -19.166  0.00  0.00    +0.039 C 
ATOM     22  C   UNL     1      35.002 -21.904 -19.070  0.00  0.00    +0.167 C 
BRANCH  20  23
ATOM     23  O   UNL     1      32.710 -21.611 -19.703  0.00  0.00    -0.503 OA
ATOM     24  H   UNL     1      32.447 -22.449 -20.028  0.00  0.00    +0.292 HD
ENDBRANCH  20  23
BRANCH  22  25
ATOM     25  O   UNL     1      34.676 -22.959 -18.273  0.00  0.00    -0.503 OA
ATOM     26  H   UNL     1      35.249 -23.697 -18.214  0.00  0.00    +0.292 HD
ENDBRANCH  22  25
ENDBRANCH  16  17
ENDBRANCH   1  16
TORSDOF 9
ENDMDL
MODEL 9
REMARK VINA RESULT:      -9.3      3.494      5.733
REMARK  Name = 71398
REMARK  9 active torsions:
REMARK  status: ('A' for Active; 'I' for Inactive)
REMARK    1  A    between atoms: C_1  and  C_3
REMARK    2  A    between atoms: C_1  and  C_16
REMARK    3  A    between atoms: C_3  and  C_5
REMARK    4  A    between atoms: C_5  and  C_6
REMARK    5  A    between atoms: C_9  and  O_12
REMARK    6  A    between atoms: C_11  and  O_14
REMARK    7  A    between atoms: C_16  and  C_17
REMARK    8  A    between atoms: C_20  and  O_23
REMARK    9  A    between atoms: C_22  and  O_25
REMARK                            x       y       z     vdW  Elec       q    Type
REMARK                         _______ _______ _______ _____ _____    ______ ____
ROOT
ATOM      1  C   UNL     1      34.524 -15.723 -23.226  0.00  0.00    +0.005 C 
ATOM      2  C   UNL     1      35.098 -16.679 -24.285  0.00  0.00    +0.000 C 
ENDROOT
BRANCH   1   3
ATOM      3  C   UNL     1      34.404 -16.440 -21.844  0.00  0.00    +0.005 C 
ATOM      4  C   UNL     1      34.589 -15.493 -20.650  0.00  0.00    +0.000 C 
BRANCH   3   5
ATOM      5  C   UNL     1      35.375 -17.635 -21.684  0.00  0.00    +0.026 C 
BRANCH   5   6
ATOM      6  C   UNL     1      34.759 -18.866 -21.064  0.00  0.00    -0.019 C 
ATOM      7  C   UNL     1      35.584 -19.843 -20.529  0.00  0.00    +0.036 C 
ATOM      8  C   UNL     1      33.379 -18.998 -21.042  0.00  0.00    -0.001 C 
ATOM      9  C   UNL     1      35.015 -20.981 -19.957  0.00  0.00    +0.167 C 
ATOM     10  C   UNL     1      32.810 -20.136 -20.470  0.00  0.00    +0.039 C 
ATOM     11  C   UNL     1      33.628 -21.127 -19.927  0.00  0.00    +0.167 C 
BRANCH   9  12
ATOM     12  O   UNL     1      35.824 -21.941 -19.428  0.00  0.00    -0.503 OA
ATOM     13  H   UNL     1      36.063 -22.687 -19.943  0.00  0.00    +0.292 HD
ENDBRANCH   9  12
BRANCH  11  14
ATOM     14  O   UNL     1      33.060 -22.233 -19.370  0.00  0.00    -0.503 OA
ATOM     15  H   UNL     1      33.244 -22.455 -18.478  0.00  0.00    +0.292 HD
ENDBRANCH  11  14
ENDBRANCH   5   6
ENDBRANCH   3   5
ENDBRANCH   1   3
BRANCH   1  16
ATOM     16  C   UNL     1      33.192 -15.102 -23.709  0.00  0.00    +0.026 C 
BRANCH  16  17
ATOM     17  C   UNL     1      33.112 -13.605 -23.511  0.00  0.00    -0.019 C 
ATOM     18  C   UNL     1      33.963 -12.781 -24.228  0.00  0.00    +0.036 C 
ATOM     19  C   UNL     1      32.191 -13.089 -22.616  0.00  0.00    -0.001 C 
ATOM     20  C   UNL     1      33.889 -11.400 -24.045  0.00  0.00    +0.167 C 
ATOM     21  C   UNL     1      32.117 -11.708 -22.433  0.00  0.00    +0.039 C 
ATOM     22  C   UNL     1      32.966 -10.863 -23.147  0.00  0.00    +0.167 C 
BRANCH  20  23
ATOM     23  O   UNL     1      34.724 -10.585 -24.750  0.00  0.00    -0.503 OA
ATOM     24  H   UNL     1      34.390 -10.079 -25.465  0.00  0.00    +0.292 HD
ENDBRANCH  20  23
BRANCH  22  25
ATOM     25  O   UNL     1      32.885  -9.517 -22.960  0.00  0.00    -0.503 OA
ATOM     26  H   UNL     1      32.654  -8.957 -23.674  0.00  0.00    +0.292 HD
ENDBRANCH  22  25
ENDBRANCH  16  17
ENDBRANCH   1  16
TORSDOF 9
ENDMDL
