MODEL 1
REMARK VINA RESULT:      -5.5      0.000      0.000
REMARK  Name = 7245
REMARK  1 active torsions:
REMARK  status: ('A' for Active; 'I' for Inactive)
REMARK    1  A    between atoms: C_2  and  O_8
REMARK                            x       y       z     vdW  Elec       q    Type
REMARK                         _______ _______ _______ _____ _____    ______ ____
ROOT
ATOM      1 CL   UNL     1      36.478 -18.755 -21.479  0.00  0.00    -0.079 Cl
ATOM      2  C   UNL     1      35.566 -20.872 -20.035  0.00  0.00    +0.144 C 
ATOM      3  C   UNL     1      35.244 -19.738 -20.781  0.00  0.00    +0.091 C 
ATOM      4  C   UNL     1      34.551 -21.652 -19.481  0.00  0.00    +0.037 C 
ATOM      5  C   UNL     1      33.908 -19.385 -20.973  0.00  0.00    +0.014 C 
ATOM      6  C   UNL     1      33.215 -21.299 -19.672  0.00  0.00    +0.003 C 
ATOM      7  C   UNL     1      32.894 -20.166 -20.418  0.00  0.00    +0.001 C 
ENDROOT
BRANCH   2   8
ATOM      8  O   UNL     1      36.862 -21.241 -19.832  0.00  0.00    -0.505 OA
ATOM      9  H   UNL     1      37.130 -21.567 -18.996  0.00  0.00    +0.292 HD
ENDBRANCH   2   8
TORSDOF 1
ENDMDL
MODEL 2
REMARK VINA RESULT:      -5.4      2.258      2.792
REMARK  Name = 7245
REMARK  1 active torsions:
REMARK  status: ('A' for Active; 'I' for Inactive)
REMARK    1  A    between atoms: C_2  and  O_8
REMARK                            x       y       z     vdW  Elec       q    Type
REMARK                         _______ _______ _______ _____ _____    ______ ____
ROOT
ATOM      1 CL   UNL     1      33.030 -22.520 -18.312  0.00  0.00    -0.079 Cl
ATOM      2  C   UNL     1      35.183 -21.364 -19.504  0.00  0.00    +0.144 C 
ATOM      3  C   UNL     1      33.794 -21.414 -19.393  0.00  0.00    +0.091 C 
ATOM      4  C   UNL     1      35.780 -20.462 -20.385  0.00  0.00    +0.037 C 
ATOM      5  C   UNL     1      33.001 -20.564 -20.163  0.00  0.00    +0.014 C 
ATOM      6  C   UNL     1      34.987 -19.610 -21.156  0.00  0.00    +0.003 C 
ATOM      7  C   UNL     1      33.598 -19.662 -21.045  0.00  0.00    +0.001 C 
ENDROOT
BRANCH   2   8
ATOM      8  O   UNL     1      35.983 -22.183 -18.764  0.00  0.00    -0.505 OA
ATOM      9  H   UNL     1      36.140 -21.992 -17.860  0.00  0.00    +0.292 HD
ENDBRANCH   2   8
TORSDOF 1
ENDMDL
MODEL 3
REMARK VINA RESULT:      -5.4      2.234      2.885
REMARK  Name = 7245
REMARK  1 active torsions:
REMARK  status: ('A' for Active; 'I' for Inactive)
REMARK    1  A    between atoms: C_2  and  O_8
REMARK                            x       y       z     vdW  Elec       q    Type
REMARK                         _______ _______ _______ _____ _____    ______ ____
ROOT
ATOM      1 CL   UNL     1      32.613 -19.861 -20.981  0.00  0.00    -0.079 Cl
ATOM      2  C   UNL     1      34.001 -21.578 -19.392  0.00  0.00    +0.144 C 
ATOM      3  C   UNL     1      34.054 -20.511 -20.289  0.00  0.00    +0.091 C 
ATOM      4  C   UNL     1      35.178 -22.088 -18.845  0.00  0.00    +0.037 C 
ATOM      5  C   UNL     1      35.284 -19.954 -20.638  0.00  0.00    +0.014 C 
ATOM      6  C   UNL     1      36.409 -21.530 -19.194  0.00  0.00    +0.003 C 
ATOM      7  C   UNL     1      36.461 -20.464 -20.091  0.00  0.00    +0.001 C 
ENDROOT
BRANCH   2   8
ATOM      8  O   UNL     1      32.813 -22.143 -19.033  0.00  0.00    -0.505 OA
ATOM      9  H   UNL     1      32.578 -22.988 -19.362  0.00  0.00    +0.292 HD
ENDBRANCH   2   8
TORSDOF 1
ENDMDL
MODEL 4
REMARK VINA RESULT:      -5.4      1.492      1.942
REMARK  Name = 7245
REMARK  1 active torsions:
REMARK  status: ('A' for Active; 'I' for Inactive)
REMARK    1  A    between atoms: C_2  and  O_8
REMARK                            x       y       z     vdW  Elec       q    Type
REMARK                         _______ _______ _______ _____ _____    ______ ____
ROOT
ATOM      1 CL   UNL     1      37.077 -21.315 -19.877  0.00  0.00    -0.079 Cl
ATOM      2  C   UNL     1      34.393 -21.544 -19.506  0.00  0.00    +0.144 C 
ATOM      3  C   UNL     1      35.436 -20.835 -20.102  0.00  0.00    +0.091 C 
ATOM      4  C   UNL     1      33.072 -21.139 -19.702  0.00  0.00    +0.037 C 
ATOM      5  C   UNL     1      35.158 -19.721 -20.894  0.00  0.00    +0.014 C 
ATOM      6  C   UNL     1      32.795 -20.023 -20.495  0.00  0.00    +0.003 C 
ATOM      7  C   UNL     1      33.838 -19.315 -21.090  0.00  0.00    +0.001 C 
ENDROOT
BRANCH   2   8
ATOM      8  O   UNL     1      34.633 -22.637 -18.728  0.00  0.00    -0.505 OA
ATOM      9  H   UNL     1      34.293 -23.473 -18.977  0.00  0.00    +0.292 HD
ENDBRANCH   2   8
TORSDOF 1
ENDMDL
MODEL 5
REMARK VINA RESULT:      -5.4      1.918      2.586
REMARK  Name = 7245
REMARK  1 active torsions:
REMARK  status: ('A' for Active; 'I' for Inactive)
REMARK    1  A    between atoms: C_2  and  O_8
REMARK                            x       y       z     vdW  Elec       q    Type
REMARK                         _______ _______ _______ _____ _____    ______ ____
ROOT
ATOM      1 CL   UNL     1      34.611 -18.574 -21.901  0.00  0.00    -0.079 Cl
ATOM      2  C   UNL     1      33.622 -20.546 -20.311  0.00  0.00    +0.144 C 
ATOM      3  C   UNL     1      34.754 -19.890 -20.795  0.00  0.00    +0.091 C 
ATOM      4  C   UNL     1      33.761 -21.608 -19.417  0.00  0.00    +0.037 C 
ATOM      5  C   UNL     1      36.024 -20.295 -20.385  0.00  0.00    +0.014 C 
ATOM      6  C   UNL     1      35.032 -22.014 -19.007  0.00  0.00    +0.003 C 
ATOM      7  C   UNL     1      36.163 -21.357 -19.491  0.00  0.00    +0.001 C 
ENDROOT
BRANCH   2   8
ATOM      8  O   UNL     1      32.369 -20.172 -20.694  0.00  0.00    -0.505 OA
ATOM      9  H   UNL     1      31.812 -20.784 -21.133  0.00  0.00    +0.292 HD
ENDBRANCH   2   8
TORSDOF 1
ENDMDL
MODEL 6
REMARK VINA RESULT:      -5.3      4.682      5.531
REMARK  Name = 7245
REMARK  1 active torsions:
REMARK  status: ('A' for Active; 'I' for Inactive)
REMARK    1  A    between atoms: C_2  and  O_8
REMARK                            x       y       z     vdW  Elec       q    Type
REMARK                         _______ _______ _______ _____ _____    ______ ____
ROOT
ATOM      1 CL   UNL     1      34.540 -14.693 -23.371  0.00  0.00    -0.079 Cl
ATOM      2  C   UNL     1      34.440 -16.939 -24.903  0.00  0.00    +0.144 C 
ATOM      3  C   UNL     1      34.653 -16.394 -23.637  0.00  0.00    +0.091 C 
ATOM      4  C   UNL     1      34.537 -18.317 -25.095  0.00  0.00    +0.037 C 
ATOM      5  C   UNL     1      34.964 -17.228 -22.563  0.00  0.00    +0.014 C 
ATOM      6  C   UNL     1      34.847 -19.151 -24.019  0.00  0.00    +0.003 C 
ATOM      7  C   UNL     1      35.060 -18.606 -22.754  0.00  0.00    +0.001 C 
ENDROOT
BRANCH   2   8
ATOM      8  O   UNL     1      34.136 -16.149 -25.971  0.00  0.00    -0.505 OA
ATOM      9  H   UNL     1      34.799 -15.617 -26.364  0.00  0.00    +0.292 HD
ENDBRANCH   2   8
TORSDOF 1
ENDMDL
MODEL 7
REMARK VINA RESULT:      -5.3      2.628      3.581
REMARK  Name = 7245
REMARK  1 active torsions:
REMARK  status: ('A' for Active; 'I' for Inactive)
REMARK    1  A    between atoms: C_2  and  O_8
REMARK                            x       y       z     vdW  Elec       q    Type
REMARK                         _______ _______ _______ _____ _____    ______ ____
ROOT
ATOM      1 CL   UNL     1      33.765 -22.739 -18.643  0.00  0.00    -0.079 Cl
ATOM      2  C   UNL     1      33.840 -20.571 -20.283  0.00  0.00    +0.144 C 
ATOM      3  C   UNL     1      34.564 -21.483 -19.515  0.00  0.00    +0.091 C 
ATOM      4  C   UNL     1      34.506 -19.563 -20.980  0.00  0.00    +0.037 C 
ATOM      5  C   UNL     1      35.953 -21.389 -19.446  0.00  0.00    +0.014 C 
ATOM      6  C   UNL     1      35.897 -19.469 -20.911  0.00  0.00    +0.003 C 
ATOM      7  C   UNL     1      36.620 -20.382 -20.143  0.00  0.00    +0.001 C 
ENDROOT
BRANCH   2   8
ATOM      8  O   UNL     1      32.481 -20.639 -20.369  0.00  0.00    -0.505 OA
ATOM      9  H   UNL     1      32.053 -20.432 -21.177  0.00  0.00    +0.292 HD
ENDBRANCH   2   8
TORSDOF 1
ENDMDL
MODEL 8
REMARK VINA RESULT:      -5.2      3.283      4.407
REMARK  Name = 7245
REMARK  1 active torsions:
REMARK  status: ('A' for Active; 'I' for Inactive)
REMARK    1  A    between atoms: C_2  and  O_8
REMARK                            x       y       z     vdW  Elec       q    Type
REMARK                         _______ _______ _______ _____ _____    ______ ____
ROOT
ATOM      1 CL   UNL     1      35.058 -19.935 -20.864  0.00  0.00    -0.079 Cl
ATOM      2  C   UNL     1      35.124 -17.385 -21.805  0.00  0.00    +0.144 C 
ATOM      3  C   UNL     1      34.999 -18.741 -22.107  0.00  0.00    +0.091 C 
ATOM      4  C   UNL     1      35.073 -16.436 -22.827  0.00  0.00    +0.037 C 
ATOM      5  C   UNL     1      34.822 -19.148 -23.429  0.00  0.00    +0.014 C 
ATOM      6  C   UNL     1      34.897 -16.844 -24.150  0.00  0.00    +0.003 C 
ATOM      7  C   UNL     1      34.771 -18.199 -24.450  0.00  0.00    +0.001 C 
ENDROOT
BRANCH   2   8
ATOM      8  O   UNL     1      35.298 -16.958 -20.523  0.00  0.00    -0.505 OA
ATOM      9  H   UNL     1      35.851 -17.440 -19.940  0.00  0.00    +0.292 HD
ENDBRANCH   2   8
TORSDOF 1
ENDMDL
MODEL 9
REMARK VINA RESULT:      -5.2      3.612      4.266
REMARK  Name = 7245
REMARK  1 active torsions:
REMARK  status: ('A' for Active; 'I' for Inactive)
REMARK    1  A    between atoms: C_2  and  O_8
REMARK                            x       y       z     vdW  Elec       q    Type
REMARK                         _______ _______ _______ _____ _____    ______ ____
ROOT
ATOM      1 CL   UNL     1      34.553 -14.632 -22.735  0.00  0.00    -0.079 Cl
ATOM      2  C   UNL     1      34.993 -16.915 -21.322  0.00  0.00    +0.144 C 
ATOM      3  C   UNL     1      34.790 -16.334 -22.574  0.00  0.00    +0.091 C 
ATOM      4  C   UNL     1      35.182 -18.293 -21.216  0.00  0.00    +0.037 C 
ATOM      5  C   UNL     1      34.778 -17.130 -23.719  0.00  0.00    +0.014 C 
ATOM      6  C   UNL     1      35.170 -19.090 -22.361  0.00  0.00    +0.003 C 
ATOM      7  C   UNL     1      34.967 -18.508 -23.612  0.00  0.00    +0.001 C 
ENDROOT
BRANCH   2   8
ATOM      8  O   UNL     1      35.010 -16.161 -20.187  0.00  0.00    -0.505 OA
ATOM      9  H   UNL     1      34.435 -16.370 -19.478  0.00  0.00    +0.292 HD
ENDBRANCH   2   8
TORSDOF 1
ENDMDL
