MODEL 1
REMARK VINA RESULT:      -9.0      0.000      0.000
REMARK  Name = 11290116
REMARK  6 active torsions:
REMARK  status: ('A' for Active; 'I' for Inactive)
REMARK    1  A    between atoms: N_1  and  C_18
REMARK    2  A    between atoms: C_2  and  C_6
REMARK    3  A    between atoms: C_3  and  C_12
REMARK    4  A    between atoms: C_18  and  C_20
REMARK    5  A    between atoms: C_20  and  N_21
REMARK    6  A    between atoms: N_21  and  C_24
REMARK                            x       y       z     vdW  Elec       q    Type
REMARK                         _______ _______ _______ _____ _____    ______ ____
ROOT
ATOM      1  N   UNL     1      32.970 -10.111 -23.651  0.00  0.00    -0.278 N 
ATOM      2  C   UNL     1      33.418  -8.827 -23.541  0.00  0.00    +0.052 C 
ATOM      3  C   UNL     1      33.923 -10.897 -24.232  0.00  0.00    +0.052 C 
ATOM      4  C   UNL     1      34.691  -8.786 -24.066  0.00  0.00    +0.016 C 
ATOM      5  C   UNL     1      35.011 -10.095 -24.503  0.00  0.00    +0.016 C 
ENDROOT
BRANCH   2   6
ATOM      6  C   UNL     1      32.637  -7.754 -22.965  0.00  0.00    +0.014 C 
ATOM      7  C   UNL     1      31.606  -7.173 -23.701  0.00  0.00    +0.001 C 
ATOM      8  C   UNL     1      32.922  -7.303 -21.679  0.00  0.00    +0.001 C 
ATOM      9  C   UNL     1      30.854  -6.138 -23.146  0.00  0.00    +0.000 C 
ATOM     10  C   UNL     1      32.170  -6.267 -21.124  0.00  0.00    +0.000 C 
ATOM     11  C   UNL     1      31.136  -5.685 -21.857  0.00  0.00    +0.000 C 
ENDBRANCH   2   6
BRANCH   3  12
ATOM     12  C   UNL     1      33.751 -12.309 -24.487  0.00  0.00    +0.014 C 
ATOM     13  C   UNL     1      34.062 -13.237 -23.496  0.00  0.00    +0.001 C 
ATOM     14  C   UNL     1      33.275 -12.737 -25.725  0.00  0.00    +0.001 C 
ATOM     15  C   UNL     1      33.896 -14.600 -23.743  0.00  0.00    +0.000 C 
ATOM     16  C   UNL     1      33.109 -14.100 -25.973  0.00  0.00    +0.000 C 
ATOM     17  C   UNL     1      33.420 -15.031 -24.982  0.00  0.00    +0.000 C 
ENDBRANCH   3  12
BRANCH   1  18
ATOM     18  C   UNL     1      31.660 -10.580 -23.209  0.00  0.00    +0.183 C 
BRANCH  18  20
ATOM     19  O   UNL     1      31.948 -12.248 -21.495  0.00  0.00    -0.271 OA
ATOM     20  C   UNL     1      31.669 -11.087 -21.782  0.00  0.00    +0.268 C 
BRANCH  20  21
ATOM     21  N   UNL     1      31.280 -10.116 -20.887  0.00  0.00    -0.146 NA
BRANCH  21  24
ATOM     22  N   UNL     1      32.623  -9.360 -19.139  0.00  0.00    -0.372 N 
ATOM     23  N   UNL     1      31.238 -11.119 -18.699  0.00  0.00    -0.372 N 
ATOM     24  C   UNL     1      31.669 -10.213 -19.642  0.00  0.00    +0.184 C 
ATOM     25  H   UNL     1      33.013  -8.664 -19.715  0.00  0.00    +0.159 HD
ATOM     26  H   UNL     1      32.916  -9.446 -18.204  0.00  0.00    +0.159 HD
ATOM     27  H   UNL     1      30.554 -11.787 -18.934  0.00  0.00    +0.159 HD
ATOM     28  H   UNL     1      31.615 -11.099 -17.789  0.00  0.00    +0.159 HD
ENDBRANCH  21  24
ENDBRANCH  20  21
ENDBRANCH  18  20
ENDBRANCH   1  18
TORSDOF 6
ENDMDL
MODEL 2
REMARK VINA RESULT:      -9.0      0.016      5.697
REMARK  Name = 11290116
REMARK  6 active torsions:
REMARK  status: ('A' for Active; 'I' for Inactive)
REMARK    1  A    between atoms: N_1  and  C_18
REMARK    2  A    between atoms: C_2  and  C_6
REMARK    3  A    between atoms: C_3  and  C_12
REMARK    4  A    between atoms: C_18  and  C_20
REMARK    5  A    between atoms: C_20  and  N_21
REMARK    6  A    between atoms: N_21  and  C_24
REMARK                            x       y       z     vdW  Elec       q    Type
REMARK                         _______ _______ _______ _____ _____    ______ ____
ROOT
ATOM      1  N   UNL     1      32.967 -10.107 -23.646  0.00  0.00    -0.278 N 
ATOM      2  C   UNL     1      33.922 -10.888 -24.229  0.00  0.00    +0.052 C 
ATOM      3  C   UNL     1      33.411  -8.821 -23.533  0.00  0.00    +0.052 C 
ATOM      4  C   UNL     1      35.007 -10.084 -24.498  0.00  0.00    +0.016 C 
ATOM      5  C   UNL     1      34.685  -8.776 -24.058  0.00  0.00    +0.016 C 
ENDROOT
BRANCH   2   6
ATOM      6  C   UNL     1      33.752 -12.301 -24.488  0.00  0.00    +0.014 C 
ATOM      7  C   UNL     1      34.073 -13.231 -23.501  0.00  0.00    +0.001 C 
ATOM      8  C   UNL     1      33.269 -12.726 -25.723  0.00  0.00    +0.001 C 
ATOM      9  C   UNL     1      33.910 -14.593 -23.750  0.00  0.00    +0.000 C 
ATOM     10  C   UNL     1      33.107 -14.089 -25.973  0.00  0.00    +0.000 C 
ATOM     11  C   UNL     1      33.427 -15.022 -24.986  0.00  0.00    +0.000 C 
ENDBRANCH   2   6
BRANCH   3  12
ATOM     12  C   UNL     1      32.630  -7.751 -22.955  0.00  0.00    +0.014 C 
ATOM     13  C   UNL     1      31.606  -7.162 -23.692  0.00  0.00    +0.001 C 
ATOM     14  C   UNL     1      32.906  -7.313 -21.661  0.00  0.00    +0.001 C 
ATOM     15  C   UNL     1      30.853  -6.129 -23.133  0.00  0.00    +0.000 C 
ATOM     16  C   UNL     1      32.153  -6.280 -21.102  0.00  0.00    +0.000 C 
ATOM     17  C   UNL     1      31.127  -5.688 -21.837  0.00  0.00    +0.000 C 
ENDBRANCH   3  12
BRANCH   1  18
ATOM     18  C   UNL     1      31.657 -10.578 -23.205  0.00  0.00    +0.183 C 
BRANCH  18  20
ATOM     19  O   UNL     1      31.954 -12.257 -21.502  0.00  0.00    -0.271 OA
ATOM     20  C   UNL     1      31.669 -11.095 -21.782  0.00  0.00    +0.268 C 
BRANCH  20  21
ATOM     21  N   UNL     1      31.276 -10.132 -20.879  0.00  0.00    -0.146 NA
BRANCH  21  24
ATOM     22  N   UNL     1      32.632  -9.387 -19.138  0.00  0.00    -0.372 N 
ATOM     23  N   UNL     1      31.239 -11.137 -18.692  0.00  0.00    -0.372 N 
ATOM     24  C   UNL     1      31.670 -10.233 -19.637  0.00  0.00    +0.184 C 
ATOM     25  H   UNL     1      33.023  -8.692 -19.716  0.00  0.00    +0.159 HD
ATOM     26  H   UNL     1      32.929  -9.475 -18.204  0.00  0.00    +0.159 HD
ATOM     27  H   UNL     1      30.549 -11.800 -18.925  0.00  0.00    +0.159 HD
ATOM     28  H   UNL     1      31.620 -11.121 -17.785  0.00  0.00    +0.159 HD
ENDBRANCH  21  24
ENDBRANCH  20  21
ENDBRANCH  18  20
ENDBRANCH   1  18
TORSDOF 6
ENDMDL
MODEL 3
REMARK VINA RESULT:      -8.7      2.626      6.061
REMARK  Name = 11290116
REMARK  6 active torsions:
REMARK  status: ('A' for Active; 'I' for Inactive)
REMARK    1  A    between atoms: N_1  and  C_18
REMARK    2  A    between atoms: C_2  and  C_6
REMARK    3  A    between atoms: C_3  and  C_12
REMARK    4  A    between atoms: C_18  and  C_20
REMARK    5  A    between atoms: C_20  and  N_21
REMARK    6  A    between atoms: N_21  and  C_24
REMARK                            x       y       z     vdW  Elec       q    Type
REMARK                         _______ _______ _______ _____ _____    ______ ____
ROOT
ATOM      1  N   UNL     1      32.342  -7.619 -23.010  0.00  0.00    -0.278 N 
ATOM      2  C   UNL     1      31.941  -7.799 -21.718  0.00  0.00    +0.052 C 
ATOM      3  C   UNL     1      32.420  -6.287 -23.300  0.00  0.00    +0.052 C 
ATOM      4  C   UNL     1      31.757  -6.552 -21.164  0.00  0.00    +0.016 C 
ATOM      5  C   UNL     1      32.060  -5.595 -22.164  0.00  0.00    +0.016 C 
ENDROOT
BRANCH   2   6
ATOM      6  C   UNL     1      31.764  -9.099 -21.110  0.00  0.00    +0.014 C 
ATOM      7  C   UNL     1      31.217 -10.144 -21.851  0.00  0.00    +0.001 C 
ATOM      8  C   UNL     1      32.139  -9.300 -19.783  0.00  0.00    +0.001 C 
ATOM      9  C   UNL     1      31.046 -11.397 -21.264  0.00  0.00    +0.000 C 
ATOM     10  C   UNL     1      31.967 -10.554 -19.196  0.00  0.00    +0.000 C 
ATOM     11  C   UNL     1      31.420 -11.602 -19.936  0.00  0.00    +0.000 C 
ENDBRANCH   2   6
BRANCH   3  12
ATOM     12  C   UNL     1      32.816  -5.770 -24.590  0.00  0.00    +0.014 C 
ATOM     13  C   UNL     1      34.065  -6.093 -25.115  0.00  0.00    +0.001 C 
ATOM     14  C   UNL     1      31.946  -4.948 -25.304  0.00  0.00    +0.001 C 
ATOM     15  C   UNL     1      34.446  -5.593 -26.360  0.00  0.00    +0.000 C 
ATOM     16  C   UNL     1      32.328  -4.447 -26.549  0.00  0.00    +0.000 C 
ATOM     17  C   UNL     1      33.578  -4.770 -27.077  0.00  0.00    +0.000 C 
ENDBRANCH   3  12
BRANCH   1  18
ATOM     18  C   UNL     1      32.644  -8.695 -23.949  0.00  0.00    +0.183 C 
BRANCH  18  20
ATOM     19  O   UNL     1      34.991  -8.602 -23.411  0.00  0.00    -0.271 OA
ATOM     20  C   UNL     1      34.025  -9.283 -23.742  0.00  0.00    +0.268 C 
BRANCH  20  21
ATOM     21  N   UNL     1      34.058 -10.631 -24.021  0.00  0.00    -0.146 NA
BRANCH  21  24
ATOM     22  N   UNL     1      35.596 -10.497 -25.765  0.00  0.00    -0.372 N 
ATOM     23  N   UNL     1      33.847 -11.937 -26.032  0.00  0.00    -0.372 N 
ATOM     24  C   UNL     1      34.456 -11.021 -25.204  0.00  0.00    +0.184 C 
ATOM     25  H   UNL     1      36.125  -9.829 -25.273  0.00  0.00    +0.159 HD
ATOM     26  H   UNL     1      35.884 -10.790 -26.660  0.00  0.00    +0.159 HD
ATOM     27  H   UNL     1      33.019 -12.385 -25.745  0.00  0.00    +0.159 HD
ATOM     28  H   UNL     1      34.239 -12.143 -26.911  0.00  0.00    +0.159 HD
ENDBRANCH  21  24
ENDBRANCH  20  21
ENDBRANCH  18  20
ENDBRANCH   1  18
TORSDOF 6
ENDMDL
MODEL 4
REMARK VINA RESULT:      -8.7      2.629      5.213
REMARK  Name = 11290116
REMARK  6 active torsions:
REMARK  status: ('A' for Active; 'I' for Inactive)
REMARK    1  A    between atoms: N_1  and  C_18
REMARK    2  A    between atoms: C_2  and  C_6
REMARK    3  A    between atoms: C_3  and  C_12
REMARK    4  A    between atoms: C_18  and  C_20
REMARK    5  A    between atoms: C_20  and  N_21
REMARK    6  A    between atoms: N_21  and  C_24
REMARK                            x       y       z     vdW  Elec       q    Type
REMARK                         _______ _______ _______ _____ _____    ______ ____
ROOT
ATOM      1  N   UNL     1      32.333  -7.620 -23.011  0.00  0.00    -0.278 N 
ATOM      2  C   UNL     1      32.408  -6.288 -23.302  0.00  0.00    +0.052 C 
ATOM      3  C   UNL     1      31.928  -7.800 -21.720  0.00  0.00    +0.052 C 
ATOM      4  C   UNL     1      32.043  -5.596 -22.168  0.00  0.00    +0.016 C 
ATOM      5  C   UNL     1      31.740  -6.552 -21.167  0.00  0.00    +0.016 C 
ENDROOT
BRANCH   2   6
ATOM      6  C   UNL     1      32.808  -5.773 -24.593  0.00  0.00    +0.014 C 
ATOM      7  C   UNL     1      34.055  -6.106 -25.117  0.00  0.00    +0.001 C 
ATOM      8  C   UNL     1      31.945  -4.944 -25.305  0.00  0.00    +0.001 C 
ATOM      9  C   UNL     1      34.441  -5.607 -26.361  0.00  0.00    +0.000 C 
ATOM     10  C   UNL     1      32.331  -4.445 -26.549  0.00  0.00    +0.000 C 
ATOM     11  C   UNL     1      33.579  -4.777 -27.077  0.00  0.00    +0.000 C 
ENDBRANCH   2   6
BRANCH   3  12
ATOM     12  C   UNL     1      31.752  -9.099 -21.110  0.00  0.00    +0.014 C 
ATOM     13  C   UNL     1      31.206 -10.146 -21.848  0.00  0.00    +0.001 C 
ATOM     14  C   UNL     1      32.129  -9.298 -19.783  0.00  0.00    +0.001 C 
ATOM     15  C   UNL     1      31.036 -11.398 -21.258  0.00  0.00    +0.000 C 
ATOM     16  C   UNL     1      31.959 -10.550 -19.192  0.00  0.00    +0.000 C 
ATOM     17  C   UNL     1      31.413 -11.600 -19.930  0.00  0.00    +0.000 C 
ENDBRANCH   3  12
BRANCH   1  18
ATOM     18  C   UNL     1      32.639  -8.698 -23.947  0.00  0.00    +0.183 C 
BRANCH  18  20
ATOM     19  O   UNL     1      34.988  -8.584 -23.419  0.00  0.00    -0.271 OA
ATOM     20  C   UNL     1      34.025  -9.274 -23.743  0.00  0.00    +0.268 C 
BRANCH  20  21
ATOM     21  N   UNL     1      34.068 -10.623 -24.016  0.00  0.00    -0.146 NA
BRANCH  21  24
ATOM     22  N   UNL     1      35.618 -10.491 -25.750  0.00  0.00    -0.372 N 
ATOM     23  N   UNL     1      33.874 -11.936 -26.024  0.00  0.00    -0.372 N 
ATOM     24  C   UNL     1      34.475 -11.016 -25.195  0.00  0.00    +0.184 C 
ATOM     25  H   UNL     1      36.141  -9.821 -25.256  0.00  0.00    +0.159 HD
ATOM     26  H   UNL     1      35.912 -10.786 -26.641  0.00  0.00    +0.159 HD
ATOM     27  H   UNL     1      33.045 -12.386 -25.742  0.00  0.00    +0.159 HD
ATOM     28  H   UNL     1      34.273 -12.144 -26.900  0.00  0.00    +0.159 HD
ENDBRANCH  21  24
ENDBRANCH  20  21
ENDBRANCH  18  20
ENDBRANCH   1  18
TORSDOF 6
ENDMDL
MODEL 5
REMARK VINA RESULT:      -8.4     13.682     16.763
REMARK  Name = 11290116
REMARK  6 active torsions:
REMARK  status: ('A' for Active; 'I' for Inactive)
REMARK    1  A    between atoms: N_1  and  C_18
REMARK    2  A    between atoms: C_2  and  C_6
REMARK    3  A    between atoms: C_3  and  C_12
REMARK    4  A    between atoms: C_18  and  C_20
REMARK    5  A    between atoms: C_20  and  N_21
REMARK    6  A    between atoms: N_21  and  C_24
REMARK                            x       y       z     vdW  Elec       q    Type
REMARK                         _______ _______ _______ _____ _____    ______ ____
ROOT
ATOM      1  N   UNL     1      35.102 -24.430 -14.086  0.00  0.00    -0.278 N 
ATOM      2  C   UNL     1      34.030 -24.133 -13.297  0.00  0.00    +0.052 C 
ATOM      3  C   UNL     1      36.248 -24.441 -13.344  0.00  0.00    +0.052 C 
ATOM      4  C   UNL     1      34.497 -23.948 -12.015  0.00  0.00    +0.016 C 
ATOM      5  C   UNL     1      35.901 -24.143 -12.043  0.00  0.00    +0.016 C 
ENDROOT
BRANCH   2   6
ATOM      6  C   UNL     1      32.673 -24.046 -13.791  0.00  0.00    +0.014 C 
ATOM      7  C   UNL     1      32.183 -22.831 -14.264  0.00  0.00    +0.001 C 
ATOM      8  C   UNL     1      31.861 -25.178 -13.788  0.00  0.00    +0.001 C 
ATOM      9  C   UNL     1      30.875 -22.747 -14.739  0.00  0.00    +0.000 C 
ATOM     10  C   UNL     1      30.552 -25.094 -14.263  0.00  0.00    +0.000 C 
ATOM     11  C   UNL     1      30.059 -23.879 -14.738  0.00  0.00    +0.000 C 
ENDBRANCH   2   6
BRANCH   3  12
ATOM     12  C   UNL     1      37.556 -24.722 -13.892  0.00  0.00    +0.014 C 
ATOM     13  C   UNL     1      38.041 -23.964 -14.955  0.00  0.00    +0.001 C 
ATOM     14  C   UNL     1      38.326 -25.751 -13.354  0.00  0.00    +0.001 C 
ATOM     15  C   UNL     1      39.303 -24.237 -15.483  0.00  0.00    +0.000 C 
ATOM     16  C   UNL     1      39.588 -26.024 -13.883  0.00  0.00    +0.000 C 
ATOM     17  C   UNL     1      40.076 -25.267 -14.947  0.00  0.00    +0.000 C 
ENDBRANCH   3  12
BRANCH   1  18
ATOM     18  C   UNL     1      35.036 -24.698 -15.520  0.00  0.00    +0.183 C 
BRANCH  18  20
ATOM     19  O   UNL     1      35.367 -22.373 -16.059  0.00  0.00    -0.271 OA
ATOM     20  C   UNL     1      34.834 -23.442 -16.342  0.00  0.00    +0.268 C 
BRANCH  20  21
ATOM     21  N   UNL     1      33.956 -23.643 -17.383  0.00  0.00    -0.146 NA
BRANCH  21  24
ATOM     22  N   UNL     1      34.930 -22.183 -18.914  0.00  0.00    -0.372 N 
ATOM     23  N   UNL     1      32.657 -22.125 -18.726  0.00  0.00    -0.372 N 
ATOM     24  C   UNL     1      33.825 -22.708 -18.288  0.00  0.00    +0.184 C 
ATOM     25  H   UNL     1      35.828 -22.515 -18.689  0.00  0.00    +0.159 HD
ATOM     26  H   UNL     1      34.823 -21.473 -19.588  0.00  0.00    +0.159 HD
ATOM     27  H   UNL     1      31.793 -22.414 -18.354  0.00  0.00    +0.159 HD
ATOM     28  H   UNL     1      32.687 -21.418 -19.410  0.00  0.00    +0.159 HD
ENDBRANCH  21  24
ENDBRANCH  20  21
ENDBRANCH  18  20
ENDBRANCH   1  18
TORSDOF 6
ENDMDL
MODEL 6
REMARK VINA RESULT:      -8.4     13.683     17.092
REMARK  Name = 11290116
REMARK  6 active torsions:
REMARK  status: ('A' for Active; 'I' for Inactive)
REMARK    1  A    between atoms: N_1  and  C_18
REMARK    2  A    between atoms: C_2  and  C_6
REMARK    3  A    between atoms: C_3  and  C_12
REMARK    4  A    between atoms: C_18  and  C_20
REMARK    5  A    between atoms: C_20  and  N_21
REMARK    6  A    between atoms: N_21  and  C_24
REMARK                            x       y       z     vdW  Elec       q    Type
REMARK                         _______ _______ _______ _____ _____    ______ ____
ROOT
ATOM      1  N   UNL     1      35.106 -24.430 -14.082  0.00  0.00    -0.278 N 
ATOM      2  C   UNL     1      36.247 -24.447 -13.335  0.00  0.00    +0.052 C 
ATOM      3  C   UNL     1      34.030 -24.132 -13.297  0.00  0.00    +0.052 C 
ATOM      4  C   UNL     1      35.896 -24.152 -12.036  0.00  0.00    +0.016 C 
ATOM      5  C   UNL     1      34.494 -23.952 -12.011  0.00  0.00    +0.016 C 
ENDROOT
BRANCH   2   6
ATOM      6  C   UNL     1      37.556 -24.732 -13.881  0.00  0.00    +0.014 C 
ATOM      7  C   UNL     1      38.326 -25.760 -13.339  0.00  0.00    +0.001 C 
ATOM      8  C   UNL     1      38.043 -23.975 -14.944  0.00  0.00    +0.001 C 
ATOM      9  C   UNL     1      39.588 -26.033 -13.864  0.00  0.00    +0.000 C 
ATOM     10  C   UNL     1      39.306 -24.249 -15.469  0.00  0.00    +0.000 C 
ATOM     11  C   UNL     1      40.079 -25.278 -14.929  0.00  0.00    +0.000 C 
ENDBRANCH   2   6
BRANCH   3  12
ATOM     12  C   UNL     1      32.676 -24.039 -13.794  0.00  0.00    +0.014 C 
ATOM     13  C   UNL     1      32.188 -22.819 -14.259  0.00  0.00    +0.001 C 
ATOM     14  C   UNL     1      31.862 -25.170 -13.805  0.00  0.00    +0.001 C 
ATOM     15  C   UNL     1      30.882 -22.731 -14.738  0.00  0.00    +0.000 C 
ATOM     16  C   UNL     1      30.555 -25.081 -14.284  0.00  0.00    +0.000 C 
ATOM     17  C   UNL     1      30.064 -23.862 -14.750  0.00  0.00    +0.000 C 
ENDBRANCH   3  12
BRANCH   1  18
ATOM     18  C   UNL     1      35.042 -24.694 -15.517  0.00  0.00    +0.183 C 
BRANCH  18  20
ATOM     19  O   UNL     1      35.371 -22.366 -16.046  0.00  0.00    -0.271 OA
ATOM     20  C   UNL     1      34.842 -23.435 -16.335  0.00  0.00    +0.268 C 
BRANCH  20  21
ATOM     21  N   UNL     1      33.968 -23.634 -17.381  0.00  0.00    -0.146 NA
BRANCH  21  24
ATOM     22  N   UNL     1      34.961 -22.169 -18.896  0.00  0.00    -0.372 N 
ATOM     23  N   UNL     1      32.685 -22.124 -18.749  0.00  0.00    -0.372 N 
ATOM     24  C   UNL     1      33.848 -22.701 -18.289  0.00  0.00    +0.184 C 
ATOM     25  H   UNL     1      35.857 -22.497 -18.655  0.00  0.00    +0.159 HD
ATOM     26  H   UNL     1      34.862 -21.461 -19.572  0.00  0.00    +0.159 HD
ATOM     27  H   UNL     1      31.816 -22.418 -18.392  0.00  0.00    +0.159 HD
ATOM     28  H   UNL     1      32.723 -21.418 -19.434  0.00  0.00    +0.159 HD
ENDBRANCH  21  24
ENDBRANCH  20  21
ENDBRANCH  18  20
ENDBRANCH   1  18
TORSDOF 6
ENDMDL
MODEL 7
REMARK VINA RESULT:      -8.3      4.669      8.739
REMARK  Name = 11290116
REMARK  6 active torsions:
REMARK  status: ('A' for Active; 'I' for Inactive)
REMARK    1  A    between atoms: N_1  and  C_18
REMARK    2  A    between atoms: C_2  and  C_6
REMARK    3  A    between atoms: C_3  and  C_12
REMARK    4  A    between atoms: C_18  and  C_20
REMARK    5  A    between atoms: C_20  and  N_21
REMARK    6  A    between atoms: N_21  and  C_24
REMARK                            x       y       z     vdW  Elec       q    Type
REMARK                         _______ _______ _______ _____ _____    ______ ____
ROOT
ATOM      1  N   UNL     1      34.123 -17.563 -22.919  0.00  0.00    -0.278 N 
ATOM      2  C   UNL     1      34.565 -18.852 -22.841  0.00  0.00    +0.052 C 
ATOM      3  C   UNL     1      34.340 -17.063 -24.170  0.00  0.00    +0.052 C 
ATOM      4  C   UNL     1      35.079 -19.188 -24.073  0.00  0.00    +0.016 C 
ATOM      5  C   UNL     1      34.937 -18.057 -24.915  0.00  0.00    +0.016 C 
ENDROOT
BRANCH   2   6
ATOM      6  C   UNL     1      34.475 -19.657 -21.642  0.00  0.00    +0.014 C 
ATOM      7  C   UNL     1      33.228 -19.947 -21.093  0.00  0.00    +0.001 C 
ATOM      8  C   UNL     1      35.636 -20.136 -21.042  0.00  0.00    +0.001 C 
ATOM      9  C   UNL     1      33.142 -20.722 -19.937  0.00  0.00    +0.000 C 
ATOM     10  C   UNL     1      35.550 -20.912 -19.885  0.00  0.00    +0.000 C 
ATOM     11  C   UNL     1      34.303 -21.204 -19.332  0.00  0.00    +0.000 C 
ENDBRANCH   2   6
BRANCH   3  12
ATOM     12  C   UNL     1      33.982 -15.721 -24.570  0.00  0.00    +0.014 C 
ATOM     13  C   UNL     1      33.239 -15.516 -25.730  0.00  0.00    +0.001 C 
ATOM     14  C   UNL     1      34.382 -14.636 -23.793  0.00  0.00    +0.001 C 
ATOM     15  C   UNL     1      32.894 -14.221 -26.116  0.00  0.00    +0.000 C 
ATOM     16  C   UNL     1      34.038 -13.340 -24.179  0.00  0.00    +0.000 C 
ATOM     17  C   UNL     1      33.294 -13.132 -25.340  0.00  0.00    +0.000 C 
ENDBRANCH   3  12
BRANCH   1  18
ATOM     18  C   UNL     1      33.506 -16.823 -21.821  0.00  0.00    +0.183 C 
BRANCH  18  20
ATOM     19  O   UNL     1      35.432 -16.828 -20.374  0.00  0.00    -0.271 OA
ATOM     20  C   UNL     1      34.524 -16.189 -20.897  0.00  0.00    +0.268 C 
BRANCH  20  21
ATOM     21  N   UNL     1      34.265 -14.853 -20.685  0.00  0.00    -0.146 NA
BRANCH  21  24
ATOM     22  N   UNL     1      32.199 -15.176 -19.659  0.00  0.00    -0.372 N 
ATOM     23  N   UNL     1      32.390 -13.395 -21.072  0.00  0.00    -0.372 N 
ATOM     24  C   UNL     1      33.029 -14.471 -20.498  0.00  0.00    +0.184 C 
ATOM     25  H   UNL     1      32.536 -15.970 -19.187  0.00  0.00    +0.159 HD
ATOM     26  H   UNL     1      31.267 -14.886 -19.532  0.00  0.00    +0.159 HD
ATOM     27  H   UNL     1      32.877 -12.808 -21.695  0.00  0.00    +0.159 HD
ATOM     28  H   UNL     1      31.446 -13.212 -20.860  0.00  0.00    +0.159 HD
ENDBRANCH  21  24
ENDBRANCH  20  21
ENDBRANCH  18  20
ENDBRANCH   1  18
TORSDOF 6
ENDMDL
MODEL 8
REMARK VINA RESULT:      -8.2      4.233      6.964
REMARK  Name = 11290116
REMARK  6 active torsions:
REMARK  status: ('A' for Active; 'I' for Inactive)
REMARK    1  A    between atoms: N_1  and  C_18
REMARK    2  A    between atoms: C_2  and  C_6
REMARK    3  A    between atoms: C_3  and  C_12
REMARK    4  A    between atoms: C_18  and  C_20
REMARK    5  A    between atoms: C_20  and  N_21
REMARK    6  A    between atoms: N_21  and  C_24
REMARK                            x       y       z     vdW  Elec       q    Type
REMARK                         _______ _______ _______ _____ _____    ______ ____
ROOT
ATOM      1  N   UNL     1      34.456 -16.758 -23.601  0.00  0.00    -0.278 N 
ATOM      2  C   UNL     1      34.125 -16.379 -24.869  0.00  0.00    +0.052 C 
ATOM      3  C   UNL     1      34.661 -18.107 -23.549  0.00  0.00    +0.052 C 
ATOM      4  C   UNL     1      34.117 -17.511 -25.652  0.00  0.00    +0.016 C 
ATOM      5  C   UNL     1      34.456 -18.606 -24.818  0.00  0.00    +0.016 C 
ENDROOT
BRANCH   2   6
ATOM      6  C   UNL     1      33.846 -15.010 -25.247  0.00  0.00    +0.014 C 
ATOM      7  C   UNL     1      33.223 -14.739 -26.463  0.00  0.00    +0.001 C 
ATOM      8  C   UNL     1      34.205 -13.969 -24.394  0.00  0.00    +0.001 C 
ATOM      9  C   UNL     1      32.956 -13.420 -26.828  0.00  0.00    +0.000 C 
ATOM     10  C   UNL     1      33.938 -12.650 -24.759  0.00  0.00    +0.000 C 
ATOM     11  C   UNL     1      33.313 -12.375 -25.976  0.00  0.00    +0.000 C 
ENDBRANCH   2   6
BRANCH   3  12
ATOM     12  C   UNL     1      35.026 -18.817 -22.343  0.00  0.00    +0.014 C 
ATOM     13  C   UNL     1      34.074 -19.582 -21.673  0.00  0.00    +0.001 C 
ATOM     14  C   UNL     1      36.328 -18.732 -21.856  0.00  0.00    +0.001 C 
ATOM     15  C   UNL     1      34.427 -20.265 -20.510  0.00  0.00    +0.000 C 
ATOM     16  C   UNL     1      36.681 -19.416 -20.692  0.00  0.00    +0.000 C 
ATOM     17  C   UNL     1      35.730 -20.183 -20.019  0.00  0.00    +0.000 C 
ENDBRANCH   3  12
BRANCH   1  18
ATOM     18  C   UNL     1      34.575 -15.853 -22.461  0.00  0.00    +0.183 C 
BRANCH  18  20
ATOM     19  O   UNL     1      33.180 -16.554 -20.625  0.00  0.00    -0.271 OA
ATOM     20  C   UNL     1      33.327 -15.825 -21.603  0.00  0.00    +0.268 C 
BRANCH  20  21
ATOM     21  N   UNL     1      32.389 -14.941 -22.086  0.00  0.00    -0.146 NA
BRANCH  21  24
ATOM     22  N   UNL     1      32.664 -13.621 -20.186  0.00  0.00    -0.372 N 
ATOM     23  N   UNL     1      31.651 -12.651 -21.986  0.00  0.00    -0.372 N 
ATOM     24  C   UNL     1      32.234 -13.792 -21.481  0.00  0.00    +0.184 C 
ATOM     25  H   UNL     1      33.099 -14.364 -19.710  0.00  0.00    +0.159 HD
ATOM     26  H   UNL     1      32.536 -12.755 -19.735  0.00  0.00    +0.159 HD
ATOM     27  H   UNL     1      31.301 -12.644 -22.906  0.00  0.00    +0.159 HD
ATOM     28  H   UNL     1      31.584 -11.844 -21.427  0.00  0.00    +0.159 HD
ENDBRANCH  21  24
ENDBRANCH  20  21
ENDBRANCH  18  20
ENDBRANCH   1  18
TORSDOF 6
ENDMDL
MODEL 9
REMARK VINA RESULT:      -8.2      4.208      8.129
REMARK  Name = 11290116
REMARK  6 active torsions:
REMARK  status: ('A' for Active; 'I' for Inactive)
REMARK    1  A    between atoms: N_1  and  C_18
REMARK    2  A    between atoms: C_2  and  C_6
REMARK    3  A    between atoms: C_3  and  C_12
REMARK    4  A    between atoms: C_18  and  C_20
REMARK    5  A    between atoms: C_20  and  N_21
REMARK    6  A    between atoms: N_21  and  C_24
REMARK                            x       y       z     vdW  Elec       q    Type
REMARK                         _______ _______ _______ _____ _____    ______ ____
ROOT
ATOM      1  N   UNL     1      34.461 -16.707 -23.628  0.00  0.00    -0.278 N 
ATOM      2  C   UNL     1      34.644 -18.059 -23.577  0.00  0.00    +0.052 C 
ATOM      3  C   UNL     1      34.119 -16.323 -24.892  0.00  0.00    +0.052 C 
ATOM      4  C   UNL     1      34.414 -18.555 -24.841  0.00  0.00    +0.016 C 
ATOM      5  C   UNL     1      34.081 -17.458 -25.673  0.00  0.00    +0.016 C 
ENDROOT
BRANCH   2   6
ATOM      6  C   UNL     1      35.014 -18.771 -22.374  0.00  0.00    +0.014 C 
ATOM      7  C   UNL     1      36.315 -18.678 -21.884  0.00  0.00    +0.001 C 
ATOM      8  C   UNL     1      34.067 -19.549 -21.711  0.00  0.00    +0.001 C 
ATOM      9  C   UNL     1      36.671 -19.366 -20.724  0.00  0.00    +0.000 C 
ATOM     10  C   UNL     1      34.424 -20.238 -20.552  0.00  0.00    +0.000 C 
ATOM     11  C   UNL     1      35.726 -20.147 -20.058  0.00  0.00    +0.000 C 
ENDBRANCH   2   6
BRANCH   3  12
ATOM     12  C   UNL     1      33.857 -14.952 -25.270  0.00  0.00    +0.014 C 
ATOM     13  C   UNL     1      34.183 -13.917 -24.397  0.00  0.00    +0.001 C 
ATOM     14  C   UNL     1      33.280 -14.673 -26.507  0.00  0.00    +0.001 C 
ATOM     15  C   UNL     1      33.930 -12.595 -24.762  0.00  0.00    +0.000 C 
ATOM     16  C   UNL     1      33.027 -13.350 -26.873  0.00  0.00    +0.000 C 
ATOM     17  C   UNL     1      33.352 -12.311 -26.001  0.00  0.00    +0.000 C 
ENDBRANCH   3  12
BRANCH   1  18
ATOM     18  C   UNL     1      34.609 -15.801 -22.493  0.00  0.00    +0.183 C 
BRANCH  18  20
ATOM     19  O   UNL     1      33.308 -16.484 -20.583  0.00  0.00    -0.271 OA
ATOM     20  C   UNL     1      33.393 -15.787 -21.591  0.00  0.00    +0.268 C 
BRANCH  20  21
ATOM     21  N   UNL     1      32.405 -14.956 -22.070  0.00  0.00    -0.146 NA
BRANCH  21  24
ATOM     22  N   UNL     1      32.649 -13.572 -20.212  0.00  0.00    -0.372 N 
ATOM     23  N   UNL     1      31.633 -12.676 -22.048  0.00  0.00    -0.372 N 
ATOM     24  C   UNL     1      32.230 -13.791 -21.503  0.00  0.00    +0.184 C 
ATOM     25  H   UNL     1      33.093 -14.293 -19.710  0.00  0.00    +0.159 HD
ATOM     26  H   UNL     1      32.506 -12.695 -19.790  0.00  0.00    +0.159 HD
ATOM     27  H   UNL     1      31.288 -12.703 -22.969  0.00  0.00    +0.159 HD
ATOM     28  H   UNL     1      31.551 -11.853 -21.515  0.00  0.00    +0.159 HD
ENDBRANCH  21  24
ENDBRANCH  20  21
ENDBRANCH  18  20
ENDBRANCH   1  18
TORSDOF 6
ENDMDL
