MODEL 1
REMARK VINA RESULT:      -7.4      0.000      0.000
REMARK  Name = 10013505
REMARK  1 active torsions:
REMARK  status: ('A' for Active; 'I' for Inactive)
REMARK    1  A    between atoms: C_10  and  C_15
REMARK                            x       y       z     vdW  Elec       q    Type
REMARK                         _______ _______ _______ _____ _____    ______ ____
ROOT
ATOM      1  S   UNL     1      36.185 -19.268 -20.803  0.00  0.00    -0.115 S 
ATOM      2  O   UNL     1      32.551 -20.553 -20.736  0.00  0.00    -0.274 OA
ATOM      3  N   UNL     1      33.713 -18.646 -21.329  0.00  0.00    -0.299 N 
ATOM      4  N   UNL     1      34.748 -15.541 -23.012  0.00  0.00    +0.386 N 
ATOM      5  C   UNL     1      35.028 -18.073 -21.554  0.00  0.00    +0.092 C 
ATOM      6  C   UNL     1      35.167 -16.710 -20.867  0.00  0.00    +0.006 C 
ATOM      7  C   UNL     1      35.321 -17.950 -23.055  0.00  0.00    +0.006 C 
ATOM      8  C   UNL     1      34.369 -15.620 -21.595  0.00  0.00    -0.075 C 
ATOM      9  C   UNL     1      34.511 -16.818 -23.699  0.00  0.00    -0.075 C 
ATOM     10  C   UNL     1      34.969 -20.611 -20.740  0.00  0.00    +0.125 C 
ATOM     11  C   UNL     1      33.611 -19.963 -20.918  0.00  0.00    +0.233 C 
ATOM     12  C   UNL     1      34.018 -14.461 -23.676  0.00  0.00    -0.101 C 
ATOM     13  H   UNL     1      32.904 -18.105 -21.471  0.00  0.00    +0.150 HD
ATOM     14  H   UNL     1      35.746 -15.339 -23.060  0.00  0.00    -0.080 HD
ENDROOT
BRANCH  10  15
ATOM     15  C   UNL     1      35.063 -21.364 -19.425  0.00  0.00    +0.020 C 
ATOM     16  C   UNL     1      36.495 -21.438 -18.922  0.00  0.00    +0.001 C 
ENDBRANCH  10  15
TORSDOF 1
ENDMDL
MODEL 2
REMARK VINA RESULT:      -7.3      2.310      5.378
REMARK  Name = 10013505
REMARK  1 active torsions:
REMARK  status: ('A' for Active; 'I' for Inactive)
REMARK    1  A    between atoms: C_10  and  C_15
REMARK                            x       y       z     vdW  Elec       q    Type
REMARK                         _______ _______ _______ _____ _____    ______ ____
ROOT
ATOM      1  S   UNL     1      34.928 -17.722 -23.378  0.00  0.00    -0.115 S 
ATOM      2  O   UNL     1      34.685 -15.095 -20.567  0.00  0.00    -0.274 OA
ATOM      3  N   UNL     1      34.945 -17.379 -20.798  0.00  0.00    -0.299 N 
ATOM      4  N   UNL     1      35.939 -20.878 -20.238  0.00  0.00    +0.386 N 
ATOM      5  C   UNL     1      35.199 -18.462 -21.732  0.00  0.00    +0.092 C 
ATOM      6  C   UNL     1      34.224 -19.625 -21.516  0.00  0.00    +0.006 C 
ATOM      7  C   UNL     1      36.650 -18.949 -21.621  0.00  0.00    +0.006 C 
ATOM      8  C   UNL     1      34.547 -20.410 -20.238  0.00  0.00    -0.075 C 
ATOM      9  C   UNL     1      36.880 -19.754 -20.335  0.00  0.00    -0.075 C 
ATOM     10  C   UNL     1      35.032 -16.015 -22.777  0.00  0.00    +0.125 C 
ATOM     11  C   UNL     1      34.859 -16.083 -21.273  0.00  0.00    +0.233 C 
ATOM     12  C   UNL     1      36.213 -21.671 -19.040  0.00  0.00    -0.101 C 
ATOM     13  H   UNL     1      34.837 -17.565 -19.838  0.00  0.00    +0.150 HD
ATOM     14  H   UNL     1      36.072 -21.469 -21.059  0.00  0.00    -0.080 HD
ENDROOT
BRANCH  10  15
ATOM     15  C   UNL     1      33.967 -15.148 -23.426  0.00  0.00    +0.020 C 
ATOM     16  C   UNL     1      33.706 -15.562 -24.864  0.00  0.00    +0.001 C 
ENDBRANCH  10  15
TORSDOF 1
ENDMDL
MODEL 3
REMARK VINA RESULT:      -7.2      8.463      9.765
REMARK  Name = 10013505
REMARK  1 active torsions:
REMARK  status: ('A' for Active; 'I' for Inactive)
REMARK    1  A    between atoms: C_10  and  C_15
REMARK                            x       y       z     vdW  Elec       q    Type
REMARK                         _______ _______ _______ _____ _____    ______ ____
ROOT
ATOM      1  S   UNL     1      36.947 -23.691 -13.650  0.00  0.00    -0.115 S 
ATOM      2  O   UNL     1      37.223 -27.053 -15.517  0.00  0.00    -0.274 OA
ATOM      3  N   UNL     1      35.607 -25.502 -14.954  0.00  0.00    -0.299 N 
ATOM      4  N   UNL     1      32.601 -23.378 -15.010  0.00  0.00    +0.386 N 
ATOM      5  C   UNL     1      35.363 -24.175 -14.416  0.00  0.00    +0.092 C 
ATOM      6  C   UNL     1      34.256 -24.197 -13.356  0.00  0.00    +0.006 C 
ATOM      7  C   UNL     1      35.014 -23.187 -15.537  0.00  0.00    +0.006 C 
ATOM      8  C   UNL     1      32.870 -24.394 -13.983  0.00  0.00    -0.075 C 
ATOM      9  C   UNL     1      33.601 -23.429 -16.084  0.00  0.00    -0.075 C 
ATOM     10  C   UNL     1      37.909 -24.960 -14.517  0.00  0.00    +0.125 C 
ATOM     11  C   UNL     1      36.906 -25.966 -15.045  0.00  0.00    +0.233 C 
ATOM     12  C   UNL     1      31.255 -23.548 -15.556  0.00  0.00    -0.101 C 
ATOM     13  H   UNL     1      34.855 -26.063 -15.251  0.00  0.00    +0.150 HD
ATOM     14  H   UNL     1      32.662 -22.461 -14.568  0.00  0.00    -0.080 HD
ENDROOT
BRANCH  10  15
ATOM     15  C   UNL     1      38.916 -25.608 -13.584  0.00  0.00    +0.020 C 
ATOM     16  C   UNL     1      40.279 -25.748 -14.240  0.00  0.00    +0.001 C 
ENDBRANCH  10  15
TORSDOF 1
ENDMDL
MODEL 4
REMARK VINA RESULT:      -6.8      2.406      5.369
REMARK  Name = 10013505
REMARK  1 active torsions:
REMARK  status: ('A' for Active; 'I' for Inactive)
REMARK    1  A    between atoms: C_10  and  C_15
REMARK                            x       y       z     vdW  Elec       q    Type
REMARK                         _______ _______ _______ _____ _____    ______ ____
ROOT
ATOM      1  S   UNL     1      34.801 -17.020 -22.188  0.00  0.00    -0.115 S 
ATOM      2  O   UNL     1      34.512 -19.368 -25.232  0.00  0.00    -0.274 OA
ATOM      3  N   UNL     1      35.007 -19.491 -22.979  0.00  0.00    -0.299 N 
ATOM      4  N   UNL     1      35.331 -20.680 -19.511  0.00  0.00    +0.386 N 
ATOM      5  C   UNL     1      35.013 -18.771 -21.718  0.00  0.00    +0.092 C 
ATOM      6  C   UNL     1      36.342 -18.955 -20.976  0.00  0.00    +0.006 C 
ATOM      7  C   UNL     1      33.838 -19.210 -20.833  0.00  0.00    +0.006 C 
ATOM      8  C   UNL     1      36.472 -20.362 -20.379  0.00  0.00    -0.075 C 
ATOM      9  C   UNL     1      34.063 -20.610 -20.249  0.00  0.00    -0.075 C 
ATOM     10  C   UNL     1      34.209 -17.400 -23.858  0.00  0.00    +0.125 C 
ATOM     11  C   UNL     1      34.590 -18.842 -24.127  0.00  0.00    +0.233 C 
ATOM     12  C   UNL     1      35.499 -22.001 -18.907  0.00  0.00    -0.101 C 
ATOM     13  H   UNL     1      35.296 -20.431 -23.016  0.00  0.00    +0.150 HD
ATOM     14  H   UNL     1      35.299 -19.982 -18.767  0.00  0.00    -0.080 HD
ENDROOT
BRANCH  10  15
ATOM     15  C   UNL     1      34.825 -16.459 -24.878  0.00  0.00    +0.020 C 
ATOM     16  C   UNL     1      33.761 -15.712 -25.666  0.00  0.00    +0.001 C 
ENDBRANCH  10  15
TORSDOF 1
ENDMDL
MODEL 5
REMARK VINA RESULT:      -6.7      4.505      6.103
REMARK  Name = 10013505
REMARK  1 active torsions:
REMARK  status: ('A' for Active; 'I' for Inactive)
REMARK    1  A    between atoms: C_10  and  C_15
REMARK                            x       y       z     vdW  Elec       q    Type
REMARK                         _______ _______ _______ _____ _____    ______ ____
ROOT
ATOM      1  S   UNL     1      33.080 -14.517 -25.408  0.00  0.00    -0.115 S 
ATOM      2  O   UNL     1      35.428 -15.704 -22.589  0.00  0.00    -0.274 OA
ATOM      3  N   UNL     1      34.361 -13.770 -23.268  0.00  0.00    -0.299 N 
ATOM      4  N   UNL     1      32.654 -10.510 -23.263  0.00  0.00    +0.386 N 
ATOM      5  C   UNL     1      33.370 -13.209 -24.169  0.00  0.00    +0.092 C 
ATOM      6  C   UNL     1      33.895 -11.944 -24.858  0.00  0.00    +0.006 C 
ATOM      7  C   UNL     1      32.062 -12.910 -23.423  0.00  0.00    +0.006 C 
ATOM      8  C   UNL     1      33.958 -10.753 -23.894  0.00  0.00    -0.075 C 
ATOM      9  C   UNL     1      32.200 -11.686 -22.509  0.00  0.00    -0.075 C 
ATOM     10  C   UNL     1      33.827 -15.825 -24.399  0.00  0.00    +0.125 C 
ATOM     11  C   UNL     1      34.638 -15.124 -23.327  0.00  0.00    +0.233 C 
ATOM     12  C   UNL     1      32.719  -9.337 -22.390  0.00  0.00    -0.101 C 
ATOM     13  H   UNL     1      34.830 -13.194 -22.623  0.00  0.00    +0.150 HD
ATOM     14  H   UNL     1      31.976 -10.330 -24.003  0.00  0.00    -0.080 HD
ENDROOT
BRANCH  10  15
ATOM     15  C   UNL     1      34.693 -16.737 -25.250  0.00  0.00    +0.020 C 
ATOM     16  C   UNL     1      34.484 -18.199 -24.895  0.00  0.00    +0.001 C 
ENDBRANCH  10  15
TORSDOF 1
ENDMDL
MODEL 6
REMARK VINA RESULT:      -6.7      9.294     10.424
REMARK  Name = 10013505
REMARK  1 active torsions:
REMARK  status: ('A' for Active; 'I' for Inactive)
REMARK    1  A    between atoms: C_10  and  C_15
REMARK                            x       y       z     vdW  Elec       q    Type
REMARK                         _______ _______ _______ _____ _____    ______ ____
ROOT
ATOM      1  S   UNL     1      33.952 -23.391 -15.879  0.00  0.00    -0.115 S 
ATOM      2  O   UNL     1      31.758 -24.963 -13.126  0.00  0.00    -0.274 OA
ATOM      3  N   UNL     1      33.974 -24.930 -13.780  0.00  0.00    -0.299 N 
ATOM      4  N   UNL     1      37.653 -24.985 -13.735  0.00  0.00    +0.386 N 
ATOM      5  C   UNL     1      34.950 -24.302 -14.653  0.00  0.00    +0.092 C 
ATOM      6  C   UNL     1      35.819 -25.348 -15.362  0.00  0.00    +0.006 C 
ATOM      7  C   UNL     1      35.827 -23.316 -13.871  0.00  0.00    +0.006 C 
ATOM      8  C   UNL     1      36.826 -25.998 -14.403  0.00  0.00    -0.075 C 
ATOM      9  C   UNL     1      36.828 -24.045 -12.965  0.00  0.00    -0.075 C 
ATOM     10  C   UNL     1      32.435 -23.451 -14.889  0.00  0.00    +0.125 C 
ATOM     11  C   UNL     1      32.652 -24.526 -13.843  0.00  0.00    +0.233 C 
ATOM     12  C   UNL     1      38.643 -25.624 -12.869  0.00  0.00    -0.101 C 
ATOM     13  H   UNL     1      34.250 -25.634 -13.150  0.00  0.00    +0.150 HD
ATOM     14  H   UNL     1      38.143 -24.454 -14.456  0.00  0.00    -0.080 HD
ENDROOT
BRANCH  10  15
ATOM     15  C   UNL     1      31.230 -23.754 -15.762  0.00  0.00    +0.020 C 
ATOM     16  C   UNL     1      30.040 -22.882 -15.397  0.00  0.00    +0.001 C 
ENDBRANCH  10  15
TORSDOF 1
ENDMDL
MODEL 7
REMARK VINA RESULT:      -6.5      2.373      2.914
REMARK  Name = 10013505
REMARK  1 active torsions:
REMARK  status: ('A' for Active; 'I' for Inactive)
REMARK    1  A    between atoms: C_10  and  C_15
REMARK                            x       y       z     vdW  Elec       q    Type
REMARK                         _______ _______ _______ _____ _____    ______ ____
ROOT
ATOM      1  S   UNL     1      34.479 -19.246 -21.394  0.00  0.00    -0.115 S 
ATOM      2  O   UNL     1      38.285 -18.782 -21.795  0.00  0.00    -0.274 OA
ATOM      3  N   UNL     1      36.333 -18.145 -22.852  0.00  0.00    -0.299 N 
ATOM      4  N   UNL     1      33.833 -16.244 -24.772  0.00  0.00    +0.386 N 
ATOM      5  C   UNL     1      34.884 -18.103 -22.757  0.00  0.00    +0.092 C 
ATOM      6  C   UNL     1      34.225 -18.584 -24.055  0.00  0.00    +0.006 C 
ATOM      7  C   UNL     1      34.402 -16.690 -22.402  0.00  0.00    +0.006 C 
ATOM      8  C   UNL     1      34.362 -17.551 -25.182  0.00  0.00    -0.075 C 
ATOM      9  C   UNL     1      34.540 -15.730 -23.591  0.00  0.00    -0.075 C 
ATOM     10  C   UNL     1      36.167 -19.271 -20.734  0.00  0.00    +0.125 C 
ATOM     11  C   UNL     1      37.060 -18.727 -21.830  0.00  0.00    +0.233 C 
ATOM     12  C   UNL     1      33.921 -15.288 -25.876  0.00  0.00    -0.101 C 
ATOM     13  H   UNL     1      36.791 -17.763 -23.635  0.00  0.00    +0.150 HD
ATOM     14  H   UNL     1      32.852 -16.366 -24.522  0.00  0.00    -0.080 HD
ENDROOT
BRANCH  10  15
ATOM     15  C   UNL     1      36.569 -20.679 -20.330  0.00  0.00    +0.020 C 
ATOM     16  C   UNL     1      35.485 -21.358 -19.511  0.00  0.00    +0.001 C 
ENDBRANCH  10  15
TORSDOF 1
ENDMDL
MODEL 8
REMARK VINA RESULT:      -6.4      5.449      7.930
REMARK  Name = 10013505
REMARK  1 active torsions:
REMARK  status: ('A' for Active; 'I' for Inactive)
REMARK    1  A    between atoms: C_10  and  C_15
REMARK                            x       y       z     vdW  Elec       q    Type
REMARK                         _______ _______ _______ _____ _____    ______ ____
ROOT
ATOM      1  S   UNL     1      32.071 -11.963 -22.583  0.00  0.00    -0.115 S 
ATOM      2  O   UNL     1      34.734  -9.966 -24.529  0.00  0.00    -0.274 OA
ATOM      3  N   UNL     1      34.238 -12.162 -24.011  0.00  0.00    -0.299 N 
ATOM      4  N   UNL     1      33.915 -15.825 -24.170  0.00  0.00    +0.386 N 
ATOM      5  C   UNL     1      33.244 -13.060 -23.449  0.00  0.00    +0.092 C 
ATOM      6  C   UNL     1      33.876 -14.039 -22.452  0.00  0.00    +0.006 C 
ATOM      7  C   UNL     1      32.509 -13.823 -24.559  0.00  0.00    +0.006 C 
ATOM      8  C   UNL     1      34.710 -15.114 -23.160  0.00  0.00    -0.075 C 
ATOM      9  C   UNL     1      33.399 -14.902 -25.189  0.00  0.00    -0.075 C 
ATOM     10  C   UNL     1      32.636 -10.465 -23.433  0.00  0.00    +0.125 C 
ATOM     11  C   UNL     1      33.980 -10.804 -24.044  0.00  0.00    +0.233 C 
ATOM     12  C   UNL     1      34.710 -16.883 -24.794  0.00  0.00    -0.101 C 
ATOM     13  H   UNL     1      35.085 -12.517 -24.365  0.00  0.00    +0.150 HD
ATOM     14  H   UNL     1      33.117 -16.250 -23.699  0.00  0.00    -0.080 HD
ENDROOT
BRANCH  10  15
ATOM     15  C   UNL     1      32.738  -9.299 -22.465  0.00  0.00    +0.020 C 
ATOM     16  C   UNL     1      31.977  -9.570 -21.179  0.00  0.00    +0.001 C 
ENDBRANCH  10  15
TORSDOF 1
ENDMDL
MODEL 9
REMARK VINA RESULT:      -6.2      2.013      2.656
REMARK  Name = 10013505
REMARK  1 active torsions:
REMARK  status: ('A' for Active; 'I' for Inactive)
REMARK    1  A    between atoms: C_10  and  C_15
REMARK                            x       y       z     vdW  Elec       q    Type
REMARK                         _______ _______ _______ _____ _____    ______ ____
ROOT
ATOM      1  S   UNL     1      33.096 -20.425 -20.628  0.00  0.00    -0.115 S 
ATOM      2  O   UNL     1      36.761 -21.124 -19.656  0.00  0.00    -0.274 OA
ATOM      3  N   UNL     1      35.570 -19.761 -21.092  0.00  0.00    -0.299 N 
ATOM      4  N   UNL     1      34.521 -16.915 -23.176  0.00  0.00    +0.386 N 
ATOM      5  C   UNL     1      34.250 -19.281 -21.459  0.00  0.00    +0.092 C 
ATOM      6  C   UNL     1      34.038 -19.338 -22.977  0.00  0.00    +0.006 C 
ATOM      7  C   UNL     1      34.023 -17.855 -20.939  0.00  0.00    +0.006 C 
ATOM      8  C   UNL     1      34.836 -18.248 -23.706  0.00  0.00    -0.075 C 
ATOM      9  C   UNL     1      34.827 -16.825 -21.742  0.00  0.00    -0.075 C 
ATOM     10  C   UNL     1      34.348 -21.073 -19.489  0.00  0.00    +0.125 C 
ATOM     11  C   UNL     1      35.693 -20.683 -20.068  0.00  0.00    +0.233 C 
ATOM     12  C   UNL     1      35.247 -15.885 -23.919  0.00  0.00    -0.101 C 
ATOM     13  H   UNL     1      36.368 -19.433 -21.564  0.00  0.00    +0.150 HD
ATOM     14  H   UNL     1      33.520 -16.759 -23.293  0.00  0.00    -0.080 HD
ENDROOT
BRANCH  10  15
ATOM     15  C   UNL     1      34.217 -22.579 -19.341  0.00  0.00    +0.020 C 
ATOM     16  C   UNL     1      33.505 -22.955 -18.052  0.00  0.00    +0.001 C 
ENDBRANCH  10  15
TORSDOF 1
ENDMDL
