MODEL 1
REMARK VINA RESULT:      -5.7      0.000      0.000
REMARK  Name = 10548
REMARK  8 active torsions:
REMARK  status: ('A' for Active; 'I' for Inactive)
REMARK    1  A    between atoms: P_1  and  S_3
REMARK    2  A    between atoms: P_1  and  O_10
REMARK    3  A    between atoms: P_1  and  O_13
REMARK    4  A    between atoms: S_3  and  C_4
REMARK    5  A    between atoms: C_4  and  C_5
REMARK    6  A    between atoms: C_5  and  N_6
REMARK    7  A    between atoms: O_10  and  C_11
REMARK    8  A    between atoms: O_13  and  C_14
REMARK                            x       y       z     vdW  Elec       q    Type
REMARK                         _______ _______ _______ _____ _____    ______ ____
ROOT
ATOM      1  P   UNL     1      35.037 -18.434 -21.669  0.00  0.00    +0.393 P 
ATOM      2  O   UNL     1      36.053 -18.761 -20.605  0.00  0.00    -0.246 OA
ENDROOT
BRANCH   1   3
ATOM      3  S   UNL     1      34.215 -16.534 -21.333  0.00  0.00    -0.033 S 
BRANCH   3   4
ATOM      4  C   UNL     1      34.573 -15.597 -22.850  0.00  0.00    +0.047 C 
BRANCH   4   5
ATOM      5  C   UNL     1      34.462 -14.096 -22.637  0.00  0.00    -0.061 C 
BRANCH   5   6
ATOM      6  N   UNL     1      33.400 -13.507 -23.555  0.00  0.00    +0.386 N 
ATOM      7  C   UNL     1      33.125 -14.475 -24.697  0.00  0.00    -0.096 C 
ATOM      8  C   UNL     1      32.119 -13.276 -22.766  0.00  0.00    -0.096 C 
ATOM      9  C   UNL     1      33.895 -12.183 -24.120  0.00  0.00    -0.096 C 
ENDBRANCH   5   6
ENDBRANCH   4   5
ENDBRANCH   3   4
ENDBRANCH   1   3
BRANCH   1  10
ATOM     10  O   UNL     1      35.679 -18.471 -23.162  0.00  0.00    -0.287 OA
BRANCH  10  11
ATOM     11  C   UNL     1      35.027 -19.228 -24.167  0.00  0.00    +0.152 C 
ATOM     12  C   UNL     1      34.295 -18.286 -25.099  0.00  0.00    +0.035 C 
ENDBRANCH  10  11
ENDBRANCH   1  10
BRANCH   1  13
ATOM     13  O   UNL     1      33.871 -19.565 -21.749  0.00  0.00    -0.287 OA
BRANCH  13  14
ATOM     14  C   UNL     1      32.973 -19.737 -20.666  0.00  0.00    +0.152 C 
ATOM     15  C   UNL     1      33.388 -20.956 -19.871  0.00  0.00    +0.035 C 
ENDBRANCH  13  14
ENDBRANCH   1  13
TORSDOF 8
ENDMDL
MODEL 2
REMARK VINA RESULT:      -5.5      1.314      2.720
REMARK  Name = 10548
REMARK  8 active torsions:
REMARK  status: ('A' for Active; 'I' for Inactive)
REMARK    1  A    between atoms: P_1  and  S_3
REMARK    2  A    between atoms: P_1  and  O_10
REMARK    3  A    between atoms: P_1  and  O_13
REMARK    4  A    between atoms: S_3  and  C_4
REMARK    5  A    between atoms: C_4  and  C_5
REMARK    6  A    between atoms: C_5  and  N_6
REMARK    7  A    between atoms: O_10  and  C_11
REMARK    8  A    between atoms: O_13  and  C_14
REMARK                            x       y       z     vdW  Elec       q    Type
REMARK                         _______ _______ _______ _____ _____    ______ ____
ROOT
ATOM      1  P   UNL     1      35.317 -18.473 -21.592  0.00  0.00    +0.393 P 
ATOM      2  O   UNL     1      36.204 -18.469 -22.810  0.00  0.00    -0.246 OA
ENDROOT
BRANCH   1   3
ATOM      3  S   UNL     1      34.536 -16.558 -21.252  0.00  0.00    -0.033 S 
BRANCH   3   4
ATOM      4  C   UNL     1      34.131 -15.919 -22.906  0.00  0.00    +0.047 C 
BRANCH   4   5
ATOM      5  C   UNL     1      34.548 -14.467 -23.078  0.00  0.00    -0.061 C 
BRANCH   5   6
ATOM      6  N   UNL     1      33.400 -13.651 -23.655  0.00  0.00    +0.386 N 
ATOM      7  C   UNL     1      32.265 -13.587 -22.643  0.00  0.00    -0.096 C 
ATOM      8  C   UNL     1      33.885 -12.241 -23.963  0.00  0.00    -0.096 C 
ATOM      9  C   UNL     1      32.902 -14.308 -24.934  0.00  0.00    -0.096 C 
ENDBRANCH   5   6
ENDBRANCH   4   5
ENDBRANCH   3   4
ENDBRANCH   1   3
BRANCH   1  10
ATOM     10  O   UNL     1      34.085 -19.524 -21.734  0.00  0.00    -0.287 OA
BRANCH  10  11
ATOM     11  C   UNL     1      33.016 -19.454 -20.805  0.00  0.00    +0.152 C 
ATOM     12  C   UNL     1      33.012 -20.711 -19.962  0.00  0.00    +0.035 C 
ENDBRANCH  10  11
ENDBRANCH   1  10
BRANCH   1  13
ATOM     13  O   UNL     1      36.107 -19.020 -20.279  0.00  0.00    -0.287 OA
BRANCH  13  14
ATOM     14  C   UNL     1      36.839 -20.232 -20.346  0.00  0.00    +0.152 C 
ATOM     15  C   UNL     1      36.447 -21.108 -19.176  0.00  0.00    +0.035 C 
ENDBRANCH  13  14
ENDBRANCH   1  13
TORSDOF 8
ENDMDL
MODEL 3
REMARK VINA RESULT:      -5.4      3.589      6.347
REMARK  Name = 10548
REMARK  8 active torsions:
REMARK  status: ('A' for Active; 'I' for Inactive)
REMARK    1  A    between atoms: P_1  and  S_3
REMARK    2  A    between atoms: P_1  and  O_10
REMARK    3  A    between atoms: P_1  and  O_13
REMARK    4  A    between atoms: S_3  and  C_4
REMARK    5  A    between atoms: C_4  and  C_5
REMARK    6  A    between atoms: C_5  and  N_6
REMARK    7  A    between atoms: O_10  and  C_11
REMARK    8  A    between atoms: O_13  and  C_14
REMARK                            x       y       z     vdW  Elec       q    Type
REMARK                         _______ _______ _______ _____ _____    ______ ____
ROOT
ATOM      1  P   UNL     1      33.259 -14.245 -23.682  0.00  0.00    +0.393 P 
ATOM      2  O   UNL     1      32.294 -14.458 -22.545  0.00  0.00    -0.246 OA
ENDROOT
BRANCH   1   3
ATOM      3  S   UNL     1      34.562 -15.880 -23.849  0.00  0.00    -0.033 S 
BRANCH   3   4
ATOM      4  C   UNL     1      34.939 -16.353 -22.134  0.00  0.00    +0.047 C 
BRANCH   4   5
ATOM      5  C   UNL     1      34.024 -17.457 -21.629  0.00  0.00    -0.061 C 
BRANCH   5   6
ATOM      6  N   UNL     1      34.740 -18.799 -21.671  0.00  0.00    +0.386 N 
ATOM      7  C   UNL     1      34.766 -19.315 -23.104  0.00  0.00    -0.096 C 
ATOM      8  C   UNL     1      36.167 -18.629 -21.168  0.00  0.00    -0.096 C 
ATOM      9  C   UNL     1      34.005 -19.796 -20.787  0.00  0.00    -0.096 C 
ENDBRANCH   5   6
ENDBRANCH   4   5
ENDBRANCH   3   4
ENDBRANCH   1   3
BRANCH   1  10
ATOM     10  O   UNL     1      32.497 -14.036 -25.103  0.00  0.00    -0.287 OA
BRANCH  10  11
ATOM     11  C   UNL     1      33.081 -14.572 -26.278  0.00  0.00    +0.152 C 
ATOM     12  C   UNL     1      33.359 -13.445 -27.250  0.00  0.00    +0.035 C 
ENDBRANCH  10  11
ENDBRANCH   1  10
BRANCH   1  13
ATOM     13  O   UNL     1      34.089 -12.857 -23.511  0.00  0.00    -0.287 OA
BRANCH  13  14
ATOM     14  C   UNL     1      33.487 -11.623 -23.863  0.00  0.00    +0.152 C 
ATOM     15  C   UNL     1      34.397 -10.888 -24.823  0.00  0.00    +0.035 C 
ENDBRANCH  13  14
ENDBRANCH   1  13
TORSDOF 8
ENDMDL
MODEL 4
REMARK VINA RESULT:      -5.4      9.573     11.441
REMARK  Name = 10548
REMARK  8 active torsions:
REMARK  status: ('A' for Active; 'I' for Inactive)
REMARK    1  A    between atoms: P_1  and  S_3
REMARK    2  A    between atoms: P_1  and  O_10
REMARK    3  A    between atoms: P_1  and  O_13
REMARK    4  A    between atoms: S_3  and  C_4
REMARK    5  A    between atoms: C_4  and  C_5
REMARK    6  A    between atoms: C_5  and  N_6
REMARK    7  A    between atoms: O_10  and  C_11
REMARK    8  A    between atoms: O_13  and  C_14
REMARK                            x       y       z     vdW  Elec       q    Type
REMARK                         _______ _______ _______ _____ _____    ______ ____
ROOT
ATOM      1  P   UNL     1      36.196 -24.922 -14.899  0.00  0.00    +0.393 P 
ATOM      2  O   UNL     1      35.933 -26.259 -15.543  0.00  0.00    -0.246 OA
ENDROOT
BRANCH   1   3
ATOM      3  S   UNL     1      34.639 -24.425 -13.586  0.00  0.00    -0.033 S 
BRANCH   3   4
ATOM      4  C   UNL     1      33.491 -23.426 -14.582  0.00  0.00    +0.047 C 
BRANCH   4   5
ATOM      5  C   UNL     1      32.105 -23.357 -13.962  0.00  0.00    -0.061 C 
BRANCH   5   6
ATOM      6  N   UNL     1      31.042 -23.679 -15.002  0.00  0.00    +0.386 N 
ATOM      7  C   UNL     1      29.864 -22.729 -14.834  0.00  0.00    -0.096 C 
ATOM      8  C   UNL     1      31.630 -23.516 -16.396  0.00  0.00    -0.096 C 
ATOM      9  C   UNL     1      30.566 -25.113 -14.815  0.00  0.00    -0.096 C 
ENDBRANCH   5   6
ENDBRANCH   4   5
ENDBRANCH   3   4
ENDBRANCH   1   3
BRANCH   1  10
ATOM     10  O   UNL     1      37.600 -24.903 -14.078  0.00  0.00    -0.287 OA
BRANCH  10  11
ATOM     11  C   UNL     1      38.521 -25.963 -14.274  0.00  0.00    +0.152 C 
ATOM     12  C   UNL     1      39.839 -25.390 -14.747  0.00  0.00    +0.035 C 
ENDBRANCH  10  11
ENDBRANCH   1  10
BRANCH   1  13
ATOM     13  O   UNL     1      36.414 -23.755 -16.011  0.00  0.00    -0.287 OA
BRANCH  13  14
ATOM     14  C   UNL     1      37.305 -22.684 -15.750  0.00  0.00    +0.152 C 
ATOM     15  C   UNL     1      37.155 -21.643 -16.838  0.00  0.00    +0.035 C 
ENDBRANCH  13  14
ENDBRANCH   1  13
TORSDOF 8
ENDMDL
MODEL 5
REMARK VINA RESULT:      -5.4      1.833      2.842
REMARK  Name = 10548
REMARK  8 active torsions:
REMARK  status: ('A' for Active; 'I' for Inactive)
REMARK    1  A    between atoms: P_1  and  S_3
REMARK    2  A    between atoms: P_1  and  O_10
REMARK    3  A    between atoms: P_1  and  O_13
REMARK    4  A    between atoms: S_3  and  C_4
REMARK    5  A    between atoms: C_4  and  C_5
REMARK    6  A    between atoms: C_5  and  N_6
REMARK    7  A    between atoms: O_10  and  C_11
REMARK    8  A    between atoms: O_13  and  C_14
REMARK                            x       y       z     vdW  Elec       q    Type
REMARK                         _______ _______ _______ _____ _____    ______ ____
ROOT
ATOM      1  P   UNL     1      34.956 -18.390 -21.380  0.00  0.00    +0.393 P 
ATOM      2  O   UNL     1      35.551 -17.320 -20.501  0.00  0.00    -0.246 OA
ENDROOT
BRANCH   1   3
ATOM      3  S   UNL     1      34.948 -17.768 -23.383  0.00  0.00    -0.033 S 
BRANCH   3   4
ATOM      4  C   UNL     1      34.952 -15.951 -23.307  0.00  0.00    +0.047 C 
BRANCH   4   5
ATOM      5  C   UNL     1      33.549 -15.371 -23.375  0.00  0.00    -0.061 C 
BRANCH   5   6
ATOM      6  N   UNL     1      33.234 -14.594 -22.105  0.00  0.00    +0.386 N 
ATOM      7  C   UNL     1      34.533 -14.200 -21.416  0.00  0.00    -0.096 C 
ATOM      8  C   UNL     1      32.447 -13.340 -22.459  0.00  0.00    -0.096 C 
ATOM      9  C   UNL     1      32.408 -15.465 -21.168  0.00  0.00    -0.096 C 
ENDBRANCH   5   6
ENDBRANCH   4   5
ENDBRANCH   3   4
ENDBRANCH   1   3
BRANCH   1  10
ATOM     10  O   UNL     1      35.769 -19.794 -21.271  0.00  0.00    -0.287 OA
BRANCH  10  11
ATOM     11  C   UNL     1      36.718 -19.956 -20.231  0.00  0.00    +0.152 C 
ATOM     12  C   UNL     1      36.478 -21.283 -19.545  0.00  0.00    +0.035 C 
ENDBRANCH  10  11
ENDBRANCH   1  10
BRANCH   1  13
ATOM     13  O   UNL     1      33.460 -18.801 -20.894  0.00  0.00    -0.287 OA
BRANCH  13  14
ATOM     14  C   UNL     1      33.012 -20.139 -21.031  0.00  0.00    +0.152 C 
ATOM     15  C   UNL     1      32.865 -20.753 -19.656  0.00  0.00    +0.035 C 
ENDBRANCH  13  14
ENDBRANCH   1  13
TORSDOF 8
ENDMDL
MODEL 6
REMARK VINA RESULT:      -5.4      3.613      6.294
REMARK  Name = 10548
REMARK  8 active torsions:
REMARK  status: ('A' for Active; 'I' for Inactive)
REMARK    1  A    between atoms: P_1  and  S_3
REMARK    2  A    between atoms: P_1  and  O_10
REMARK    3  A    between atoms: P_1  and  O_13
REMARK    4  A    between atoms: S_3  and  C_4
REMARK    5  A    between atoms: C_4  and  C_5
REMARK    6  A    between atoms: C_5  and  N_6
REMARK    7  A    between atoms: O_10  and  C_11
REMARK    8  A    between atoms: O_13  and  C_14
REMARK                            x       y       z     vdW  Elec       q    Type
REMARK                         _______ _______ _______ _____ _____    ______ ____
ROOT
ATOM      1  P   UNL     1      33.417 -14.299 -23.830  0.00  0.00    +0.393 P 
ATOM      2  O   UNL     1      34.215 -13.039 -23.612  0.00  0.00    -0.246 OA
ENDROOT
BRANCH   1   3
ATOM      3  S   UNL     1      34.692 -15.959 -23.945  0.00  0.00    -0.033 S 
BRANCH   3   4
ATOM      4  C   UNL     1      35.039 -16.401 -22.215  0.00  0.00    +0.047 C 
BRANCH   4   5
ATOM      5  C   UNL     1      34.096 -17.475 -21.697  0.00  0.00    -0.061 C 
BRANCH   5   6
ATOM      6  N   UNL     1      34.782 -18.833 -21.707  0.00  0.00    +0.386 N 
ATOM      7  C   UNL     1      36.211 -18.682 -21.202  0.00  0.00    -0.096 C 
ATOM      8  C   UNL     1      34.023 -19.792 -20.801  0.00  0.00    -0.096 C 
ATOM      9  C   UNL     1      34.802 -19.382 -23.126  0.00  0.00    -0.096 C 
ENDBRANCH   5   6
ENDBRANCH   4   5
ENDBRANCH   3   4
ENDBRANCH   1   3
BRANCH   1  10
ATOM     10  O   UNL     1      32.334 -14.551 -22.644  0.00  0.00    -0.287 OA
BRANCH  10  11
ATOM     11  C   UNL     1      32.301 -13.654 -21.546  0.00  0.00    +0.152 C 
ATOM     12  C   UNL     1      32.679 -14.401 -20.286  0.00  0.00    +0.035 C 
ENDBRANCH  10  11
ENDBRANCH   1  10
BRANCH   1  13
ATOM     13  O   UNL     1      32.481 -14.192 -25.156  0.00  0.00    -0.287 OA
BRANCH  13  14
ATOM     14  C   UNL     1      32.994 -14.580 -26.419  0.00  0.00    +0.152 C 
ATOM     15  C   UNL     1      33.363 -13.339 -27.202  0.00  0.00    +0.035 C 
ENDBRANCH  13  14
ENDBRANCH   1  13
TORSDOF 8
ENDMDL
MODEL 7
REMARK VINA RESULT:      -5.3      3.796      6.409
REMARK  Name = 10548
REMARK  8 active torsions:
REMARK  status: ('A' for Active; 'I' for Inactive)
REMARK    1  A    between atoms: P_1  and  S_3
REMARK    2  A    between atoms: P_1  and  O_10
REMARK    3  A    between atoms: P_1  and  O_13
REMARK    4  A    between atoms: S_3  and  C_4
REMARK    5  A    between atoms: C_4  and  C_5
REMARK    6  A    between atoms: C_5  and  N_6
REMARK    7  A    between atoms: O_10  and  C_11
REMARK    8  A    between atoms: O_13  and  C_14
REMARK                            x       y       z     vdW  Elec       q    Type
REMARK                         _______ _______ _______ _____ _____    ______ ____
ROOT
ATOM      1  P   UNL     1      33.294 -13.480 -23.524  0.00  0.00    +0.393 P 
ATOM      2  O   UNL     1      33.063 -14.317 -24.756  0.00  0.00    -0.246 OA
ENDROOT
BRANCH   1   3
ATOM      3  S   UNL     1      34.476 -14.525 -22.144  0.00  0.00    -0.033 S 
BRANCH   3   4
ATOM      4  C   UNL     1      34.274 -16.277 -22.588  0.00  0.00    +0.047 C 
BRANCH   4   5
ATOM      5  C   UNL     1      34.370 -17.191 -21.377  0.00  0.00    -0.061 C 
BRANCH   5   6
ATOM      6  N   UNL     1      34.883 -18.563 -21.788  0.00  0.00    +0.386 N 
ATOM      7  C   UNL     1      36.262 -18.790 -21.183  0.00  0.00    -0.096 C 
ATOM      8  C   UNL     1      33.926 -19.635 -21.284  0.00  0.00    -0.096 C 
ATOM      9  C   UNL     1      34.977 -18.638 -23.305  0.00  0.00    -0.096 C 
ENDBRANCH   5   6
ENDBRANCH   4   5
ENDBRANCH   3   4
ENDBRANCH   1   3
BRANCH   1  10
ATOM     10  O   UNL     1      34.017 -12.066 -23.869  0.00  0.00    -0.287 OA
BRANCH  10  11
ATOM     11  C   UNL     1      33.963 -11.577 -25.199  0.00  0.00    +0.152 C 
ATOM     12  C   UNL     1      35.063 -10.557 -25.395  0.00  0.00    +0.035 C 
ENDBRANCH  10  11
ENDBRANCH   1  10
BRANCH   1  13
ATOM     13  O   UNL     1      31.890 -13.012 -22.848  0.00  0.00    -0.287 OA
BRANCH  13  14
ATOM     14  C   UNL     1      31.824 -11.797 -22.121  0.00  0.00    +0.152 C 
ATOM     15  C   UNL     1      31.741 -12.112 -20.643  0.00  0.00    +0.035 C 
ENDBRANCH  13  14
ENDBRANCH   1  13
TORSDOF 8
ENDMDL
MODEL 8
REMARK VINA RESULT:      -5.3      3.772      5.181
REMARK  Name = 10548
REMARK  8 active torsions:
REMARK  status: ('A' for Active; 'I' for Inactive)
REMARK    1  A    between atoms: P_1  and  S_3
REMARK    2  A    between atoms: P_1  and  O_10
REMARK    3  A    between atoms: P_1  and  O_13
REMARK    4  A    between atoms: S_3  and  C_4
REMARK    5  A    between atoms: C_4  and  C_5
REMARK    6  A    between atoms: C_5  and  N_6
REMARK    7  A    between atoms: O_10  and  C_11
REMARK    8  A    between atoms: O_13  and  C_14
REMARK                            x       y       z     vdW  Elec       q    Type
REMARK                         _______ _______ _______ _____ _____    ______ ____
ROOT
ATOM      1  P   UNL     1      33.475 -14.306 -23.309  0.00  0.00    +0.393 P 
ATOM      2  O   UNL     1      32.197 -14.324 -22.510  0.00  0.00    -0.246 OA
ENDROOT
BRANCH   1   3
ATOM      3  S   UNL     1      33.660 -12.495 -24.349  0.00  0.00    -0.033 S 
BRANCH   3   4
ATOM      4  C   UNL     1      32.971 -11.241 -23.228  0.00  0.00    +0.047 C 
BRANCH   4   5
ATOM      5  C   UNL     1      33.271  -9.826 -23.696  0.00  0.00    -0.061 C 
BRANCH   5   6
ATOM      6  N   UNL     1      32.542  -8.813 -22.825  0.00  0.00    +0.386 N 
ATOM      7  C   UNL     1      31.984  -9.513 -21.593  0.00  0.00    -0.096 C 
ATOM      8  C   UNL     1      33.513  -7.724 -22.392  0.00  0.00    -0.096 C 
ATOM      9  C   UNL     1      31.400  -8.191 -23.615  0.00  0.00    -0.096 C 
ENDBRANCH   5   6
ENDBRANCH   4   5
ENDBRANCH   3   4
ENDBRANCH   1   3
BRANCH   1  10
ATOM     10  O   UNL     1      34.787 -14.509 -22.371  0.00  0.00    -0.287 OA
BRANCH  10  11
ATOM     11  C   UNL     1      34.606 -14.839 -21.004  0.00  0.00    +0.152 C 
ATOM     12  C   UNL     1      34.723 -16.339 -20.839  0.00  0.00    +0.035 C 
ENDBRANCH  10  11
ENDBRANCH   1  10
BRANCH   1  13
ATOM     13  O   UNL     1      33.561 -15.572 -24.327  0.00  0.00    -0.287 OA
BRANCH  13  14
ATOM     14  C   UNL     1      34.782 -16.274 -24.485  0.00  0.00    +0.152 C 
ATOM     15  C   UNL     1      34.490 -17.657 -25.024  0.00  0.00    +0.035 C 
ENDBRANCH  13  14
ENDBRANCH   1  13
TORSDOF 8
ENDMDL
MODEL 9
REMARK VINA RESULT:      -5.2      8.747     10.796
REMARK  Name = 10548
REMARK  8 active torsions:
REMARK  status: ('A' for Active; 'I' for Inactive)
REMARK    1  A    between atoms: P_1  and  S_3
REMARK    2  A    between atoms: P_1  and  O_10
REMARK    3  A    between atoms: P_1  and  O_13
REMARK    4  A    between atoms: S_3  and  C_4
REMARK    5  A    between atoms: C_4  and  C_5
REMARK    6  A    between atoms: C_5  and  N_6
REMARK    7  A    between atoms: O_10  and  C_11
REMARK    8  A    between atoms: O_13  and  C_14
REMARK                            x       y       z     vdW  Elec       q    Type
REMARK                         _______ _______ _______ _____ _____    ______ ____
ROOT
ATOM      1  P   UNL     1      36.427 -23.787 -14.953  0.00  0.00    +0.393 P 
ATOM      2  O   UNL     1      37.524 -23.067 -14.211  0.00  0.00    -0.246 OA
ENDROOT
BRANCH   1   3
ATOM      3  S   UNL     1      34.723 -23.963 -13.745  0.00  0.00    -0.033 S 
BRANCH   3   4
ATOM      4  C   UNL     1      33.365 -23.297 -14.754  0.00  0.00    +0.047 C 
BRANCH   4   5
ATOM      5  C   UNL     1      32.011 -23.486 -14.089  0.00  0.00    -0.061 C 
BRANCH   5   6
ATOM      6  N   UNL     1      30.925 -23.665 -15.140  0.00  0.00    +0.386 N 
ATOM      7  C   UNL     1      31.514 -23.426 -16.524  0.00  0.00    -0.096 C 
ATOM      8  C   UNL     1      30.372 -25.081 -15.062  0.00  0.00    -0.096 C 
ATOM      9  C   UNL     1      29.803 -22.667 -14.888  0.00  0.00    -0.096 C 
ENDBRANCH   5   6
ENDBRANCH   4   5
ENDBRANCH   3   4
ENDBRANCH   1   3
BRANCH   1  10
ATOM     10  O   UNL     1      36.017 -23.025 -16.330  0.00  0.00    -0.287 OA
BRANCH  10  11
ATOM     11  C   UNL     1      36.924 -22.092 -16.892  0.00  0.00    +0.152 C 
ATOM     12  C   UNL     1      36.448 -21.713 -18.277  0.00  0.00    +0.035 C 
ENDBRANCH  10  11
ENDBRANCH   1  10
BRANCH   1  13
ATOM     13  O   UNL     1      36.919 -25.245 -15.481  0.00  0.00    -0.287 OA
BRANCH  13  14
ATOM     14  C   UNL     1      37.941 -25.941 -14.789  0.00  0.00    +0.152 C 
ATOM     15  C   UNL     1      37.339 -26.630 -13.584  0.00  0.00    +0.035 C 
ENDBRANCH  13  14
ENDBRANCH   1  13
TORSDOF 8
ENDMDL
