MODEL 1
REMARK VINA RESULT:     -12.4      0.000      0.000
REMARK  Name = 447731
REMARK  4 active torsions:
REMARK  status: ('A' for Active; 'I' for Inactive)
REMARK    1  A    between atoms: N_2  and  C_13
REMARK    2  A    between atoms: C_3  and  C_19
REMARK    3  A    between atoms: C_6  and  C_17
REMARK    4  A    between atoms: C_27  and  C_31
REMARK                            x       y       z     vdW  Elec       q    Type
REMARK                         _______ _______ _______ _____ _____    ______ ____
ROOT
ATOM      1  O   UNL     1      32.709 -20.961 -20.627  0.00  0.00    -0.270 OA
ATOM      2  N   UNL     1      34.845 -19.981 -20.701  0.00  0.00    -0.280 N 
ATOM      3  C   UNL     1      33.849 -20.825 -20.195  0.00  0.00    +0.249 C 
ATOM      4  H   UNL     1      35.708 -19.998 -20.228  0.00  0.00    +0.155 HD
ENDROOT
BRANCH   2  13
ATOM      5  N   UNL     1      33.596 -15.337 -24.993  0.00  0.00    +0.387 N 
ATOM      6  C   UNL     1      33.660 -15.517 -22.530  0.00  0.00    +0.001 C 
ATOM      7  C   UNL     1      34.209 -16.926 -22.703  0.00  0.00    -0.029 C 
ATOM      8  C   UNL     1      33.943 -14.632 -23.761  0.00  0.00    -0.077 C 
ATOM      9  C   UNL     1      34.573 -17.386 -23.985  0.00  0.00    -0.048 C 
ATOM     10  C   UNL     1      34.496 -16.477 -25.186  0.00  0.00    -0.055 C 
ATOM     11  C   UNL     1      34.288 -17.816 -21.620  0.00  0.00    +0.010 C 
ATOM     12  C   UNL     1      35.063 -18.691 -24.147  0.00  0.00    -0.005 C 
ATOM     13  C   UNL     1      34.764 -19.117 -21.796  0.00  0.00    +0.050 C 
ATOM     14  C   UNL     1      35.157 -19.552 -23.056  0.00  0.00    +0.014 C 
ATOM     15  H   UNL     1      33.685 -14.699 -25.784  0.00  0.00    -0.084 HD
ATOM     16  H   UNL     1      32.636 -15.675 -24.928  0.00  0.00    -0.084 HD
BRANCH   6  17
ATOM     17  C   UNL     1      34.188 -14.800 -21.282  0.00  0.00    +0.002 C 
ATOM     18  C   UNL     1      33.062 -14.464 -20.328  0.00  0.00    +0.000 C 
ENDBRANCH   6  17
ENDBRANCH   2  13
BRANCH   3  19
ATOM     19  C   UNL     1      34.230 -21.610 -18.991  0.00  0.00    +0.054 C 
ATOM     20  C   UNL     1      35.900 -22.257 -17.385  0.00  0.00    +0.000 C 
ATOM     21  C   UNL     1      34.941 -23.077 -16.743  0.00  0.00    +0.000 C 
ATOM     22  C   UNL     1      35.524 -21.521 -18.522  0.00  0.00    +0.005 C 
ATOM     23  C   UNL     1      33.279 -22.400 -18.386  0.00  0.00    +0.005 C 
ATOM     24  C   UNL     1      33.635 -23.137 -17.257  0.00  0.00    +0.000 C 
ATOM     25  C   UNL     1      35.316 -23.813 -15.608  0.00  0.00    +0.003 C 
ATOM     26  C   UNL     1      37.205 -22.197 -16.872  0.00  0.00    +0.000 C 
ATOM     27  C   UNL     1      36.618 -23.742 -15.112  0.00  0.00    +0.031 C 
ATOM     28  C   UNL     1      37.561 -22.934 -15.743  0.00  0.00    +0.003 C 
BRANCH  27  31
ATOM     29  N   UNL     1      36.098 -25.396 -13.336  0.00  0.00    -0.343 N 
ATOM     30  N   UNL     1      38.195 -24.370 -13.412  0.00  0.00    -0.285 NA
ATOM     31  C   UNL     1      36.991 -24.510 -13.935  0.00  0.00    +0.117 C 
ATOM     32  H   UNL     1      36.371 -25.907 -12.539  0.00  0.00    +0.144 HD
ATOM     33  H   UNL     1      35.194 -25.513 -13.708  0.00  0.00    +0.144 HD
ATOM     34  H   UNL     1      38.450 -24.889 -12.615  0.00  0.00    +0.188 HD
ENDBRANCH  27  31
ENDBRANCH   3  19
TORSDOF 4
ENDMDL
MODEL 2
REMARK VINA RESULT:     -12.1      2.158     10.183
REMARK  Name = 447731
REMARK  4 active torsions:
REMARK  status: ('A' for Active; 'I' for Inactive)
REMARK    1  A    between atoms: N_2  and  C_13
REMARK    2  A    between atoms: C_3  and  C_19
REMARK    3  A    between atoms: C_6  and  C_17
REMARK    4  A    between atoms: C_27  and  C_31
REMARK                            x       y       z     vdW  Elec       q    Type
REMARK                         _______ _______ _______ _____ _____    ______ ____
ROOT
ATOM      1  O   UNL     1      33.837 -23.759 -18.182  0.00  0.00    -0.270 OA
ATOM      2  N   UNL     1      35.150 -22.295 -16.893  0.00  0.00    -0.280 N 
ATOM      3  C   UNL     1      34.400 -22.684 -18.011  0.00  0.00    +0.249 C 
ATOM      4  H   UNL     1      35.534 -21.389 -16.924  0.00  0.00    +0.155 HD
ENDROOT
BRANCH   2  13
ATOM      5  N   UNL     1      37.164 -26.438 -12.385  0.00  0.00    +0.387 N 
ATOM      6  C   UNL     1      38.096 -25.466 -14.455  0.00  0.00    +0.001 C 
ATOM      7  C   UNL     1      36.866 -24.573 -14.524  0.00  0.00    -0.029 C 
ATOM      8  C   UNL     1      38.384 -25.943 -13.018  0.00  0.00    -0.077 C 
ATOM      9  C   UNL     1      35.957 -24.545 -13.447  0.00  0.00    -0.048 C 
ATOM     10  C   UNL     1      36.220 -25.334 -12.189  0.00  0.00    -0.055 C 
ATOM     11  C   UNL     1      36.568 -23.828 -15.677  0.00  0.00    +0.010 C 
ATOM     12  C   UNL     1      34.813 -23.735 -13.518  0.00  0.00    -0.005 C 
ATOM     13  C   UNL     1      35.420 -23.036 -15.741  0.00  0.00    +0.050 C 
ATOM     14  C   UNL     1      34.547 -22.985 -14.660  0.00  0.00    +0.014 C 
ATOM     15  H   UNL     1      37.395 -26.849 -11.480  0.00  0.00    -0.084 HD
ATOM     16  H   UNL     1      36.736 -27.143 -12.985  0.00  0.00    -0.084 HD
BRANCH   6  17
ATOM     17  C   UNL     1      39.364 -24.810 -15.015  0.00  0.00    +0.002 C 
ATOM     18  C   UNL     1      40.598 -25.609 -14.654  0.00  0.00    +0.000 C 
ENDBRANCH   6  17
ENDBRANCH   2  13
BRANCH   3  19
ATOM     19  C   UNL     1      34.315 -21.677 -19.102  0.00  0.00    +0.054 C 
ATOM     20  C   UNL     1      35.409 -20.113 -20.565  0.00  0.00    +0.000 C 
ATOM     21  C   UNL     1      34.154 -19.797 -21.139  0.00  0.00    +0.000 C 
ATOM     22  C   UNL     1      35.473 -21.067 -19.535  0.00  0.00    +0.005 C 
ATOM     23  C   UNL     1      33.083 -21.388 -19.642  0.00  0.00    +0.005 C 
ATOM     24  C   UNL     1      33.000 -20.444 -20.665  0.00  0.00    +0.000 C 
ATOM     25  C   UNL     1      34.089 -18.843 -22.168  0.00  0.00    +0.003 C 
ATOM     26  C   UNL     1      36.562 -19.466 -21.038  0.00  0.00    +0.000 C 
ATOM     27  C   UNL     1      35.245 -18.210 -22.625  0.00  0.00    +0.031 C 
ATOM     28  C   UNL     1      36.480 -18.522 -22.061  0.00  0.00    +0.003 C 
BRANCH  27  31
ATOM     29  N   UNL     1      34.691 -17.567 -24.958  0.00  0.00    -0.343 N 
ATOM     30  N   UNL     1      35.540 -15.981 -23.469  0.00  0.00    -0.285 NA
ATOM     31  C   UNL     1      35.162 -17.226 -23.692  0.00  0.00    +0.117 C 
ATOM     32  H   UNL     1      34.642 -16.885 -25.666  0.00  0.00    +0.144 HD
ATOM     33  H   UNL     1      34.406 -18.491 -25.145  0.00  0.00    +0.144 HD
ATOM     34  H   UNL     1      35.484 -15.312 -24.190  0.00  0.00    +0.188 HD
ENDBRANCH  27  31
ENDBRANCH   3  19
TORSDOF 4
ENDMDL
MODEL 3
REMARK VINA RESULT:     -11.9      6.686     13.677
REMARK  Name = 447731
REMARK  4 active torsions:
REMARK  status: ('A' for Active; 'I' for Inactive)
REMARK    1  A    between atoms: N_2  and  C_13
REMARK    2  A    between atoms: C_3  and  C_19
REMARK    3  A    between atoms: C_6  and  C_17
REMARK    4  A    between atoms: C_27  and  C_31
REMARK                            x       y       z     vdW  Elec       q    Type
REMARK                         _______ _______ _______ _____ _____    ______ ____
ROOT
ATOM      1  O   UNL     1      31.489 -11.839 -21.758  0.00  0.00    -0.270 OA
ATOM      2  N   UNL     1      33.054 -11.595 -23.496  0.00  0.00    -0.280 N 
ATOM      3  C   UNL     1      32.165 -11.146 -22.511  0.00  0.00    +0.249 C 
ATOM      4  H   UNL     1      33.517 -10.896 -24.012  0.00  0.00    +0.155 HD
ENDROOT
BRANCH   2  13
ATOM      5  N   UNL     1      35.358 -17.588 -24.066  0.00  0.00    +0.387 N 
ATOM      6  C   UNL     1      35.014 -15.979 -22.224  0.00  0.00    +0.001 C 
ATOM      7  C   UNL     1      34.301 -15.076 -23.220  0.00  0.00    -0.029 C 
ATOM      8  C   UNL     1      34.983 -17.457 -22.660  0.00  0.00    -0.077 C 
ATOM      9  C   UNL     1      34.014 -15.548 -24.517  0.00  0.00    -0.048 C 
ATOM     10  C   UNL     1      34.338 -16.966 -24.914  0.00  0.00    -0.055 C 
ATOM     11  C   UNL     1      33.990 -13.743 -22.904  0.00  0.00    +0.010 C 
ATOM     12  C   UNL     1      33.373 -14.709 -25.441  0.00  0.00    -0.005 C 
ATOM     13  C   UNL     1      33.364 -12.914 -23.837  0.00  0.00    +0.050 C 
ATOM     14  C   UNL     1      33.051 -13.398 -25.101  0.00  0.00    +0.014 C 
ATOM     15  H   UNL     1      35.439 -18.577 -24.304  0.00  0.00    -0.084 HD
ATOM     16  H   UNL     1      36.252 -17.121 -24.220  0.00  0.00    -0.084 HD
BRANCH   6  17
ATOM     17  C   UNL     1      34.460 -15.879 -20.797  0.00  0.00    +0.002 C 
ATOM     18  C   UNL     1      32.954 -16.025 -20.785  0.00  0.00    +0.000 C 
ENDBRANCH   6  17
ENDBRANCH   2  13
BRANCH   3  19
ATOM     19  C   UNL     1      32.026  -9.670 -22.404  0.00  0.00    +0.054 C 
ATOM     20  C   UNL     1      31.546  -7.555 -23.445  0.00  0.00    +0.000 C 
ATOM     21  C   UNL     1      31.766  -6.913 -22.203  0.00  0.00    +0.000 C 
ATOM     22  C   UNL     1      31.682  -8.951 -23.530  0.00  0.00    +0.005 C 
ATOM     23  C   UNL     1      32.245  -9.070 -21.185  0.00  0.00    +0.005 C 
ATOM     24  C   UNL     1      32.116  -7.685 -21.083  0.00  0.00    +0.000 C 
ATOM     25  C   UNL     1      31.632  -5.517 -22.117  0.00  0.00    +0.003 C 
ATOM     26  C   UNL     1      31.198  -6.783 -24.565  0.00  0.00    +0.000 C 
ATOM     27  C   UNL     1      31.285  -4.766 -23.241  0.00  0.00    +0.031 C 
ATOM     28  C   UNL     1      31.068  -5.399 -24.462  0.00  0.00    +0.003 C 
BRANCH  27  31
ATOM     29  N   UNL     1      31.925  -2.463 -23.912  0.00  0.00    -0.343 N 
ATOM     30  N   UNL     1      30.280  -2.803 -22.289  0.00  0.00    -0.285 NA
ATOM     31  C   UNL     1      31.149  -3.322 -23.136  0.00  0.00    +0.117 C 
ATOM     32  H   UNL     1      31.817  -1.489 -23.825  0.00  0.00    +0.144 HD
ATOM     33  H   UNL     1      32.582  -2.831 -24.547  0.00  0.00    +0.144 HD
ATOM     34  H   UNL     1      30.186  -1.825 -22.216  0.00  0.00    +0.188 HD
ENDBRANCH  27  31
ENDBRANCH   3  19
TORSDOF 4
ENDMDL
MODEL 4
REMARK VINA RESULT:     -11.8      1.514      2.378
REMARK  Name = 447731
REMARK  4 active torsions:
REMARK  status: ('A' for Active; 'I' for Inactive)
REMARK    1  A    between atoms: N_2  and  C_13
REMARK    2  A    between atoms: C_3  and  C_19
REMARK    3  A    between atoms: C_6  and  C_17
REMARK    4  A    between atoms: C_27  and  C_31
REMARK                            x       y       z     vdW  Elec       q    Type
REMARK                         _______ _______ _______ _____ _____    ______ ____
ROOT
ATOM      1  O   UNL     1      36.754 -21.139 -20.733  0.00  0.00    -0.270 OA
ATOM      2  N   UNL     1      34.758 -19.916 -20.512  0.00  0.00    -0.280 N 
ATOM      3  C   UNL     1      35.731 -20.846 -20.123  0.00  0.00    +0.249 C 
ATOM      4  H   UNL     1      33.996 -19.805 -19.898  0.00  0.00    +0.155 HD
ENDROOT
BRANCH   2  13
ATOM      5  N   UNL     1      33.797 -15.526 -25.133  0.00  0.00    +0.387 N 
ATOM      6  C   UNL     1      33.812 -15.539 -22.662  0.00  0.00    +0.001 C 
ATOM      7  C   UNL     1      34.298 -16.980 -22.729  0.00  0.00    -0.029 C 
ATOM      8  C   UNL     1      34.156 -14.755 -23.944  0.00  0.00    -0.077 C 
ATOM      9  C   UNL     1      34.661 -17.543 -23.969  0.00  0.00    -0.048 C 
ATOM     10  C   UNL     1      34.646 -16.716 -25.230  0.00  0.00    -0.055 C 
ATOM     11  C   UNL     1      34.318 -17.796 -21.586  0.00  0.00    +0.010 C 
ATOM     12  C   UNL     1      35.091 -18.877 -24.032  0.00  0.00    -0.005 C 
ATOM     13  C   UNL     1      34.736 -19.126 -21.663  0.00  0.00    +0.050 C 
ATOM     14  C   UNL     1      35.128 -19.664 -22.884  0.00  0.00    +0.014 C 
ATOM     15  H   UNL     1      33.928 -14.949 -25.964  0.00  0.00    -0.084 HD
ATOM     16  H   UNL     1      32.821 -15.815 -25.064  0.00  0.00    -0.084 HD
BRANCH   6  17
ATOM     17  C   UNL     1      34.352 -14.763 -21.456  0.00  0.00    +0.002 C 
ATOM     18  C   UNL     1      33.235 -14.369 -20.514  0.00  0.00    +0.000 C 
ENDBRANCH   6  17
ENDBRANCH   2  13
BRANCH   3  19
ATOM     19  C   UNL     1      35.459 -21.557 -18.847  0.00  0.00    +0.054 C 
ATOM     20  C   UNL     1      33.896 -22.638 -17.372  0.00  0.00    +0.000 C 
ATOM     21  C   UNL     1      34.952 -22.885 -16.461  0.00  0.00    +0.000 C 
ATOM     22  C   UNL     1      34.170 -21.965 -18.574  0.00  0.00    +0.005 C 
ATOM     23  C   UNL     1      36.503 -21.784 -17.979  0.00  0.00    +0.005 C 
ATOM     24  C   UNL     1      36.250 -22.451 -16.780  0.00  0.00    +0.000 C 
ATOM     25  C   UNL     1      34.680 -23.557 -15.259  0.00  0.00    +0.003 C 
ATOM     26  C   UNL     1      32.600 -23.071 -17.053  0.00  0.00    +0.000 C 
ATOM     27  C   UNL     1      33.385 -23.981 -14.958  0.00  0.00    +0.031 C 
ATOM     28  C   UNL     1      32.347 -23.738 -15.854  0.00  0.00    +0.003 C 
BRANCH  27  31
ATOM     29  N   UNL     1      31.909 -25.330 -13.488  0.00  0.00    -0.343 N 
ATOM     30  N   UNL     1      34.033 -24.691 -12.757  0.00  0.00    -0.285 NA
ATOM     31  C   UNL     1      33.119 -24.676 -13.709  0.00  0.00    +0.117 C 
ATOM     32  H   UNL     1      31.749 -25.795 -12.635  0.00  0.00    +0.144 HD
ATOM     33  H   UNL     1      31.213 -25.329 -14.184  0.00  0.00    +0.144 HD
ATOM     34  H   UNL     1      33.855 -25.161 -11.910  0.00  0.00    +0.188 HD
ENDBRANCH  27  31
ENDBRANCH   3  19
TORSDOF 4
ENDMDL
MODEL 5
REMARK VINA RESULT:     -11.5      3.255      5.737
REMARK  Name = 447731
REMARK  4 active torsions:
REMARK  status: ('A' for Active; 'I' for Inactive)
REMARK    1  A    between atoms: N_2  and  C_13
REMARK    2  A    between atoms: C_3  and  C_19
REMARK    3  A    between atoms: C_6  and  C_17
REMARK    4  A    between atoms: C_27  and  C_31
REMARK                            x       y       z     vdW  Elec       q    Type
REMARK                         _______ _______ _______ _____ _____    ______ ____
ROOT
ATOM      1  O   UNL     1      35.493 -15.964 -23.470  0.00  0.00    -0.270 OA
ATOM      2  N   UNL     1      33.834 -15.264 -21.958  0.00  0.00    -0.280 N 
ATOM      3  C   UNL     1      34.768 -16.157 -22.500  0.00  0.00    +0.249 C 
ATOM      4  H   UNL     1      33.334 -15.586 -21.173  0.00  0.00    +0.155 HD
ENDROOT
BRANCH   2  13
ATOM      5  N   UNL     1      31.330  -9.457 -23.202  0.00  0.00    +0.387 N 
ATOM      6  C   UNL     1      31.338 -11.022 -21.290  0.00  0.00    +0.001 C 
ATOM      7  C   UNL     1      32.325 -11.880 -22.069  0.00  0.00    -0.029 C 
ATOM      8  C   UNL     1      31.371  -9.548 -21.744  0.00  0.00    -0.077 C 
ATOM      9  C   UNL     1      32.877 -11.399 -23.274  0.00  0.00    -0.048 C 
ATOM     10  C   UNL     1      32.561 -10.011 -23.772  0.00  0.00    -0.055 C 
ATOM     11  C   UNL     1      32.642 -13.184 -21.655  0.00  0.00    +0.010 C 
ATOM     12  C   UNL     1      33.772 -12.198 -24.001  0.00  0.00    -0.005 C 
ATOM     13  C   UNL     1      33.525 -13.975 -22.395  0.00  0.00    +0.050 C 
ATOM     14  C   UNL     1      34.093 -13.480 -23.563  0.00  0.00    +0.014 C 
ATOM     15  H   UNL     1      31.241  -8.478 -23.477  0.00  0.00    -0.084 HD
ATOM     16  H   UNL     1      30.531  -9.988 -23.549  0.00  0.00    -0.084 HD
BRANCH   6  17
ATOM     17  C   UNL     1      31.546 -11.069 -19.772  0.00  0.00    +0.002 C 
ATOM     18  C   UNL     1      31.964  -9.718 -19.235  0.00  0.00    +0.000 C 
ENDBRANCH   6  17
ENDBRANCH   2  13
BRANCH   3  19
ATOM     19  C   UNL     1      34.851 -17.479 -21.827  0.00  0.00    +0.054 C 
ATOM     20  C   UNL     1      33.749 -19.331 -20.758  0.00  0.00    +0.000 C 
ATOM     21  C   UNL     1      35.008 -19.949 -20.568  0.00  0.00    +0.000 C 
ATOM     22  C   UNL     1      33.687 -18.081 -21.397  0.00  0.00    +0.005 C 
ATOM     23  C   UNL     1      36.087 -18.059 -21.654  0.00  0.00    +0.005 C 
ATOM     24  C   UNL     1      36.168 -19.299 -21.022  0.00  0.00    +0.000 C 
ATOM     25  C   UNL     1      35.071 -21.198 -19.929  0.00  0.00    +0.003 C 
ATOM     26  C   UNL     1      32.590 -19.980 -20.303  0.00  0.00    +0.000 C 
ATOM     27  C   UNL     1      33.909 -21.829 -19.483  0.00  0.00    +0.031 C 
ATOM     28  C   UNL     1      32.671 -21.221 -19.671  0.00  0.00    +0.003 C 
BRANCH  27  31
ATOM     29  N   UNL     1      34.123 -23.223 -17.440  0.00  0.00    -0.343 N 
ATOM     30  N   UNL     1      33.945 -24.230 -19.540  0.00  0.00    -0.285 NA
ATOM     31  C   UNL     1      33.991 -23.122 -18.824  0.00  0.00    +0.117 C 
ATOM     32  H   UNL     1      34.176 -24.108 -17.014  0.00  0.00    +0.144 HD
ATOM     33  H   UNL     1      34.162 -22.408 -16.888  0.00  0.00    +0.144 HD
ATOM     34  H   UNL     1      34.001 -25.107 -19.095  0.00  0.00    +0.188 HD
ENDBRANCH  27  31
ENDBRANCH   3  19
TORSDOF 4
ENDMDL
MODEL 6
REMARK VINA RESULT:     -11.5      1.155      1.908
REMARK  Name = 447731
REMARK  4 active torsions:
REMARK  status: ('A' for Active; 'I' for Inactive)
REMARK    1  A    between atoms: N_2  and  C_13
REMARK    2  A    between atoms: C_3  and  C_19
REMARK    3  A    between atoms: C_6  and  C_17
REMARK    4  A    between atoms: C_27  and  C_31
REMARK                            x       y       z     vdW  Elec       q    Type
REMARK                         _______ _______ _______ _____ _____    ______ ____
ROOT
ATOM      1  O   UNL     1      32.722 -20.293 -21.250  0.00  0.00    -0.270 OA
ATOM      2  N   UNL     1      34.818 -19.251 -21.478  0.00  0.00    -0.280 N 
ATOM      3  C   UNL     1      33.891 -20.136 -20.912  0.00  0.00    +0.249 C 
ATOM      4  H   UNL     1      35.718 -19.256 -21.080  0.00  0.00    +0.155 HD
ENDROOT
BRANCH   2  13
ATOM      5  N   UNL     1      33.057 -14.559 -25.532  0.00  0.00    +0.387 N 
ATOM      6  C   UNL     1      33.299 -14.803 -23.085  0.00  0.00    +0.001 C 
ATOM      7  C   UNL     1      33.901 -16.177 -23.338  0.00  0.00    -0.029 C 
ATOM      8  C   UNL     1      33.454 -13.872 -24.304  0.00  0.00    -0.077 C 
ATOM      9  C   UNL     1      34.198 -16.584 -24.655  0.00  0.00    -0.048 C 
ATOM     10  C   UNL     1      33.995 -15.647 -25.819  0.00  0.00    -0.055 C 
ATOM     11  C   UNL     1      34.097 -17.092 -22.290  0.00  0.00    +0.010 C 
ATOM     12  C   UNL     1      34.736 -17.858 -24.889  0.00  0.00    -0.005 C 
ATOM     13  C   UNL     1      34.621 -18.362 -22.537  0.00  0.00    +0.050 C 
ATOM     14  C   UNL     1      34.946 -18.743 -23.834  0.00  0.00    +0.014 C 
ATOM     15  H   UNL     1      33.061 -13.896 -26.307  0.00  0.00    -0.084 HD
ATOM     16  H   UNL     1      32.121 -14.946 -25.413  0.00  0.00    -0.084 HD
BRANCH   6  17
ATOM     17  C   UNL     1      33.876 -14.095 -21.854  0.00  0.00    +0.002 C 
ATOM     18  C   UNL     1      32.870 -14.054 -20.725  0.00  0.00    +0.000 C 
ENDBRANCH   6  17
ENDBRANCH   2  13
BRANCH   3  19
ATOM     19  C   UNL     1      34.394 -20.939 -19.767  0.00  0.00    +0.054 C 
ATOM     20  C   UNL     1      33.950 -22.407 -17.914  0.00  0.00    +0.000 C 
ATOM     21  C   UNL     1      35.336 -22.440 -17.629  0.00  0.00    +0.000 C 
ATOM     22  C   UNL     1      33.490 -21.643 -19.000  0.00  0.00    +0.005 C 
ATOM     23  C   UNL     1      35.746 -20.954 -19.511  0.00  0.00    +0.005 C 
ATOM     24  C   UNL     1      36.221 -21.707 -18.438  0.00  0.00    +0.000 C 
ATOM     25  C   UNL     1      35.796 -23.203 -16.544  0.00  0.00    +0.003 C 
ATOM     26  C   UNL     1      33.065 -23.139 -17.106  0.00  0.00    +0.000 C 
ATOM     27  C   UNL     1      34.903 -23.924 -15.751  0.00  0.00    +0.031 C 
ATOM     28  C   UNL     1      33.540 -23.891 -16.032  0.00  0.00    +0.003 C 
BRANCH  27  31
ATOM     29  N   UNL     1      35.503 -24.162 -13.354  0.00  0.00    -0.343 N 
ATOM     30  N   UNL     1      35.756 -25.965 -14.816  0.00  0.00    -0.285 NA
ATOM     31  C   UNL     1      35.396 -24.709 -14.631  0.00  0.00    +0.117 C 
ATOM     32  H   UNL     1      35.838 -24.712 -12.609  0.00  0.00    +0.144 HD
ATOM     33  H   UNL     1      35.241 -23.226 -13.195  0.00  0.00    +0.144 HD
ATOM     34  H   UNL     1      36.090 -26.499 -14.059  0.00  0.00    +0.188 HD
ENDBRANCH  27  31
ENDBRANCH   3  19
TORSDOF 4
ENDMDL
MODEL 7
REMARK VINA RESULT:     -11.4      2.007      9.900
REMARK  Name = 447731
REMARK  4 active torsions:
REMARK  status: ('A' for Active; 'I' for Inactive)
REMARK    1  A    between atoms: N_2  and  C_13
REMARK    2  A    between atoms: C_3  and  C_19
REMARK    3  A    between atoms: C_6  and  C_17
REMARK    4  A    between atoms: C_27  and  C_31
REMARK                            x       y       z     vdW  Elec       q    Type
REMARK                         _______ _______ _______ _____ _____    ______ ____
ROOT
ATOM      1  O   UNL     1      34.272 -23.285 -18.420  0.00  0.00    -0.270 OA
ATOM      2  N   UNL     1      35.802 -21.794 -17.436  0.00  0.00    -0.280 N 
ATOM      3  C   UNL     1      34.870 -22.214 -18.394  0.00  0.00    +0.249 C 
ATOM      4  H   UNL     1      36.187 -20.898 -17.572  0.00  0.00    +0.155 HD
ENDROOT
BRANCH   2  13
ATOM      5  N   UNL     1      36.779 -24.521 -11.679  0.00  0.00    +0.387 N 
ATOM      6  C   UNL     1      34.817 -23.884 -13.039  0.00  0.00    +0.001 C 
ATOM      7  C   UNL     1      35.781 -23.538 -14.165  0.00  0.00    -0.029 C 
ATOM      8  C   UNL     1      35.421 -24.908 -12.057  0.00  0.00    -0.077 C 
ATOM      9  C   UNL     1      37.148 -23.860 -14.045  0.00  0.00    -0.048 C 
ATOM     10  C   UNL     1      37.665 -24.610 -12.842  0.00  0.00    -0.055 C 
ATOM     11  C   UNL     1      35.353 -22.829 -15.299  0.00  0.00    +0.010 C 
ATOM     12  C   UNL     1      38.039 -23.525 -15.075  0.00  0.00    -0.005 C 
ATOM     13  C   UNL     1      36.252 -22.489 -16.313  0.00  0.00    +0.050 C 
ATOM     14  C   UNL     1      37.592 -22.843 -16.203  0.00  0.00    +0.014 C 
ATOM     15  H   UNL     1      37.117 -25.147 -10.948  0.00  0.00    -0.084 HD
ATOM     16  H   UNL     1      36.771 -23.561 -11.335  0.00  0.00    -0.084 HD
BRANCH   6  17
ATOM     17  C   UNL     1      33.465 -24.415 -13.528  0.00  0.00    +0.002 C 
ATOM     18  C   UNL     1      32.404 -23.336 -13.479  0.00  0.00    +0.000 C 
ENDBRANCH   6  17
ENDBRANCH   2  13
BRANCH   3  19
ATOM     19  C   UNL     1      34.616 -21.254 -19.500  0.00  0.00    +0.054 C 
ATOM     20  C   UNL     1      35.461 -19.679 -21.110  0.00  0.00    +0.000 C 
ATOM     21  C   UNL     1      34.139 -19.460 -21.566  0.00  0.00    +0.000 C 
ATOM     22  C   UNL     1      35.685 -20.590 -20.064  0.00  0.00    +0.005 C 
ATOM     23  C   UNL     1      33.321 -21.060 -19.925  0.00  0.00    +0.005 C 
ATOM     24  C   UNL     1      33.080 -20.159 -20.961  0.00  0.00    +0.000 C 
ATOM     25  C   UNL     1      33.914 -18.549 -22.610  0.00  0.00    +0.003 C 
ATOM     26  C   UNL     1      36.519 -18.980 -21.713  0.00  0.00    +0.000 C 
ATOM     27  C   UNL     1      34.977 -17.864 -23.198  0.00  0.00    +0.031 C 
ATOM     28  C   UNL     1      36.278 -18.080 -22.750  0.00  0.00    +0.003 C 
BRANCH  27  31
ATOM     29  N   UNL     1      34.609 -15.557 -24.038  0.00  0.00    -0.343 N 
ATOM     30  N   UNL     1      34.605 -17.364 -25.518  0.00  0.00    -0.285 NA
ATOM     31  C   UNL     1      34.728 -16.924 -24.279  0.00  0.00    +0.117 C 
ATOM     32  H   UNL     1      34.441 -14.938 -24.785  0.00  0.00    +0.144 HD
ATOM     33  H   UNL     1      34.695 -15.209 -23.121  0.00  0.00    +0.144 HD
ATOM     34  H   UNL     1      34.436 -16.729 -26.252  0.00  0.00    +0.188 HD
ENDBRANCH  27  31
ENDBRANCH   3  19
TORSDOF 4
ENDMDL
MODEL 8
REMARK VINA RESULT:     -11.1      6.526     13.425
REMARK  Name = 447731
REMARK  4 active torsions:
REMARK  status: ('A' for Active; 'I' for Inactive)
REMARK    1  A    between atoms: N_2  and  C_13
REMARK    2  A    between atoms: C_3  and  C_19
REMARK    3  A    between atoms: C_6  and  C_17
REMARK    4  A    between atoms: C_27  and  C_31
REMARK                            x       y       z     vdW  Elec       q    Type
REMARK                         _______ _______ _______ _____ _____    ______ ____
ROOT
ATOM      1  O   UNL     1      35.112 -11.199 -25.622  0.00  0.00    -0.270 OA
ATOM      2  N   UNL     1      33.554 -12.126 -24.123  0.00  0.00    -0.280 N 
ATOM      3  C   UNL     1      34.236 -11.087 -24.771  0.00  0.00    +0.249 C 
ATOM      4  H   UNL     1      32.877 -11.853 -23.463  0.00  0.00    +0.155 HD
ENDROOT
BRANCH   2  13
ATOM      5  N   UNL     1      35.238 -18.346 -23.983  0.00  0.00    +0.387 N 
ATOM      6  C   UNL     1      35.139 -16.489 -22.356  0.00  0.00    +0.001 C 
ATOM      7  C   UNL     1      34.471 -15.652 -23.437  0.00  0.00    -0.029 C 
ATOM      8  C   UNL     1      34.944 -18.000 -22.594  0.00  0.00    -0.077 C 
ATOM      9  C   UNL     1      34.078 -16.253 -24.650  0.00  0.00    -0.048 C 
ATOM     10  C   UNL     1      34.244 -17.736 -24.870  0.00  0.00    -0.055 C 
ATOM     11  C   UNL     1      34.305 -14.265 -23.288  0.00  0.00    +0.010 C 
ATOM     12  C   UNL     1      33.478 -15.477 -25.654  0.00  0.00    -0.005 C 
ATOM     13  C   UNL     1      33.719 -13.501 -24.299  0.00  0.00    +0.050 C 
ATOM     14  C   UNL     1      33.300 -14.107 -25.478  0.00  0.00    +0.014 C 
ATOM     15  H   UNL     1      35.211 -19.360 -24.093  0.00  0.00    -0.084 HD
ATOM     16  H   UNL     1      36.165 -17.996 -24.228  0.00  0.00    -0.084 HD
BRANCH   6  17
ATOM     17  C   UNL     1      34.666 -16.154 -20.937  0.00  0.00    +0.002 C 
ATOM     18  C   UNL     1      33.156 -16.199 -20.840  0.00  0.00    +0.000 C 
ENDBRANCH   6  17
ENDBRANCH   2  13
BRANCH   3  19
ATOM     19  C   UNL     1      33.856  -9.714 -24.346  0.00  0.00    +0.054 C 
ATOM     20  C   UNL     1      32.146  -8.130 -23.748  0.00  0.00    +0.000 C 
ATOM     21  C   UNL     1      33.148  -7.149 -23.553  0.00  0.00    +0.000 C 
ATOM     22  C   UNL     1      32.522  -9.424 -24.150  0.00  0.00    +0.005 C 
ATOM     23  C   UNL     1      34.848  -8.778 -24.163  0.00  0.00    +0.005 C 
ATOM     24  C   UNL     1      34.494  -7.489 -23.765  0.00  0.00    +0.000 C 
ATOM     25  C   UNL     1      32.773  -5.856 -23.152  0.00  0.00    +0.003 C 
ATOM     26  C   UNL     1      30.801  -7.790 -23.537  0.00  0.00    +0.000 C 
ATOM     27  C   UNL     1      31.431  -5.535 -22.947  0.00  0.00    +0.031 C 
ATOM     28  C   UNL     1      30.447  -6.501 -23.139  0.00  0.00    +0.003 C 
BRANCH  27  31
ATOM     29  N   UNL     1      31.780  -3.077 -22.957  0.00  0.00    -0.343 N 
ATOM     30  N   UNL     1      30.024  -4.013 -21.734  0.00  0.00    -0.285 NA
ATOM     31  C   UNL     1      31.060  -4.192 -22.532  0.00  0.00    +0.117 C 
ATOM     32  H   UNL     1      31.512  -2.177 -22.664  0.00  0.00    +0.144 HD
ATOM     33  H   UNL     1      32.558  -3.190 -23.551  0.00  0.00    +0.144 HD
ATOM     34  H   UNL     1      29.771  -3.104 -21.451  0.00  0.00    +0.188 HD
ENDBRANCH  27  31
ENDBRANCH   3  19
TORSDOF 4
ENDMDL
MODEL 9
REMARK VINA RESULT:     -11.0      7.210     14.275
REMARK  Name = 447731
REMARK  4 active torsions:
REMARK  status: ('A' for Active; 'I' for Inactive)
REMARK    1  A    between atoms: N_2  and  C_13
REMARK    2  A    between atoms: C_3  and  C_19
REMARK    3  A    between atoms: C_6  and  C_17
REMARK    4  A    between atoms: C_27  and  C_31
REMARK                            x       y       z     vdW  Elec       q    Type
REMARK                         _______ _______ _______ _____ _____    ______ ____
ROOT
ATOM      1  O   UNL     1      35.132 -10.090 -24.011  0.00  0.00    -0.270 OA
ATOM      2  N   UNL     1      33.073 -11.192 -23.736  0.00  0.00    -0.280 N 
ATOM      3  C   UNL     1      33.926 -10.082 -23.787  0.00  0.00    +0.249 C 
ATOM      4  H   UNL     1      32.126 -11.001 -23.543  0.00  0.00    +0.155 HD
ENDROOT
BRANCH   2  13
ATOM      5  N   UNL     1      35.339 -17.223 -23.529  0.00  0.00    +0.387 N 
ATOM      6  C   UNL     1      34.814 -15.459 -21.881  0.00  0.00    +0.001 C 
ATOM      7  C   UNL     1      34.230 -14.642 -23.025  0.00  0.00    -0.029 C 
ATOM      8  C   UNL     1      34.810 -16.969 -22.190  0.00  0.00    -0.077 C 
ATOM      9  C   UNL     1      34.083 -15.223 -24.301  0.00  0.00    -0.048 C 
ATOM     10  C   UNL     1      34.429 -16.672 -24.537  0.00  0.00    -0.055 C 
ATOM     11  C   UNL     1      33.905 -13.285 -22.861  0.00  0.00    +0.010 C 
ATOM     12  C   UNL     1      33.563 -14.464 -25.360  0.00  0.00    -0.005 C 
ATOM     13  C   UNL     1      33.400 -12.536 -23.926  0.00  0.00    +0.050 C 
ATOM     14  C   UNL     1      33.223 -13.127 -25.172  0.00  0.00    +0.014 C 
ATOM     15  H   UNL     1      35.431 -18.229 -23.671  0.00  0.00    -0.084 HD
ATOM     16  H   UNL     1      36.251 -16.775 -23.620  0.00  0.00    -0.084 HD
BRANCH   6  17
ATOM     17  C   UNL     1      34.105 -15.233 -20.541  0.00  0.00    +0.002 C 
ATOM     18  C   UNL     1      32.646 -15.627 -20.621  0.00  0.00    +0.000 C 
ENDBRANCH   6  17
ENDBRANCH   2  13
BRANCH   3  19
ATOM     19  C   UNL     1      33.282  -8.771 -23.512  0.00  0.00    +0.054 C 
ATOM     20  C   UNL     1      32.732  -6.543 -24.234  0.00  0.00    +0.000 C 
ATOM     21  C   UNL     1      32.079  -6.321 -22.998  0.00  0.00    +0.000 C 
ATOM     22  C   UNL     1      33.336  -7.788 -24.479  0.00  0.00    +0.005 C 
ATOM     23  C   UNL     1      32.654  -8.581 -22.303  0.00  0.00    +0.005 C 
ATOM     24  C   UNL     1      32.050  -7.351 -22.042  0.00  0.00    +0.000 C 
ATOM     25  C   UNL     1      31.477  -5.077 -22.752  0.00  0.00    +0.003 C 
ATOM     26  C   UNL     1      32.763  -5.514 -25.188  0.00  0.00    +0.000 C 
ATOM     27  C   UNL     1      31.516  -4.065 -23.712  0.00  0.00    +0.031 C 
ATOM     28  C   UNL     1      32.158  -4.284 -24.928  0.00  0.00    +0.003 C 
BRANCH  27  31
ATOM     29  N   UNL     1      30.158  -2.564 -22.276  0.00  0.00    -0.343 N 
ATOM     30  N   UNL     1      30.998  -1.799 -24.316  0.00  0.00    -0.285 NA
ATOM     31  C   UNL     1      30.887  -2.783 -23.443  0.00  0.00    +0.117 C 
ATOM     32  H   UNL     1      29.740  -1.688 -22.113  0.00  0.00    +0.144 HD
ATOM     33  H   UNL     1      30.061  -3.286 -21.613  0.00  0.00    +0.144 HD
ATOM     34  H   UNL     1      30.573  -0.929 -24.136  0.00  0.00    +0.188 HD
ENDBRANCH  27  31
ENDBRANCH   3  19
TORSDOF 4
ENDMDL
