MODEL 1
REMARK VINA RESULT:      -6.2      0.000      0.000
REMARK  Name = 3033877
REMARK  12 active torsions:
REMARK  status: ('A' for Active; 'I' for Inactive)
REMARK    1  A    between atoms: C_2  and  O_3
REMARK    2  A    between atoms: C_2  and  C_11
REMARK    3  A    between atoms: O_3  and  C_4
REMARK    4  A    between atoms: C_4  and  C_5
REMARK    5  A    between atoms: C_5  and  O_6
REMARK    6  A    between atoms: C_5  and  C_8
REMARK    7  A    between atoms: C_8  and  O_9
REMARK    8  A    between atoms: C_11  and  C_12
REMARK    9  A    between atoms: C_12  and  C_13
REMARK   10  A    between atoms: C_13  and  C_14
REMARK   11  A    between atoms: C_14  and  C_15
REMARK   12  A    between atoms: C_15  and  C_16
REMARK                            x       y       z     vdW  Elec       q    Type
REMARK                         _______ _______ _______ _____ _____    ______ ____
ROOT
ATOM      1  O   UNL     1      34.782 -17.063 -25.769  0.00  0.00    -0.250 OA
ATOM      2  C   UNL     1      34.867 -17.202 -24.557  0.00  0.00    +0.317 C 
ENDROOT
BRANCH   2   3
ATOM      3  O   UNL     1      34.917 -16.192 -23.638  0.00  0.00    -0.446 OA
BRANCH   3   4
ATOM      4  C   UNL     1      33.746 -15.373 -23.556  0.00  0.00    +0.240 C 
BRANCH   4   5
ATOM      5  C   UNL     1      33.261 -15.307 -22.113  0.00  0.00    +0.184 C 
BRANCH   5   6
ATOM      6  O   UNL     1      32.146 -14.415 -22.044  0.00  0.00    -0.378 OA
ATOM      7  H   UNL     1      31.623 -14.612 -21.251  0.00  0.00    +0.211 HD
ENDBRANCH   5   6
BRANCH   5   8
ATOM      8  C   UNL     1      34.346 -14.777 -21.184  0.00  0.00    +0.170 C 
BRANCH   8   9
ATOM      9  O   UNL     1      34.928 -15.870 -20.483  0.00  0.00    -0.379 OA
ATOM     10  H   UNL     1      34.654 -16.702 -20.897  0.00  0.00    +0.211 HD
ENDBRANCH   8   9
ENDBRANCH   5   8
ENDBRANCH   4   5
ENDBRANCH   3   4
ENDBRANCH   2   3
BRANCH   2  11
ATOM     11  C   UNL     1      34.896 -18.528 -23.831  0.00  0.00    +0.110 C 
BRANCH  11  12
ATOM     12  C   UNL     1      35.741 -18.500 -22.557  0.00  0.00    +0.012 C 
BRANCH  12  13
ATOM     13  C   UNL     1      35.233 -19.480 -21.495  0.00  0.00    +0.001 C 
BRANCH  13  14
ATOM     14  C   UNL     1      33.729 -19.319 -21.265  0.00  0.00    +0.000 C 
BRANCH  14  15
ATOM     15  C   UNL     1      33.199 -20.373 -20.292  0.00  0.00    +0.000 C 
BRANCH  15  16
ATOM     16  C   UNL     1      34.338 -21.199 -19.695  0.00  0.00    +0.000 C 
ATOM     17  C   UNL     1      33.834 -22.520 -19.134  0.00  0.00    +0.000 C 
ENDBRANCH  15  16
ENDBRANCH  14  15
ENDBRANCH  13  14
ENDBRANCH  12  13
ENDBRANCH  11  12
ENDBRANCH   2  11
TORSDOF 12
ENDMDL
MODEL 2
REMARK VINA RESULT:      -6.2      1.358      1.638
REMARK  Name = 3033877
REMARK  12 active torsions:
REMARK  status: ('A' for Active; 'I' for Inactive)
REMARK    1  A    between atoms: C_2  and  O_3
REMARK    2  A    between atoms: C_2  and  C_11
REMARK    3  A    between atoms: O_3  and  C_4
REMARK    4  A    between atoms: C_4  and  C_5
REMARK    5  A    between atoms: C_5  and  O_6
REMARK    6  A    between atoms: C_5  and  C_8
REMARK    7  A    between atoms: C_8  and  O_9
REMARK    8  A    between atoms: C_11  and  C_12
REMARK    9  A    between atoms: C_12  and  C_13
REMARK   10  A    between atoms: C_13  and  C_14
REMARK   11  A    between atoms: C_14  and  C_15
REMARK   12  A    between atoms: C_15  and  C_16
REMARK                            x       y       z     vdW  Elec       q    Type
REMARK                         _______ _______ _______ _____ _____    ______ ____
ROOT
ATOM      1  O   UNL     1      34.877 -16.837 -25.869  0.00  0.00    -0.250 OA
ATOM      2  C   UNL     1      34.591 -16.971 -24.688  0.00  0.00    +0.317 C 
ENDROOT
BRANCH   2   3
ATOM      3  O   UNL     1      33.827 -16.114 -23.947  0.00  0.00    -0.446 OA
BRANCH   3   4
ATOM      4  C   UNL     1      33.541 -14.854 -24.562  0.00  0.00    +0.240 C 
BRANCH   4   5
ATOM      5  C   UNL     1      33.707 -13.732 -23.545  0.00  0.00    +0.184 C 
BRANCH   5   6
ATOM      6  O   UNL     1      34.792 -14.060 -22.674  0.00  0.00    -0.378 OA
ATOM      7  H   UNL     1      34.873 -15.024 -22.607  0.00  0.00    +0.211 HD
ENDBRANCH   5   6
BRANCH   5   8
ATOM      8  C   UNL     1      32.456 -13.561 -22.693  0.00  0.00    +0.170 C 
BRANCH   8   9
ATOM      9  O   UNL     1      32.234 -14.757 -21.954  0.00  0.00    -0.379 OA
ATOM     10  H   UNL     1      33.086 -15.154 -21.717  0.00  0.00    +0.211 HD
ENDBRANCH   8   9
ENDBRANCH   5   8
ENDBRANCH   4   5
ENDBRANCH   3   4
ENDBRANCH   2   3
BRANCH   2  11
ATOM     11  C   UNL     1      35.001 -18.140 -23.819  0.00  0.00    +0.110 C 
BRANCH  11  12
ATOM     12  C   UNL     1      35.554 -17.714 -22.459  0.00  0.00    +0.012 C 
BRANCH  12  13
ATOM     13  C   UNL     1      34.680 -18.192 -21.295  0.00  0.00    +0.001 C 
BRANCH  13  14
ATOM     14  C   UNL     1      34.140 -19.602 -21.550  0.00  0.00    +0.000 C 
BRANCH  14  15
ATOM     15  C   UNL     1      32.957 -19.917 -20.633  0.00  0.00    +0.000 C 
BRANCH  15  16
ATOM     16  C   UNL     1      33.287 -21.059 -19.673  0.00  0.00    +0.000 C 
ATOM     17  C   UNL     1      34.779 -21.352 -19.647  0.00  0.00    +0.000 C 
ENDBRANCH  15  16
ENDBRANCH  14  15
ENDBRANCH  13  14
ENDBRANCH  12  13
ENDBRANCH  11  12
ENDBRANCH   2  11
TORSDOF 12
ENDMDL
MODEL 3
REMARK VINA RESULT:      -6.1      7.216     10.367
REMARK  Name = 3033877
REMARK  12 active torsions:
REMARK  status: ('A' for Active; 'I' for Inactive)
REMARK    1  A    between atoms: C_2  and  O_3
REMARK    2  A    between atoms: C_2  and  C_11
REMARK    3  A    between atoms: O_3  and  C_4
REMARK    4  A    between atoms: C_4  and  C_5
REMARK    5  A    between atoms: C_5  and  O_6
REMARK    6  A    between atoms: C_5  and  C_8
REMARK    7  A    between atoms: C_8  and  O_9
REMARK    8  A    between atoms: C_11  and  C_12
REMARK    9  A    between atoms: C_12  and  C_13
REMARK   10  A    between atoms: C_13  and  C_14
REMARK   11  A    between atoms: C_14  and  C_15
REMARK   12  A    between atoms: C_15  and  C_16
REMARK                            x       y       z     vdW  Elec       q    Type
REMARK                         _______ _______ _______ _____ _____    ______ ____
ROOT
ATOM      1  O   UNL     1      35.983 -24.354 -15.567  0.00  0.00    -0.250 OA
ATOM      2  C   UNL     1      36.969 -23.636 -15.479  0.00  0.00    +0.317 C 
ENDROOT
BRANCH   2   3
ATOM      3  O   UNL     1      37.991 -23.787 -14.584  0.00  0.00    -0.446 OA
BRANCH   3   4
ATOM      4  C   UNL     1      38.975 -24.765 -14.932  0.00  0.00    +0.240 C 
BRANCH   4   5
ATOM      5  C   UNL     1      38.905 -25.938 -13.961  0.00  0.00    +0.184 C 
BRANCH   5   6
ATOM      6  O   UNL     1      38.397 -27.079 -14.656  0.00  0.00    -0.378 OA
ATOM      7  H   UNL     1      38.229 -27.795 -14.023  0.00  0.00    +0.211 HD
ENDBRANCH   5   6
BRANCH   5   8
ATOM      8  C   UNL     1      37.967 -25.642 -12.797  0.00  0.00    +0.170 C 
BRANCH   8   9
ATOM      9  O   UNL     1      36.669 -26.133 -13.113  0.00  0.00    -0.379 OA
ATOM     10  H   UNL     1      36.719 -27.084 -13.298  0.00  0.00    +0.211 HD
ENDBRANCH   8   9
ENDBRANCH   5   8
ENDBRANCH   4   5
ENDBRANCH   3   4
ENDBRANCH   2   3
BRANCH   2  11
ATOM     11  C   UNL     1      37.269 -22.453 -16.372  0.00  0.00    +0.110 C 
BRANCH  11  12
ATOM     12  C   UNL     1      36.120 -22.106 -17.319  0.00  0.00    +0.012 C 
BRANCH  12  13
ATOM     13  C   UNL     1      36.607 -21.462 -18.620  0.00  0.00    +0.001 C 
BRANCH  13  14
ATOM     14  C   UNL     1      35.503 -21.447 -19.679  0.00  0.00    +0.000 C 
BRANCH  14  15
ATOM     15  C   UNL     1      35.557 -20.170 -20.520  0.00  0.00    +0.000 C 
BRANCH  15  16
ATOM     16  C   UNL     1      34.154 -19.675 -20.870  0.00  0.00    +0.000 C 
ATOM     17  C   UNL     1      33.082 -20.505 -20.181  0.00  0.00    +0.000 C 
ENDBRANCH  15  16
ENDBRANCH  14  15
ENDBRANCH  13  14
ENDBRANCH  12  13
ENDBRANCH  11  12
ENDBRANCH   2  11
TORSDOF 12
ENDMDL
MODEL 4
REMARK VINA RESULT:      -6.1      1.428      3.267
REMARK  Name = 3033877
REMARK  12 active torsions:
REMARK  status: ('A' for Active; 'I' for Inactive)
REMARK    1  A    between atoms: C_2  and  O_3
REMARK    2  A    between atoms: C_2  and  C_11
REMARK    3  A    between atoms: O_3  and  C_4
REMARK    4  A    between atoms: C_4  and  C_5
REMARK    5  A    between atoms: C_5  and  O_6
REMARK    6  A    between atoms: C_5  and  C_8
REMARK    7  A    between atoms: C_8  and  O_9
REMARK    8  A    between atoms: C_11  and  C_12
REMARK    9  A    between atoms: C_12  and  C_13
REMARK   10  A    between atoms: C_13  and  C_14
REMARK   11  A    between atoms: C_14  and  C_15
REMARK   12  A    between atoms: C_15  and  C_16
REMARK                            x       y       z     vdW  Elec       q    Type
REMARK                         _______ _______ _______ _____ _____    ______ ____
ROOT
ATOM      1  O   UNL     1      35.159 -16.423 -20.293  0.00  0.00    -0.250 OA
ATOM      2  C   UNL     1      35.024 -16.865 -21.425  0.00  0.00    +0.317 C 
ENDROOT
BRANCH   2   3
ATOM      3  O   UNL     1      34.275 -16.302 -22.420  0.00  0.00    -0.446 OA
BRANCH   3   4
ATOM      4  C   UNL     1      34.980 -16.003 -23.629  0.00  0.00    +0.240 C 
BRANCH   4   5
ATOM      5  C   UNL     1      34.100 -16.318 -24.832  0.00  0.00    +0.184 C 
BRANCH   5   6
ATOM      6  O   UNL     1      34.917 -16.869 -25.867  0.00  0.00    -0.378 OA
ATOM      7  H   UNL     1      35.666 -17.342 -25.471  0.00  0.00    +0.211 HD
ENDBRANCH   5   6
BRANCH   5   8
ATOM      8  C   UNL     1      33.433 -15.062 -25.379  0.00  0.00    +0.170 C 
BRANCH   8   9
ATOM      9  O   UNL     1      33.546 -15.059 -26.797  0.00  0.00    -0.379 OA
ATOM     10  H   UNL     1      32.661 -15.034 -27.192  0.00  0.00    +0.211 HD
ENDBRANCH   8   9
ENDBRANCH   5   8
ENDBRANCH   4   5
ENDBRANCH   3   4
ENDBRANCH   2   3
BRANCH   2  11
ATOM     11  C   UNL     1      35.695 -18.111 -21.960  0.00  0.00    +0.110 C 
BRANCH  11  12
ATOM     12  C   UNL     1      34.751 -19.310 -22.054  0.00  0.00    +0.012 C 
BRANCH  12  13
ATOM     13  C   UNL     1      33.568 -19.200 -21.088  0.00  0.00    +0.001 C 
BRANCH  13  14
ATOM     14  C   UNL     1      33.487 -20.421 -20.169  0.00  0.00    +0.000 C 
BRANCH  14  15
ATOM     15  C   UNL     1      34.871 -21.022 -19.920  0.00  0.00    +0.000 C 
BRANCH  15  16
ATOM     16  C   UNL     1      34.798 -22.208 -18.959  0.00  0.00    +0.000 C 
ATOM     17  C   UNL     1      33.370 -22.472 -18.508  0.00  0.00    +0.000 C 
ENDBRANCH  15  16
ENDBRANCH  14  15
ENDBRANCH  13  14
ENDBRANCH  12  13
ENDBRANCH  11  12
ENDBRANCH   2  11
TORSDOF 12
ENDMDL
MODEL 5
REMARK VINA RESULT:      -6.0      7.375     10.727
REMARK  Name = 3033877
REMARK  12 active torsions:
REMARK  status: ('A' for Active; 'I' for Inactive)
REMARK    1  A    between atoms: C_2  and  O_3
REMARK    2  A    between atoms: C_2  and  C_11
REMARK    3  A    between atoms: O_3  and  C_4
REMARK    4  A    between atoms: C_4  and  C_5
REMARK    5  A    between atoms: C_5  and  O_6
REMARK    6  A    between atoms: C_5  and  C_8
REMARK    7  A    between atoms: C_8  and  O_9
REMARK    8  A    between atoms: C_11  and  C_12
REMARK    9  A    between atoms: C_12  and  C_13
REMARK   10  A    between atoms: C_13  and  C_14
REMARK   11  A    between atoms: C_14  and  C_15
REMARK   12  A    between atoms: C_15  and  C_16
REMARK                            x       y       z     vdW  Elec       q    Type
REMARK                         _______ _______ _______ _____ _____    ______ ____
ROOT
ATOM      1  O   UNL     1      35.634 -26.064 -15.614  0.00  0.00    -0.250 OA
ATOM      2  C   UNL     1      35.583 -24.943 -15.126  0.00  0.00    +0.317 C 
ENDROOT
BRANCH   2   3
ATOM      3  O   UNL     1      36.525 -24.381 -14.312  0.00  0.00    -0.446 OA
BRANCH   3   4
ATOM      4  C   UNL     1      37.880 -24.513 -14.754  0.00  0.00    +0.240 C 
BRANCH   4   5
ATOM      5  C   UNL     1      38.585 -25.594 -13.944  0.00  0.00    +0.184 C 
BRANCH   5   6
ATOM      6  O   UNL     1      38.485 -26.834 -14.648  0.00  0.00    -0.378 OA
ATOM      7  H   UNL     1      37.635 -26.874 -15.113  0.00  0.00    +0.211 HD
ENDBRANCH   5   6
BRANCH   5   8
ATOM      8  C   UNL     1      37.938 -25.778 -12.577  0.00  0.00    +0.170 C 
BRANCH   8   9
ATOM      9  O   UNL     1      36.885 -26.729 -12.687  0.00  0.00    -0.379 OA
ATOM     10  H   UNL     1      36.796 -27.006 -13.612  0.00  0.00    +0.211 HD
ENDBRANCH   8   9
ENDBRANCH   5   8
ENDBRANCH   4   5
ENDBRANCH   3   4
ENDBRANCH   2   3
BRANCH   2  11
ATOM     11  C   UNL     1      34.474 -23.940 -15.360  0.00  0.00    +0.110 C 
BRANCH  11  12
ATOM     12  C   UNL     1      34.710 -23.058 -16.585  0.00  0.00    +0.012 C 
BRANCH  12  13
ATOM     13  C   UNL     1      33.532 -23.087 -17.564  0.00  0.00    +0.001 C 
BRANCH  13  14
ATOM     14  C   UNL     1      33.983 -22.750 -18.986  0.00  0.00    +0.000 C 
BRANCH  14  15
ATOM     15  C   UNL     1      33.436 -21.394 -19.436  0.00  0.00    +0.000 C 
BRANCH  15  16
ATOM     16  C   UNL     1      34.490 -20.598 -20.206  0.00  0.00    +0.000 C 
ATOM     17  C   UNL     1      35.897 -21.069 -19.874  0.00  0.00    +0.000 C 
ENDBRANCH  15  16
ENDBRANCH  14  15
ENDBRANCH  13  14
ENDBRANCH  12  13
ENDBRANCH  11  12
ENDBRANCH   2  11
TORSDOF 12
ENDMDL
MODEL 6
REMARK VINA RESULT:      -6.0      7.323     10.475
REMARK  Name = 3033877
REMARK  12 active torsions:
REMARK  status: ('A' for Active; 'I' for Inactive)
REMARK    1  A    between atoms: C_2  and  O_3
REMARK    2  A    between atoms: C_2  and  C_11
REMARK    3  A    between atoms: O_3  and  C_4
REMARK    4  A    between atoms: C_4  and  C_5
REMARK    5  A    between atoms: C_5  and  O_6
REMARK    6  A    between atoms: C_5  and  C_8
REMARK    7  A    between atoms: C_8  and  O_9
REMARK    8  A    between atoms: C_11  and  C_12
REMARK    9  A    between atoms: C_12  and  C_13
REMARK   10  A    between atoms: C_13  and  C_14
REMARK   11  A    between atoms: C_14  and  C_15
REMARK   12  A    between atoms: C_15  and  C_16
REMARK                            x       y       z     vdW  Elec       q    Type
REMARK                         _______ _______ _______ _____ _____    ______ ____
ROOT
ATOM      1  O   UNL     1      35.533 -22.797 -14.860  0.00  0.00    -0.250 OA
ATOM      2  C   UNL     1      36.634 -23.232 -15.166  0.00  0.00    +0.317 C 
ENDROOT
BRANCH   2   3
ATOM      3  O   UNL     1      37.218 -24.360 -14.663  0.00  0.00    -0.446 OA
BRANCH   3   4
ATOM      4  C   UNL     1      36.355 -25.215 -13.905  0.00  0.00    +0.240 C 
BRANCH   4   5
ATOM      5  C   UNL     1      36.723 -25.143 -12.428  0.00  0.00    +0.184 C 
BRANCH   5   6
ATOM      6  O   UNL     1      36.809 -26.473 -11.911  0.00  0.00    -0.378 OA
ATOM      7  H   UNL     1      37.711 -26.810 -12.033  0.00  0.00    +0.211 HD
ENDBRANCH   5   6
BRANCH   5   8
ATOM      8  C   UNL     1      35.666 -24.395 -11.626  0.00  0.00    +0.170 C 
BRANCH   8   9
ATOM      9  O   UNL     1      35.316 -25.172 -10.486  0.00  0.00    -0.379 OA
ATOM     10  H   UNL     1      35.477 -24.655  -9.681  0.00  0.00    +0.211 HD
ENDBRANCH   8   9
ENDBRANCH   5   8
ENDBRANCH   4   5
ENDBRANCH   3   4
ENDBRANCH   2   3
BRANCH   2  11
ATOM     11  C   UNL     1      37.558 -22.620 -16.196  0.00  0.00    +0.110 C 
BRANCH  11  12
ATOM     12  C   UNL     1      36.944 -21.420 -16.918  0.00  0.00    +0.012 C 
BRANCH  12  13
ATOM     13  C   UNL     1      36.750 -21.675 -18.416  0.00  0.00    +0.001 C 
BRANCH  13  14
ATOM     14  C   UNL     1      35.288 -21.987 -18.740  0.00  0.00    +0.000 C 
BRANCH  14  15
ATOM     15  C   UNL     1      34.769 -21.104 -19.877  0.00  0.00    +0.000 C 
BRANCH  15  16
ATOM     16  C   UNL     1      33.254 -20.926 -19.795  0.00  0.00    +0.000 C 
ATOM     17  C   UNL     1      32.773 -19.816 -20.716  0.00  0.00    +0.000 C 
ENDBRANCH  15  16
ENDBRANCH  14  15
ENDBRANCH  13  14
ENDBRANCH  12  13
ENDBRANCH  11  12
ENDBRANCH   2  11
TORSDOF 12
ENDMDL
MODEL 7
REMARK VINA RESULT:      -6.0      5.038      8.146
REMARK  Name = 3033877
REMARK  12 active torsions:
REMARK  status: ('A' for Active; 'I' for Inactive)
REMARK    1  A    between atoms: C_2  and  O_3
REMARK    2  A    between atoms: C_2  and  C_11
REMARK    3  A    between atoms: O_3  and  C_4
REMARK    4  A    between atoms: C_4  and  C_5
REMARK    5  A    between atoms: C_5  and  O_6
REMARK    6  A    between atoms: C_5  and  C_8
REMARK    7  A    between atoms: C_8  and  O_9
REMARK    8  A    between atoms: C_11  and  C_12
REMARK    9  A    between atoms: C_12  and  C_13
REMARK   10  A    between atoms: C_13  and  C_14
REMARK   11  A    between atoms: C_14  and  C_15
REMARK   12  A    between atoms: C_15  and  C_16
REMARK                            x       y       z     vdW  Elec       q    Type
REMARK                         _______ _______ _______ _____ _____    ______ ____
ROOT
ATOM      1  O   UNL     1      33.814 -23.698 -19.101  0.00  0.00    -0.250 OA
ATOM      2  C   UNL     1      34.424 -22.700 -18.742  0.00  0.00    +0.317 C 
ENDROOT
BRANCH   2   3
ATOM      3  O   UNL     1      35.193 -22.592 -17.618  0.00  0.00    -0.446 OA
BRANCH   3   4
ATOM      4  C   UNL     1      34.653 -23.201 -16.441  0.00  0.00    +0.240 C 
BRANCH   4   5
ATOM      5  C   UNL     1      35.777 -23.532 -15.467  0.00  0.00    +0.184 C 
BRANCH   5   6
ATOM      6  O   UNL     1      37.025 -23.442 -16.159  0.00  0.00    -0.378 OA
ATOM      7  H   UNL     1      37.713 -23.891 -15.644  0.00  0.00    +0.211 HD
ENDBRANCH   5   6
BRANCH   5   8
ATOM      8  C   UNL     1      35.644 -24.949 -14.922  0.00  0.00    +0.170 C 
BRANCH   8   9
ATOM      9  O   UNL     1      36.404 -25.832 -15.740  0.00  0.00    -0.379 OA
ATOM     10  H   UNL     1      37.200 -25.377 -16.053  0.00  0.00    +0.211 HD
ENDBRANCH   8   9
ENDBRANCH   5   8
ENDBRANCH   4   5
ENDBRANCH   3   4
ENDBRANCH   2   3
BRANCH   2  11
ATOM     11  C   UNL     1      34.475 -21.391 -19.499  0.00  0.00    +0.110 C 
BRANCH  11  12
ATOM     12  C   UNL     1      33.091 -20.818 -19.805  0.00  0.00    +0.012 C 
BRANCH  12  13
ATOM     13  C   UNL     1      33.132 -19.733 -20.885  0.00  0.00    +0.001 C 
BRANCH  13  14
ATOM     14  C   UNL     1      34.529 -19.613 -21.498  0.00  0.00    +0.000 C 
BRANCH  14  15
ATOM     15  C   UNL     1      34.891 -18.153 -21.775  0.00  0.00    +0.000 C 
BRANCH  15  16
ATOM     16  C   UNL     1      35.378 -17.963 -23.211  0.00  0.00    +0.000 C 
ATOM     17  C   UNL     1      34.715 -18.949 -24.159  0.00  0.00    +0.000 C 
ENDBRANCH  15  16
ENDBRANCH  14  15
ENDBRANCH  13  14
ENDBRANCH  12  13
ENDBRANCH  11  12
ENDBRANCH   2  11
TORSDOF 12
ENDMDL
MODEL 8
REMARK VINA RESULT:      -5.8      2.158      3.689
REMARK  Name = 3033877
REMARK  12 active torsions:
REMARK  status: ('A' for Active; 'I' for Inactive)
REMARK    1  A    between atoms: C_2  and  O_3
REMARK    2  A    between atoms: C_2  and  C_11
REMARK    3  A    between atoms: O_3  and  C_4
REMARK    4  A    between atoms: C_4  and  C_5
REMARK    5  A    between atoms: C_5  and  O_6
REMARK    6  A    between atoms: C_5  and  C_8
REMARK    7  A    between atoms: C_8  and  O_9
REMARK    8  A    between atoms: C_11  and  C_12
REMARK    9  A    between atoms: C_12  and  C_13
REMARK   10  A    between atoms: C_13  and  C_14
REMARK   11  A    between atoms: C_14  and  C_15
REMARK   12  A    between atoms: C_15  and  C_16
REMARK                            x       y       z     vdW  Elec       q    Type
REMARK                         _______ _______ _______ _____ _____    ______ ____
ROOT
ATOM      1  O   UNL     1      33.054 -14.787 -22.178  0.00  0.00    -0.250 OA
ATOM      2  C   UNL     1      33.873 -15.128 -23.018  0.00  0.00    +0.317 C 
ENDROOT
BRANCH   2   3
ATOM      3  O   UNL     1      34.009 -14.591 -24.268  0.00  0.00    -0.446 OA
BRANCH   3   4
ATOM      4  C   UNL     1      32.809 -14.074 -24.851  0.00  0.00    +0.240 C 
BRANCH   4   5
ATOM      5  C   UNL     1      32.781 -14.389 -26.341  0.00  0.00    +0.184 C 
BRANCH   5   6
ATOM      6  O   UNL     1      33.614 -15.524 -26.586  0.00  0.00    -0.378 OA
ATOM      7  H   UNL     1      34.361 -15.262 -27.147  0.00  0.00    +0.211 HD
ENDBRANCH   5   6
BRANCH   5   8
ATOM      8  C   UNL     1      33.317 -13.226 -27.167  0.00  0.00    +0.170 C 
BRANCH   8   9
ATOM      9  O   UNL     1      33.718 -12.182 -26.287  0.00  0.00    -0.379 OA
ATOM     10  H   UNL     1      34.675 -12.045 -26.362  0.00  0.00    +0.211 HD
ENDBRANCH   8   9
ENDBRANCH   5   8
ENDBRANCH   4   5
ENDBRANCH   3   4
ENDBRANCH   2   3
BRANCH   2  11
ATOM     11  C   UNL     1      34.929 -16.195 -22.825  0.00  0.00    +0.110 C 
BRANCH  11  12
ATOM     12  C   UNL     1      34.899 -17.275 -23.906  0.00  0.00    +0.012 C 
BRANCH  12  13
ATOM     13  C   UNL     1      35.013 -18.688 -23.326  0.00  0.00    +0.001 C 
BRANCH  13  14
ATOM     14  C   UNL     1      35.881 -18.701 -22.065  0.00  0.00    +0.000 C 
BRANCH  14  15
ATOM     15  C   UNL     1      35.228 -19.520 -20.950  0.00  0.00    +0.000 C 
BRANCH  15  16
ATOM     16  C   UNL     1      33.704 -19.456 -21.033  0.00  0.00    +0.000 C 
ATOM     17  C   UNL     1      33.053 -20.506 -20.147  0.00  0.00    +0.000 C 
ENDBRANCH  15  16
ENDBRANCH  14  15
ENDBRANCH  13  14
ENDBRANCH  12  13
ENDBRANCH  11  12
ENDBRANCH   2  11
TORSDOF 12
ENDMDL
MODEL 9
REMARK VINA RESULT:      -5.8      7.548     10.967
REMARK  Name = 3033877
REMARK  12 active torsions:
REMARK  status: ('A' for Active; 'I' for Inactive)
REMARK    1  A    between atoms: C_2  and  O_3
REMARK    2  A    between atoms: C_2  and  C_11
REMARK    3  A    between atoms: O_3  and  C_4
REMARK    4  A    between atoms: C_4  and  C_5
REMARK    5  A    between atoms: C_5  and  O_6
REMARK    6  A    between atoms: C_5  and  C_8
REMARK    7  A    between atoms: C_8  and  O_9
REMARK    8  A    between atoms: C_11  and  C_12
REMARK    9  A    between atoms: C_12  and  C_13
REMARK   10  A    between atoms: C_13  and  C_14
REMARK   11  A    between atoms: C_14  and  C_15
REMARK   12  A    between atoms: C_15  and  C_16
REMARK                            x       y       z     vdW  Elec       q    Type
REMARK                         _______ _______ _______ _____ _____    ______ ____
ROOT
ATOM      1  O   UNL     1      35.999 -26.159 -15.766  0.00  0.00    -0.250 OA
ATOM      2  C   UNL     1      35.885 -25.350 -14.856  0.00  0.00    +0.317 C 
ENDROOT
BRANCH   2   3
ATOM      3  O   UNL     1      36.571 -25.374 -13.674  0.00  0.00    -0.446 OA
BRANCH   3   4
ATOM      4  C   UNL     1      37.698 -26.256 -13.633  0.00  0.00    +0.240 C 
BRANCH   4   5
ATOM      5  C   UNL     1      38.982 -25.448 -13.498  0.00  0.00    +0.184 C 
BRANCH   5   6
ATOM      6  O   UNL     1      38.651 -24.129 -13.058  0.00  0.00    -0.378 OA
ATOM      7  H   UNL     1      39.461 -23.599 -12.987  0.00  0.00    +0.211 HD
ENDBRANCH   5   6
BRANCH   5   8
ATOM      8  C   UNL     1      39.709 -25.330 -14.832  0.00  0.00    +0.170 C 
BRANCH   8   9
ATOM      9  O   UNL     1      41.050 -24.917 -14.592  0.00  0.00    -0.379 OA
ATOM     10  H   UNL     1      41.386 -25.355 -13.795  0.00  0.00    +0.211 HD
ENDBRANCH   8   9
ENDBRANCH   5   8
ENDBRANCH   4   5
ENDBRANCH   3   4
ENDBRANCH   2   3
BRANCH   2  11
ATOM     11  C   UNL     1      34.983 -24.136 -14.875  0.00  0.00    +0.110 C 
BRANCH  11  12
ATOM     12  C   UNL     1      35.295 -23.172 -16.020  0.00  0.00    +0.012 C 
BRANCH  12  13
ATOM     13  C   UNL     1      36.742 -22.671 -15.987  0.00  0.00    +0.001 C 
BRANCH  13  14
ATOM     14  C   UNL     1      37.046 -21.773 -17.188  0.00  0.00    +0.000 C 
BRANCH  14  15
ATOM     15  C   UNL     1      35.965 -21.899 -18.263  0.00  0.00    +0.000 C 
BRANCH  15  16
ATOM     16  C   UNL     1      36.361 -21.156 -19.538  0.00  0.00    +0.000 C 
ATOM     17  C   UNL     1      35.146 -20.579 -20.248  0.00  0.00    +0.000 C 
ENDBRANCH  15  16
ENDBRANCH  14  15
ENDBRANCH  13  14
ENDBRANCH  12  13
ENDBRANCH  11  12
ENDBRANCH   2  11
TORSDOF 12
ENDMDL
