MODEL 1
REMARK VINA RESULT:      -9.3      0.000      0.000
REMARK  Name = 33613
REMARK  7 active torsions:
REMARK  status: ('A' for Active; 'I' for Inactive)
REMARK    1  A    between atoms: N_2  and  CA_11
REMARK    2  A    between atoms: C_3  and  CA_19
REMARK    3  A    between atoms: CA_10  and  C_16
REMARK    4  A    between atoms: C_16  and  O_17
REMARK    5  A    between atoms: CA_19  and  C_20
REMARK    6  A    between atoms: CA_19  and  N_28
REMARK    7  A    between atoms: C_25  and  O_26
REMARK                            x       y       z     vdW  Elec       q    Type
REMARK                         _______ _______ _______ _____ _____    ______ ____
ROOT
ATOM      1  O   UNL     1      33.192 -23.231 -16.190  0.00  0.00    -0.277 OA
ATOM      2  N   UNL     1      34.285 -24.794 -14.872  0.00  0.00    -0.298 N 
ATOM      3  C   UNL     1      33.218 -23.953 -15.195  0.00  0.00    +0.206 C 
ATOM      4  H   UNL     1      34.223 -25.339 -14.055  0.00  0.00    +0.150 HD
ENDROOT
BRANCH   2  11
ATOM      5  S   UNL     1      36.611 -23.234 -13.654  0.00  0.00    -0.118 S 
ATOM      6  O   UNL     1      36.222 -27.306 -15.232  0.00  0.00    -0.273 OA
ATOM      7  N   UNL     1      37.434 -25.290 -15.060  0.00  0.00    -0.260 N 
ATOM      8  C   UNL     1      36.707 -24.042 -15.296  0.00  0.00    +0.151 C 
ATOM      9  C   UNL     1      37.635 -24.532 -12.799  0.00  0.00    +0.068 C 
ATOM     10  CA  UNL     1      38.302 -25.376 -13.908  0.00  0.00    +0.184 C 
ATOM     11  CA  UNL     1      35.497 -24.903 -15.696  0.00  0.00    +0.178 C 
ATOM     12  C   UNL     1      36.386 -26.112 -15.346  0.00  0.00    +0.247 C 
ATOM     13  C   UNL     1      38.633 -23.845 -11.859  0.00  0.00    +0.013 C 
ATOM     14  C   UNL     1      36.676 -25.395 -11.961  0.00  0.00    +0.013 C 
BRANCH  10  16
ATOM     15  OXT UNL     1      40.695 -25.046 -13.863  0.00  0.00    -0.248 OA
ATOM     16  C   UNL     1      39.617 -24.862 -14.409  0.00  0.00    +0.333 C 
BRANCH  16  17
ATOM     17  O   UNL     1      39.452 -24.157 -15.555  0.00  0.00    -0.479 OA
ATOM     18  H   UNL     1      40.199 -23.888 -16.052  0.00  0.00    +0.295 HD
ENDBRANCH  16  17
ENDBRANCH  10  16
ENDBRANCH   2  11
BRANCH   3  19
ATOM     19  CA  UNL     1      32.089 -24.003 -14.171  0.00  0.00    +0.036 C 
BRANCH  19  20
ATOM     20  C   UNL     1      30.752 -23.738 -14.830  0.00  0.00    -0.034 C 
ATOM     21  C   UNL     1      30.134 -24.755 -15.534  0.00  0.00    -0.003 C 
ATOM     22  C   UNL     1      30.179 -22.484 -14.713  0.00  0.00    -0.003 C 
ATOM     23  C   UNL     1      28.902 -24.511 -16.143  0.00  0.00    +0.036 C 
ATOM     24  C   UNL     1      28.948 -22.238 -15.321  0.00  0.00    +0.036 C 
ATOM     25  C   UNL     1      28.310 -23.252 -16.036  0.00  0.00    +0.134 C 
BRANCH  25  26
ATOM     26  O   UNL     1      27.108 -23.015 -16.628  0.00  0.00    -0.506 OA
ATOM     27  H   UNL     1      27.032 -23.041 -17.562  0.00  0.00    +0.292 HD
ENDBRANCH  25  26
ENDBRANCH  19  20
BRANCH  19  28
ATOM     28  N   UNL     1      32.139 -25.313 -13.516  0.00  0.00    +0.390 N 
ATOM     29  H1  UNL     1      31.325 -25.863 -13.792  0.00  0.00    -0.088 HD
ATOM     30  H2  UNL     1      32.139 -25.189 -12.504  0.00  0.00    -0.088 HD
ATOM     31  H3  UNL     1      32.989 -25.802 -13.799  0.00  0.00    -0.088 HD
ENDBRANCH  19  28
ENDBRANCH   3  19
TORSDOF 7
ENDMDL
MODEL 2
REMARK VINA RESULT:      -7.7      1.771      2.411
REMARK  Name = 33613
REMARK  7 active torsions:
REMARK  status: ('A' for Active; 'I' for Inactive)
REMARK    1  A    between atoms: N_2  and  CA_11
REMARK    2  A    between atoms: C_3  and  CA_19
REMARK    3  A    between atoms: CA_10  and  C_16
REMARK    4  A    between atoms: C_16  and  O_17
REMARK    5  A    between atoms: CA_19  and  C_20
REMARK    6  A    between atoms: CA_19  and  N_28
REMARK    7  A    between atoms: C_25  and  O_26
REMARK                            x       y       z     vdW  Elec       q    Type
REMARK                         _______ _______ _______ _____ _____    ______ ____
ROOT
ATOM      1  O   UNL     1      32.173 -22.380 -12.808  0.00  0.00    -0.277 OA
ATOM      2  N   UNL     1      33.143 -23.574 -14.542  0.00  0.00    -0.298 N 
ATOM      3  C   UNL     1      32.136 -23.310 -13.612  0.00  0.00    +0.206 C 
ATOM      4  H   UNL     1      33.033 -24.340 -15.150  0.00  0.00    +0.150 HD
ENDROOT
BRANCH   2  11
ATOM      5  S   UNL     1      35.483 -24.849 -13.050  0.00  0.00    -0.118 S 
ATOM      6  O   UNL     1      35.040 -23.183 -17.081  0.00  0.00    -0.273 OA
ATOM      7  N   UNL     1      36.285 -23.410 -15.091  0.00  0.00    -0.260 N 
ATOM      8  C   UNL     1      35.582 -23.192 -13.825  0.00  0.00    +0.151 C 
ATOM      9  C   UNL     1      36.474 -25.689 -14.383  0.00  0.00    +0.068 C 
ATOM     10  CA  UNL     1      37.138 -24.569 -15.216  0.00  0.00    +0.184 C 
ATOM     11  CA  UNL     1      34.363 -22.761 -14.656  0.00  0.00    +0.178 C 
ATOM     12  C   UNL     1      35.226 -23.095 -15.888  0.00  0.00    +0.247 C 
ATOM     13  C   UNL     1      37.474 -26.653 -13.734  0.00  0.00    +0.013 C 
ATOM     14  C   UNL     1      35.491 -26.497 -15.246  0.00  0.00    +0.013 C 
BRANCH  10  16
ATOM     15  OXT UNL     1      38.769 -23.965 -13.538  0.00  0.00    -0.248 OA
ATOM     16  C   UNL     1      38.468 -24.093 -14.715  0.00  0.00    +0.333 C 
BRANCH  16  17
ATOM     17  O   UNL     1      39.300 -23.820 -15.750  0.00  0.00    -0.479 OA
ATOM     18  H   UNL     1      39.602 -24.512 -16.304  0.00  0.00    +0.295 HD
ENDBRANCH  16  17
ENDBRANCH  10  16
ENDBRANCH   2  11
BRANCH   3  19
ATOM     19  CA  UNL     1      30.986 -24.309 -13.679  0.00  0.00    +0.036 C 
BRANCH  19  20
ATOM     20  C   UNL     1      30.058 -23.987 -14.831  0.00  0.00    -0.034 C 
ATOM     21  C   UNL     1      29.859 -22.665 -15.187  0.00  0.00    -0.003 C 
ATOM     22  C   UNL     1      29.429 -25.021 -15.501  0.00  0.00    -0.003 C 
ATOM     23  C   UNL     1      29.002 -22.366 -16.247  0.00  0.00    +0.036 C 
ATOM     24  C   UNL     1      28.572 -24.724 -16.562  0.00  0.00    +0.036 C 
ATOM     25  C   UNL     1      28.360 -23.396 -16.934  0.00  0.00    +0.134 C 
BRANCH  25  26
ATOM     26  O   UNL     1      27.526 -23.105 -17.969  0.00  0.00    -0.506 OA
ATOM     27  H   UNL     1      27.211 -23.790 -18.525  0.00  0.00    +0.292 HD
ENDBRANCH  25  26
ENDBRANCH  19  20
BRANCH  19  28
ATOM     28  N   UNL     1      31.567 -25.651 -13.789  0.00  0.00    +0.390 N 
ATOM     29  H1  UNL     1      32.264 -25.780 -13.056  0.00  0.00    -0.088 HD
ATOM     30  H2  UNL     1      32.008 -25.757 -14.702  0.00  0.00    -0.088 HD
ATOM     31  H3  UNL     1      30.830 -26.349 -13.684  0.00  0.00    -0.088 HD
ENDBRANCH  19  28
ENDBRANCH   3  19
TORSDOF 7
ENDMDL
MODEL 3
REMARK VINA RESULT:      -7.6      2.318      2.957
REMARK  Name = 33613
REMARK  7 active torsions:
REMARK  status: ('A' for Active; 'I' for Inactive)
REMARK    1  A    between atoms: N_2  and  CA_11
REMARK    2  A    between atoms: C_3  and  CA_19
REMARK    3  A    between atoms: CA_10  and  C_16
REMARK    4  A    between atoms: C_16  and  O_17
REMARK    5  A    between atoms: CA_19  and  C_20
REMARK    6  A    between atoms: CA_19  and  N_28
REMARK    7  A    between atoms: C_25  and  O_26
REMARK                            x       y       z     vdW  Elec       q    Type
REMARK                         _______ _______ _______ _____ _____    ______ ____
ROOT
ATOM      1  O   UNL     1      34.986 -22.385 -17.793  0.00  0.00    -0.277 OA
ATOM      2  N   UNL     1      34.627 -22.869 -15.554  0.00  0.00    -0.298 N 
ATOM      3  C   UNL     1      34.271 -22.845 -16.904  0.00  0.00    +0.206 C 
ATOM      4  H   UNL     1      33.994 -23.257 -14.908  0.00  0.00    +0.150 HD
ENDROOT
BRANCH   2  11
ATOM      5  S   UNL     1      35.691 -24.539 -13.230  0.00  0.00    -0.118 S 
ATOM      6  O   UNL     1      37.510 -23.020 -16.918  0.00  0.00    -0.273 OA
ATOM      7  N   UNL     1      37.625 -23.408 -14.594  0.00  0.00    -0.260 N 
ATOM      8  C   UNL     1      36.485 -22.983 -13.781  0.00  0.00    +0.151 C 
ATOM      9  C   UNL     1      36.979 -25.637 -14.004  0.00  0.00    +0.068 C 
ATOM     10  CA  UNL     1      38.172 -24.728 -14.378  0.00  0.00    +0.184 C 
ATOM     11  CA  UNL     1      35.905 -22.343 -15.053  0.00  0.00    +0.178 C 
ATOM     12  C   UNL     1      37.143 -22.915 -15.770  0.00  0.00    +0.247 C 
ATOM     13  C   UNL     1      37.339 -26.758 -13.024  0.00  0.00    +0.013 C 
ATOM     14  C   UNL     1      36.354 -26.259 -15.265  0.00  0.00    +0.013 C 
BRANCH  10  16
ATOM     15  OXT UNL     1      38.969 -24.008 -12.214  0.00  0.00    -0.248 OA
ATOM     16  C   UNL     1      39.192 -24.523 -13.299  0.00  0.00    +0.333 C 
BRANCH  16  17
ATOM     17  O   UNL     1      40.403 -24.987 -13.691  0.00  0.00    -0.479 OA
ATOM     18  H   UNL     1      40.460 -25.682 -14.317  0.00  0.00    +0.295 HD
ENDBRANCH  16  17
ENDBRANCH  10  16
ENDBRANCH   2  11
BRANCH   3  19
ATOM     19  CA  UNL     1      32.887 -23.431 -17.166  0.00  0.00    +0.036 C 
BRANCH  19  20
ATOM     20  C   UNL     1      32.160 -23.696 -15.866  0.00  0.00    -0.034 C 
ATOM     21  C   UNL     1      32.567 -24.752 -15.069  0.00  0.00    -0.003 C 
ATOM     22  C   UNL     1      31.104 -22.879 -15.503  0.00  0.00    -0.003 C 
ATOM     23  C   UNL     1      31.895 -24.999 -13.871  0.00  0.00    +0.036 C 
ATOM     24  C   UNL     1      30.433 -23.125 -14.305  0.00  0.00    +0.036 C 
ATOM     25  C   UNL     1      30.829 -24.185 -13.490  0.00  0.00    +0.134 C 
BRANCH  25  26
ATOM     26  O   UNL     1      30.176 -24.425 -12.320  0.00  0.00    -0.506 OA
ATOM     27  H   UNL     1      29.638 -25.187 -12.231  0.00  0.00    +0.292 HD
ENDBRANCH  25  26
ENDBRANCH  19  20
BRANCH  19  28
ATOM     28  N   UNL     1      32.163 -22.494 -18.030  0.00  0.00    +0.390 N 
ATOM     29  H1  UNL     1      31.914 -22.959 -18.903  0.00  0.00    -0.088 HD
ATOM     30  H2  UNL     1      32.755 -21.688 -18.231  0.00  0.00    -0.088 HD
ATOM     31  H3  UNL     1      31.314 -22.183 -17.557  0.00  0.00    -0.088 HD
ENDBRANCH  19  28
ENDBRANCH   3  19
TORSDOF 7
ENDMDL
MODEL 4
REMARK VINA RESULT:      -7.5      1.950      2.552
REMARK  Name = 33613
REMARK  7 active torsions:
REMARK  status: ('A' for Active; 'I' for Inactive)
REMARK    1  A    between atoms: N_2  and  CA_11
REMARK    2  A    between atoms: C_3  and  CA_19
REMARK    3  A    between atoms: CA_10  and  C_16
REMARK    4  A    between atoms: C_16  and  O_17
REMARK    5  A    between atoms: CA_19  and  C_20
REMARK    6  A    between atoms: CA_19  and  N_28
REMARK    7  A    between atoms: C_25  and  O_26
REMARK                            x       y       z     vdW  Elec       q    Type
REMARK                         _______ _______ _______ _____ _____    ______ ____
ROOT
ATOM      1  O   UNL     1      32.649 -25.430 -13.896  0.00  0.00    -0.277 OA
ATOM      2  N   UNL     1      34.195 -23.961 -12.987  0.00  0.00    -0.298 N 
ATOM      3  C   UNL     1      32.986 -24.283 -13.606  0.00  0.00    +0.206 C 
ATOM      4  H   UNL     1      34.385 -23.015 -12.791  0.00  0.00    +0.150 HD
ENDROOT
BRANCH   2  11
ATOM      5  S   UNL     1      36.086 -24.568 -15.307  0.00  0.00    -0.118 S 
ATOM      6  O   UNL     1      36.729 -23.628 -11.073  0.00  0.00    -0.273 OA
ATOM      7  N   UNL     1      37.241 -24.921 -12.978  0.00  0.00    -0.260 N 
ATOM      8  C   UNL     1      36.121 -25.494 -13.727  0.00  0.00    +0.151 C 
ATOM      9  C   UNL     1      37.615 -23.578 -14.924  0.00  0.00    +0.068 C 
ATOM     10  CA  UNL     1      38.293 -24.256 -13.711  0.00  0.00    +0.184 C 
ATOM     11  CA  UNL     1      35.198 -24.968 -12.615  0.00  0.00    +0.178 C 
ATOM     12  C   UNL     1      36.476 -24.378 -11.988  0.00  0.00    +0.247 C 
ATOM     13  C   UNL     1      38.500 -23.516 -16.173  0.00  0.00    +0.013 C 
ATOM     14  C   UNL     1      37.161 -22.153 -14.564  0.00  0.00    +0.013 C 
BRANCH  10  16
ATOM     15  OXT UNL     1      38.935 -26.484 -14.393  0.00  0.00    -0.248 OA
ATOM     16  C   UNL     1      39.254 -25.357 -14.041  0.00  0.00    +0.333 C 
BRANCH  16  17
ATOM     17  O   UNL     1      40.534 -24.936 -13.895  0.00  0.00    -0.479 OA
ATOM     18  H   UNL     1      40.828 -24.167 -14.341  0.00  0.00    +0.295 HD
ENDBRANCH  16  17
ENDBRANCH  10  16
ENDBRANCH   2  11
BRANCH   3  19
ATOM     19  CA  UNL     1      32.127 -23.059 -13.910  0.00  0.00    +0.036 C 
BRANCH  19  20
ATOM     20  C   UNL     1      30.959 -23.427 -14.799  0.00  0.00    -0.034 C 
ATOM     21  C   UNL     1      30.033 -24.351 -14.348  0.00  0.00    -0.003 C 
ATOM     22  C   UNL     1      30.845 -22.833 -16.043  0.00  0.00    -0.003 C 
ATOM     23  C   UNL     1      28.957 -24.692 -15.169  0.00  0.00    +0.036 C 
ATOM     24  C   UNL     1      29.769 -23.172 -16.864  0.00  0.00    +0.036 C 
ATOM     25  C   UNL     1      28.826 -24.102 -16.426  0.00  0.00    +0.134 C 
BRANCH  25  26
ATOM     26  O   UNL     1      27.775 -24.434 -17.225  0.00  0.00    -0.506 OA
ATOM     27  H   UNL     1      26.938 -24.035 -17.088  0.00  0.00    +0.292 HD
ENDBRANCH  25  26
ENDBRANCH  19  20
BRANCH  19  28
ATOM     28  N   UNL     1      31.697 -22.488 -12.630  0.00  0.00    +0.390 N 
ATOM     29  H1  UNL     1      31.002 -23.099 -12.202  0.00  0.00    -0.088 HD
ATOM     30  H2  UNL     1      31.290 -21.567 -12.788  0.00  0.00    -0.088 HD
ATOM     31  H3  UNL     1      32.502 -22.402 -12.009  0.00  0.00    -0.088 HD
ENDBRANCH  19  28
ENDBRANCH   3  19
TORSDOF 7
ENDMDL
MODEL 5
REMARK VINA RESULT:      -7.3      2.472      3.474
REMARK  Name = 33613
REMARK  7 active torsions:
REMARK  status: ('A' for Active; 'I' for Inactive)
REMARK    1  A    between atoms: N_2  and  CA_11
REMARK    2  A    between atoms: C_3  and  CA_19
REMARK    3  A    between atoms: CA_10  and  C_16
REMARK    4  A    between atoms: C_16  and  O_17
REMARK    5  A    between atoms: CA_19  and  C_20
REMARK    6  A    between atoms: CA_19  and  N_28
REMARK    7  A    between atoms: C_25  and  O_26
REMARK                            x       y       z     vdW  Elec       q    Type
REMARK                         _______ _______ _______ _____ _____    ______ ____
ROOT
ATOM      1  O   UNL     1      32.809 -25.405 -13.003  0.00  0.00    -0.277 OA
ATOM      2  N   UNL     1      34.369 -23.722 -12.673  0.00  0.00    -0.298 N 
ATOM      3  C   UNL     1      33.133 -24.222 -13.090  0.00  0.00    +0.206 C 
ATOM      4  H   UNL     1      34.547 -22.760 -12.778  0.00  0.00    +0.150 HD
ENDROOT
BRANCH   2  11
ATOM      5  S   UNL     1      36.217 -24.871 -14.815  0.00  0.00    -0.118 S 
ATOM      6  O   UNL     1      36.940 -22.824 -11.007  0.00  0.00    -0.273 OA
ATOM      7  N   UNL     1      37.446 -24.562 -12.519  0.00  0.00    -0.260 N 
ATOM      8  C   UNL     1      36.328 -25.344 -13.049  0.00  0.00    +0.151 C 
ATOM      9  C   UNL     1      37.719 -23.773 -14.763  0.00  0.00    +0.068 C 
ATOM     10  CA  UNL     1      38.453 -24.086 -13.440  0.00  0.00    +0.184 C 
ATOM     11  CA  UNL     1      35.418 -24.567 -12.084  0.00  0.00    +0.178 C 
ATOM     12  C   UNL     1      36.690 -23.797 -11.682  0.00  0.00    +0.247 C 
ATOM     13  C   UNL     1      38.566 -24.021 -16.016  0.00  0.00    +0.013 C 
ATOM     14  C   UNL     1      37.223 -22.317 -14.778  0.00  0.00    +0.013 C 
BRANCH  10  16
ATOM     15  OXT UNL     1      39.174 -26.391 -13.347  0.00  0.00    -0.248 OA
ATOM     16  C   UNL     1      39.444 -25.209 -13.501  0.00  0.00    +0.333 C 
BRANCH  16  17
ATOM     17  O   UNL     1      40.689 -24.736 -13.751  0.00  0.00    -0.479 OA
ATOM     18  H   UNL     1      41.119 -24.947 -14.556  0.00  0.00    +0.295 HD
ENDBRANCH  16  17
ENDBRANCH  10  16
ENDBRANCH   2  11
BRANCH   3  19
ATOM     19  CA  UNL     1      32.228 -23.149 -13.686  0.00  0.00    +0.036 C 
BRANCH  19  20
ATOM     20  C   UNL     1      32.457 -23.019 -15.177  0.00  0.00    -0.034 C 
ATOM     21  C   UNL     1      33.745 -23.109 -15.672  0.00  0.00    -0.003 C 
ATOM     22  C   UNL     1      31.372 -22.812 -16.011  0.00  0.00    -0.003 C 
ATOM     23  C   UNL     1      33.957 -22.987 -17.046  0.00  0.00    +0.036 C 
ATOM     24  C   UNL     1      31.583 -22.691 -17.385  0.00  0.00    +0.036 C 
ATOM     25  C   UNL     1      32.876 -22.778 -17.901  0.00  0.00    +0.134 C 
BRANCH  25  26
ATOM     26  O   UNL     1      33.083 -22.662 -19.241  0.00  0.00    -0.506 OA
ATOM     27  H   UNL     1      33.889 -22.955 -19.618  0.00  0.00    +0.292 HD
ENDBRANCH  25  26
ENDBRANCH  19  20
BRANCH  19  28
ATOM     28  N   UNL     1      30.843 -23.504 -13.362  0.00  0.00    +0.390 N 
ATOM     29  H1  UNL     1      30.718 -24.512 -13.463  0.00  0.00    -0.088 HD
ATOM     30  H2  UNL     1      30.210 -23.018 -13.996  0.00  0.00    -0.088 HD
ATOM     31  H3  UNL     1      30.639 -23.231 -12.401  0.00  0.00    -0.088 HD
ENDBRANCH  19  28
ENDBRANCH   3  19
TORSDOF 7
ENDMDL
MODEL 6
REMARK VINA RESULT:      -7.0      4.206      5.713
REMARK  Name = 33613
REMARK  7 active torsions:
REMARK  status: ('A' for Active; 'I' for Inactive)
REMARK    1  A    between atoms: N_2  and  CA_11
REMARK    2  A    between atoms: C_3  and  CA_19
REMARK    3  A    between atoms: CA_10  and  C_16
REMARK    4  A    between atoms: C_16  and  O_17
REMARK    5  A    between atoms: CA_19  and  C_20
REMARK    6  A    between atoms: CA_19  and  N_28
REMARK    7  A    between atoms: C_25  and  O_26
REMARK                            x       y       z     vdW  Elec       q    Type
REMARK                         _______ _______ _______ _____ _____    ______ ____
ROOT
ATOM      1  O   UNL     1      34.522 -22.781 -17.950  0.00  0.00    -0.277 OA
ATOM      2  N   UNL     1      36.270 -23.315 -16.524  0.00  0.00    -0.298 N 
ATOM      3  C   UNL     1      35.684 -22.617 -17.582  0.00  0.00    +0.206 C 
ATOM      4  H   UNL     1      37.208 -23.122 -16.295  0.00  0.00    +0.150 HD
ENDROOT
BRANCH   2  11
ATOM      5  S   UNL     1      38.065 -24.549 -14.384  0.00  0.00    -0.118 S 
ATOM      6  O   UNL     1      34.015 -22.870 -14.307  0.00  0.00    -0.273 OA
ATOM      7  N   UNL     1      35.540 -24.555 -13.673  0.00  0.00    -0.260 N 
ATOM      8  C   UNL     1      36.367 -25.148 -14.724  0.00  0.00    +0.151 C 
ATOM      9  C   UNL     1      37.590 -23.661 -12.818  0.00  0.00    +0.068 C 
ATOM     10  CA  UNL     1      36.175 -24.154 -12.439  0.00  0.00    +0.184 C 
ATOM     11  CA  UNL     1      35.552 -24.326 -15.735  0.00  0.00    +0.178 C 
ATOM     12  C   UNL     1      34.816 -23.756 -14.507  0.00  0.00    +0.247 C 
ATOM     13  C   UNL     1      38.649 -23.934 -11.745  0.00  0.00    +0.013 C 
ATOM     14  C   UNL     1      37.574 -22.155 -13.132  0.00  0.00    +0.013 C 
BRANCH  10  16
ATOM     15  OXT UNL     1      36.772 -26.407 -11.798  0.00  0.00    -0.248 OA
ATOM     16  C   UNL     1      36.127 -25.389 -11.591  0.00  0.00    +0.333 C 
BRANCH  16  17
ATOM     17  O   UNL     1      35.266 -25.228 -10.558  0.00  0.00    -0.479 OA
ATOM     18  H   UNL     1      34.915 -24.380 -10.367  0.00  0.00    +0.295 HD
ENDBRANCH  16  17
ENDBRANCH  10  16
ENDBRANCH   2  11
BRANCH   3  19
ATOM     19  CA  UNL     1      36.643 -21.640 -18.254  0.00  0.00    +0.036 C 
BRANCH  19  20
ATOM     20  C   UNL     1      35.956 -20.902 -19.383  0.00  0.00    -0.034 C 
ATOM     21  C   UNL     1      36.692 -20.028 -20.164  0.00  0.00    -0.003 C 
ATOM     22  C   UNL     1      34.608 -21.116 -19.608  0.00  0.00    -0.003 C 
ATOM     23  C   UNL     1      36.059 -19.346 -21.204  0.00  0.00    +0.036 C 
ATOM     24  C   UNL     1      33.974 -20.434 -20.648  0.00  0.00    +0.036 C 
ATOM     25  C   UNL     1      34.701 -19.550 -21.445  0.00  0.00    +0.134 C 
BRANCH  25  26
ATOM     26  O   UNL     1      34.084 -18.885 -22.460  0.00  0.00    -0.506 OA
ATOM     27  H   UNL     1      34.396 -18.978 -23.339  0.00  0.00    +0.292 HD
ENDBRANCH  25  26
ENDBRANCH  19  20
BRANCH  19  28
ATOM     28  N   UNL     1      37.152 -20.733 -17.222  0.00  0.00    +0.390 N 
ATOM     29  H1  UNL     1      37.776 -21.244 -16.598  0.00  0.00    -0.088 HD
ATOM     30  H2  UNL     1      36.371 -20.354 -16.687  0.00  0.00    -0.088 HD
ATOM     31  H3  UNL     1      37.664 -19.969 -17.664  0.00  0.00    -0.088 HD
ENDBRANCH  19  28
ENDBRANCH   3  19
TORSDOF 7
ENDMDL
MODEL 7
REMARK VINA RESULT:      -6.8     13.918     15.336
REMARK  Name = 33613
REMARK  7 active torsions:
REMARK  status: ('A' for Active; 'I' for Inactive)
REMARK    1  A    between atoms: N_2  and  CA_11
REMARK    2  A    between atoms: C_3  and  CA_19
REMARK    3  A    between atoms: CA_10  and  C_16
REMARK    4  A    between atoms: C_16  and  O_17
REMARK    5  A    between atoms: CA_19  and  C_20
REMARK    6  A    between atoms: CA_19  and  N_28
REMARK    7  A    between atoms: C_25  and  O_26
REMARK                            x       y       z     vdW  Elec       q    Type
REMARK                         _______ _______ _______ _____ _____    ______ ____
ROOT
ATOM      1  O   UNL     1      33.568 -10.110 -23.630  0.00  0.00    -0.277 OA
ATOM      2  N   UNL     1      32.902 -12.229 -22.966  0.00  0.00    -0.298 N 
ATOM      3  C   UNL     1      32.863 -10.834 -22.929  0.00  0.00    +0.206 C 
ATOM      4  H   UNL     1      32.303 -12.732 -22.369  0.00  0.00    +0.150 HD
ENDROOT
BRANCH   2  11
ATOM      5  S   UNL     1      34.557 -14.275 -21.416  0.00  0.00    -0.118 S 
ATOM      6  O   UNL     1      32.153 -14.506 -25.075  0.00  0.00    -0.273 OA
ATOM      7  N   UNL     1      34.124 -15.032 -23.890  0.00  0.00    -0.260 N 
ATOM      8  C   UNL     1      34.809 -13.938 -23.199  0.00  0.00    +0.151 C 
ATOM      9  C   UNL     1      33.675 -15.889 -21.700  0.00  0.00    +0.068 C 
ATOM     10  CA  UNL     1      33.912 -16.271 -23.179  0.00  0.00    +0.184 C 
ATOM     11  CA  UNL     1      33.798 -12.982 -23.854  0.00  0.00    +0.178 C 
ATOM     12  C   UNL     1      33.162 -14.250 -24.457  0.00  0.00    +0.247 C 
ATOM     13  C   UNL     1      34.194 -16.929 -20.701  0.00  0.00    +0.013 C 
ATOM     14  C   UNL     1      32.179 -15.647 -21.435  0.00  0.00    +0.013 C 
BRANCH  10  16
ATOM     15  OXT UNL     1      35.915 -17.489 -22.594  0.00  0.00    -0.248 OA
ATOM     16  C   UNL     1      35.156 -17.060 -23.451  0.00  0.00    +0.333 C 
BRANCH  16  17
ATOM     17  O   UNL     1      35.332 -17.234 -24.783  0.00  0.00    -0.479 OA
ATOM     18  H   UNL     1      35.285 -16.499 -25.363  0.00  0.00    +0.295 HD
ENDBRANCH  16  17
ENDBRANCH  10  16
ENDBRANCH   2  11
BRANCH   3  19
ATOM     19  CA  UNL     1      31.867 -10.293 -21.908  0.00  0.00    +0.036 C 
BRANCH  19  20
ATOM     20  C   UNL     1      31.752  -8.787 -22.013  0.00  0.00    -0.034 C 
ATOM     21  C   UNL     1      32.282  -7.999 -21.008  0.00  0.00    -0.003 C 
ATOM     22  C   UNL     1      31.119  -8.233 -23.112  0.00  0.00    -0.003 C 
ATOM     23  C   UNL     1      32.174  -6.611 -21.103  0.00  0.00    +0.036 C 
ATOM     24  C   UNL     1      31.012  -6.846 -23.209  0.00  0.00    +0.036 C 
ATOM     25  C   UNL     1      31.540  -6.035 -22.203  0.00  0.00    +0.134 C 
BRANCH  25  26
ATOM     26  O   UNL     1      31.438  -4.681 -22.297  0.00  0.00    -0.506 OA
ATOM     27  H   UNL     1      30.714  -4.237 -21.900  0.00  0.00    +0.292 HD
ENDBRANCH  25  26
ENDBRANCH  19  20
BRANCH  19  28
ATOM     28  N   UNL     1      30.586 -10.968 -22.135  0.00  0.00    +0.390 N 
ATOM     29  H1  UNL     1      30.027 -10.932 -21.283  0.00  0.00    -0.088 HD
ATOM     30  H2  UNL     1      30.754 -11.940 -22.391  0.00  0.00    -0.088 HD
ATOM     31  H3  UNL     1      30.084 -10.499 -22.890  0.00  0.00    -0.088 HD
ENDBRANCH  19  28
ENDBRANCH   3  19
TORSDOF 7
ENDMDL
MODEL 8
REMARK VINA RESULT:      -6.8      4.174      5.541
REMARK  Name = 33613
REMARK  7 active torsions:
REMARK  status: ('A' for Active; 'I' for Inactive)
REMARK    1  A    between atoms: N_2  and  CA_11
REMARK    2  A    between atoms: C_3  and  CA_19
REMARK    3  A    between atoms: CA_10  and  C_16
REMARK    4  A    between atoms: C_16  and  O_17
REMARK    5  A    between atoms: CA_19  and  C_20
REMARK    6  A    between atoms: CA_19  and  N_28
REMARK    7  A    between atoms: C_25  and  O_26
REMARK                            x       y       z     vdW  Elec       q    Type
REMARK                         _______ _______ _______ _____ _____    ______ ____
ROOT
ATOM      1  O   UNL     1      37.138 -20.407 -17.562  0.00  0.00    -0.277 OA
ATOM      2  N   UNL     1      37.044 -22.657 -17.010  0.00  0.00    -0.298 N 
ATOM      3  C   UNL     1      36.918 -21.574 -17.882  0.00  0.00    +0.206 C 
ATOM      4  H   UNL     1      36.848 -23.559 -17.350  0.00  0.00    +0.150 HD
ENDROOT
BRANCH   2  11
ATOM      5  S   UNL     1      34.655 -22.847 -15.118  0.00  0.00    -0.118 S 
ATOM      6  O   UNL     1      38.604 -24.749 -15.171  0.00  0.00    -0.273 OA
ATOM      7  N   UNL     1      36.873 -23.670 -13.986  0.00  0.00    -0.260 N 
ATOM      8  C   UNL     1      36.344 -22.426 -14.547  0.00  0.00    +0.151 C 
ATOM      9  C   UNL     1      34.718 -24.591 -14.472  0.00  0.00    +0.068 C 
ATOM     10  CA  UNL     1      35.940 -24.673 -13.529  0.00  0.00    +0.184 C 
ATOM     11  CA  UNL     1      37.455 -22.512 -15.606  0.00  0.00    +0.178 C 
ATOM     12  C   UNL     1      37.845 -23.839 -14.927  0.00  0.00    +0.247 C 
ATOM     13  C   UNL     1      33.386 -24.923 -13.791  0.00  0.00    +0.013 C 
ATOM     14  C   UNL     1      34.903 -25.522 -15.683  0.00  0.00    +0.013 C 
BRANCH  10  16
ATOM     15  OXT UNL     1      34.726 -23.641 -11.712  0.00  0.00    -0.248 OA
ATOM     16  C   UNL     1      35.679 -24.299 -12.101  0.00  0.00    +0.333 C 
BRANCH  16  17
ATOM     17  O   UNL     1      36.651 -24.790 -11.294  0.00  0.00    -0.479 OA
ATOM     18  H   UNL     1      37.401 -24.266 -11.090  0.00  0.00    +0.295 HD
ENDBRANCH  16  17
ENDBRANCH  10  16
ENDBRANCH   2  11
BRANCH   3  19
ATOM     19  CA  UNL     1      36.457 -21.983 -19.277  0.00  0.00    +0.036 C 
BRANCH  19  20
ATOM     20  C   UNL     1      35.176 -21.269 -19.652  0.00  0.00    -0.034 C 
ATOM     21  C   UNL     1      35.235 -20.181 -20.506  0.00  0.00    -0.003 C 
ATOM     22  C   UNL     1      33.975 -21.719 -19.133  0.00  0.00    -0.003 C 
ATOM     23  C   UNL     1      34.055 -19.522 -20.850  0.00  0.00    +0.036 C 
ATOM     24  C   UNL     1      32.794 -21.060 -19.477  0.00  0.00    +0.036 C 
ATOM     25  C   UNL     1      32.835 -19.962 -20.336  0.00  0.00    +0.134 C 
BRANCH  25  26
ATOM     26  O   UNL     1      31.684 -19.319 -20.674  0.00  0.00    -0.506 OA
ATOM     27  H   UNL     1      30.898 -19.809 -20.816  0.00  0.00    +0.292 HD
ENDBRANCH  25  26
ENDBRANCH  19  20
BRANCH  19  28
ATOM     28  N   UNL     1      37.550 -21.696 -20.211  0.00  0.00    +0.390 N 
ATOM     29  H1  UNL     1      37.952 -22.572 -20.544  0.00  0.00    -0.088 HD
ATOM     30  H2  UNL     1      38.269 -21.151 -19.736  0.00  0.00    -0.088 HD
ATOM     31  H3  UNL     1      37.189 -21.165 -21.004  0.00  0.00    -0.088 HD
ENDBRANCH  19  28
ENDBRANCH   3  19
TORSDOF 7
ENDMDL
MODEL 9
REMARK VINA RESULT:      -6.8      1.734      2.454
REMARK  Name = 33613
REMARK  7 active torsions:
REMARK  status: ('A' for Active; 'I' for Inactive)
REMARK    1  A    between atoms: N_2  and  CA_11
REMARK    2  A    between atoms: C_3  and  CA_19
REMARK    3  A    between atoms: CA_10  and  C_16
REMARK    4  A    between atoms: C_16  and  O_17
REMARK    5  A    between atoms: CA_19  and  C_20
REMARK    6  A    between atoms: CA_19  and  N_28
REMARK    7  A    between atoms: C_25  and  O_26
REMARK                            x       y       z     vdW  Elec       q    Type
REMARK                         _______ _______ _______ _____ _____    ______ ____
ROOT
ATOM      1  O   UNL     1      34.522 -23.179 -15.349  0.00  0.00    -0.277 OA
ATOM      2  N   UNL     1      35.208 -23.409 -13.146  0.00  0.00    -0.298 N 
ATOM      3  C   UNL     1      34.272 -23.472 -14.181  0.00  0.00    +0.206 C 
ATOM      4  H   UNL     1      34.923 -23.662 -12.239  0.00  0.00    +0.150 HD
ENDROOT
BRANCH   2  11
ATOM      5  S   UNL     1      37.148 -25.752 -12.881  0.00  0.00    -0.118 S 
ATOM      6  O   UNL     1      36.655 -22.584 -15.870  0.00  0.00    -0.273 OA
ATOM      7  N   UNL     1      38.055 -23.904 -14.506  0.00  0.00    -0.260 N 
ATOM      8  C   UNL     1      37.704 -24.019 -13.090  0.00  0.00    +0.151 C 
ATOM      9  C   UNL     1      37.527 -26.236 -14.637  0.00  0.00    +0.068 C 
ATOM     10  CA  UNL     1      38.398 -25.105 -15.232  0.00  0.00    +0.184 C 
ATOM     11  CA  UNL     1      36.599 -22.982 -13.349  0.00  0.00    +0.178 C 
ATOM     12  C   UNL     1      37.060 -23.026 -14.819  0.00  0.00    +0.247 C 
ATOM     13  C   UNL     1      38.207 -27.609 -14.645  0.00  0.00    +0.013 C 
ATOM     14  C   UNL     1      36.187 -26.339 -15.384  0.00  0.00    +0.013 C 
BRANCH  10  16
ATOM     15  OXT UNL     1      40.482 -24.842 -14.038  0.00  0.00    -0.248 OA
ATOM     16  C   UNL     1      39.874 -25.246 -15.018  0.00  0.00    +0.333 C 
BRANCH  16  17
ATOM     17  O   UNL     1      40.451 -25.885 -16.065  0.00  0.00    -0.479 OA
ATOM     18  H   UNL     1      41.194 -26.438 -15.925  0.00  0.00    +0.295 HD
ENDBRANCH  16  17
ENDBRANCH  10  16
ENDBRANCH   2  11
BRANCH   3  19
ATOM     19  CA  UNL     1      32.893 -23.923 -13.710  0.00  0.00    +0.036 C 
BRANCH  19  20
ATOM     20  C   UNL     1      31.817 -23.455 -14.667  0.00  0.00    -0.034 C 
ATOM     21  C   UNL     1      30.546 -23.203 -14.181  0.00  0.00    -0.003 C 
ATOM     22  C   UNL     1      32.129 -23.289 -16.004  0.00  0.00    -0.003 C 
ATOM     23  C   UNL     1      29.554 -22.774 -15.063  0.00  0.00    +0.036 C 
ATOM     24  C   UNL     1      31.137 -22.859 -16.886  0.00  0.00    +0.036 C 
ATOM     25  C   UNL     1      29.850 -22.601 -16.414  0.00  0.00    +0.134 C 
BRANCH  25  26
ATOM     26  O   UNL     1      28.882 -22.180 -17.273  0.00  0.00    -0.506 OA
ATOM     27  H   UNL     1      28.061 -21.873 -16.941  0.00  0.00    +0.292 HD
ENDBRANCH  25  26
ENDBRANCH  19  20
BRANCH  19  28
ATOM     28  N   UNL     1      32.923 -25.382 -13.575  0.00  0.00    +0.390 N 
ATOM     29  H1  UNL     1      32.084 -25.696 -13.089  0.00  0.00    -0.088 HD
ATOM     30  H2  UNL     1      33.748 -25.658 -13.042  0.00  0.00    -0.088 HD
ATOM     31  H3  UNL     1      32.960 -25.808 -14.501  0.00  0.00    -0.088 HD
ENDBRANCH  19  28
ENDBRANCH   3  19
TORSDOF 7
ENDMDL
