MODEL 1
REMARK VINA RESULT:     -10.2      0.000      0.000
REMARK  Name = 314123
REMARK  1 active torsions:
REMARK  status: ('A' for Active; 'I' for Inactive)
REMARK    1  A    between atoms: C_8  and  C_15
REMARK                            x       y       z     vdW  Elec       q    Type
REMARK                         _______ _______ _______ _____ _____    ______ ____
ROOT
ATOM      1  N   UNL     1      36.992 -19.234 -21.122  0.00  0.00    -0.279 N 
ATOM      2  N   UNL     1      36.826 -18.269 -22.063  0.00  0.00    -0.173 NA
ATOM      3  C   UNL     1      34.824 -19.153 -21.455  0.00  0.00    +0.033 A 
ATOM      4  C   UNL     1      33.459 -19.657 -21.135  0.00  0.00    -0.001 C 
ATOM      5  C   UNL     1      35.817 -19.771 -20.748  0.00  0.00    +0.061 A 
ATOM      6  C   UNL     1      33.881 -20.705 -20.086  0.00  0.00    -0.013 C 
ATOM      7  C   UNL     1      35.288 -20.754 -19.874  0.00  0.00    +0.084 C 
ATOM      8  C   UNL     1      35.494 -18.229 -22.257  0.00  0.00    +0.102 A 
ATOM      9  C   UNL     1      33.047 -21.550 -19.377  0.00  0.00    -0.004 C 
ATOM     10  C   UNL     1      35.876 -21.619 -18.979  0.00  0.00    -0.016 C 
ATOM     11  C   UNL     1      33.631 -22.436 -18.464  0.00  0.00    -0.001 C 
ATOM     12  C   UNL     1      35.027 -22.469 -18.267  0.00  0.00    -0.004 C 
ATOM     13  H   UNL     1      37.865 -19.507 -20.758  0.00  0.00    +0.189 HD
ENDROOT
BRANCH   8  15
ATOM     14  N   UNL     1      33.791 -15.527 -25.033  0.00  0.00    -0.242 NA
ATOM     15  C   UNL     1      34.915 -17.310 -23.201  0.00  0.00    +0.022 C 
ATOM     16  C   UNL     1      34.697 -17.709 -24.514  0.00  0.00    +0.022 C 
ATOM     17  C   UNL     1      34.574 -16.025 -22.800  0.00  0.00    +0.022 C 
ATOM     18  C   UNL     1      34.137 -16.787 -25.383  0.00  0.00    +0.099 C 
ATOM     19  C   UNL     1      34.020 -15.178 -23.747  0.00  0.00    +0.099 C 
ENDBRANCH   8  15
TORSDOF 1
ENDMDL
MODEL 2
REMARK VINA RESULT:     -10.0      1.867      6.358
REMARK  Name = 314123
REMARK  1 active torsions:
REMARK  status: ('A' for Active; 'I' for Inactive)
REMARK    1  A    between atoms: C_8  and  C_15
REMARK                            x       y       z     vdW  Elec       q    Type
REMARK                         _______ _______ _______ _____ _____    ______ ____
ROOT
ATOM      1  N   UNL     1      35.609 -17.000 -23.478  0.00  0.00    -0.279 N 
ATOM      2  N   UNL     1      35.813 -18.221 -22.920  0.00  0.00    -0.173 NA
ATOM      3  C   UNL     1      34.242 -17.061 -21.761  0.00  0.00    +0.033 A 
ATOM      4  C   UNL     1      33.202 -16.394 -20.928  0.00  0.00    -0.001 C 
ATOM      5  C   UNL     1      34.680 -16.296 -22.806  0.00  0.00    +0.061 A 
ATOM      6  C   UNL     1      33.135 -15.074 -21.720  0.00  0.00    -0.013 C 
ATOM      7  C   UNL     1      34.024 -15.039 -22.832  0.00  0.00    +0.084 C 
ATOM      8  C   UNL     1      34.970 -18.245 -21.870  0.00  0.00    +0.102 A 
ATOM      9  C   UNL     1      32.326 -13.985 -21.450  0.00  0.00    -0.004 C 
ATOM     10  C   UNL     1      34.123 -13.954 -23.673  0.00  0.00    -0.016 C 
ATOM     11  C   UNL     1      32.416 -12.873 -22.296  0.00  0.00    -0.001 C 
ATOM     12  C   UNL     1      33.302 -12.859 -23.393  0.00  0.00    -0.004 C 
ATOM     13  H   UNL     1      36.081 -16.671 -24.276  0.00  0.00    +0.189 HD
ENDROOT
BRANCH   8  15
ATOM     14  N   UNL     1      34.745 -21.638 -19.351  0.00  0.00    -0.242 NA
ATOM     15  C   UNL     1      34.893 -19.399 -21.013  0.00  0.00    +0.022 C 
ATOM     16  C   UNL     1      36.057 -19.984 -20.531  0.00  0.00    +0.022 C 
ATOM     17  C   UNL     1      33.656 -19.928 -20.669  0.00  0.00    +0.022 C 
ATOM     18  C   UNL     1      35.929 -21.093 -19.710  0.00  0.00    +0.099 C 
ATOM     19  C   UNL     1      33.636 -21.039 -19.842  0.00  0.00    +0.099 C 
ENDBRANCH   8  15
TORSDOF 1
ENDMDL
MODEL 3
REMARK VINA RESULT:      -9.5      1.728      6.800
REMARK  Name = 314123
REMARK  1 active torsions:
REMARK  status: ('A' for Active; 'I' for Inactive)
REMARK    1  A    between atoms: C_8  and  C_15
REMARK                            x       y       z     vdW  Elec       q    Type
REMARK                         _______ _______ _______ _____ _____    ______ ____
ROOT
ATOM      1  N   UNL     1      34.224 -18.122 -25.236  0.00  0.00    -0.279 N 
ATOM      2  N   UNL     1      34.637 -19.072 -24.358  0.00  0.00    -0.173 NA
ATOM      3  C   UNL     1      34.575 -17.031 -23.364  0.00  0.00    +0.033 A 
ATOM      4  C   UNL     1      34.573 -15.745 -22.611  0.00  0.00    -0.001 C 
ATOM      5  C   UNL     1      34.180 -16.904 -24.667  0.00  0.00    +0.061 A 
ATOM      6  C   UNL     1      34.089 -14.846 -23.766  0.00  0.00    -0.013 C 
ATOM      7  C   UNL     1      33.863 -15.557 -24.977  0.00  0.00    +0.084 C 
ATOM      8  C   UNL     1      34.849 -18.390 -23.216  0.00  0.00    +0.102 A 
ATOM      9  C   UNL     1      33.870 -13.481 -23.717  0.00  0.00    -0.004 C 
ATOM     10  C   UNL     1      33.428 -14.945 -26.131  0.00  0.00    -0.016 C 
ATOM     11  C   UNL     1      33.429 -12.844 -24.883  0.00  0.00    -0.001 C 
ATOM     12  C   UNL     1      33.210 -13.567 -26.074  0.00  0.00    -0.004 C 
ATOM     13  H   UNL     1      33.986 -18.302 -26.174  0.00  0.00    +0.189 HD
ENDROOT
BRANCH   8  15
ATOM     14  N   UNL     1      36.184 -20.374 -19.725  0.00  0.00    -0.242 NA
ATOM     15  C   UNL     1      35.302 -19.065 -22.028  0.00  0.00    +0.022 C 
ATOM     16  C   UNL     1      36.600 -18.870 -21.572  0.00  0.00    +0.022 C 
ATOM     17  C   UNL     1      34.444 -19.912 -21.339  0.00  0.00    +0.022 C 
ATOM     18  C   UNL     1      36.988 -19.542 -20.425  0.00  0.00    +0.099 C 
ATOM     19  C   UNL     1      34.929 -20.538 -20.203  0.00  0.00    +0.099 C 
ENDBRANCH   8  15
TORSDOF 1
ENDMDL
MODEL 4
REMARK VINA RESULT:      -9.5      3.442      5.818
REMARK  Name = 314123
REMARK  1 active torsions:
REMARK  status: ('A' for Active; 'I' for Inactive)
REMARK    1  A    between atoms: C_8  and  C_15
REMARK                            x       y       z     vdW  Elec       q    Type
REMARK                         _______ _______ _______ _____ _____    ______ ____
ROOT
ATOM      1  N   UNL     1      33.486 -15.188 -25.511  0.00  0.00    -0.279 N 
ATOM      2  N   UNL     1      33.124 -13.883 -25.424  0.00  0.00    -0.173 NA
ATOM      3  C   UNL     1      33.925 -14.628 -23.434  0.00  0.00    +0.033 A 
ATOM      4  C   UNL     1      34.430 -15.007 -22.085  0.00  0.00    -0.001 C 
ATOM      5  C   UNL     1      33.964 -15.650 -24.341  0.00  0.00    +0.061 A 
ATOM      6  C   UNL     1      34.771 -16.474 -22.410  0.00  0.00    -0.013 C 
ATOM      7  C   UNL     1      34.485 -16.833 -23.758  0.00  0.00    +0.084 C 
ATOM      8  C   UNL     1      33.398 -13.552 -24.148  0.00  0.00    +0.102 A 
ATOM      9  C   UNL     1      35.302 -17.413 -21.545  0.00  0.00    -0.004 C 
ATOM     10  C   UNL     1      34.714 -18.095 -24.257  0.00  0.00    -0.016 C 
ATOM     11  C   UNL     1      35.540 -18.701 -22.038  0.00  0.00    -0.001 C 
ATOM     12  C   UNL     1      35.250 -19.037 -23.376  0.00  0.00    -0.004 C 
ATOM     13  H   UNL     1      33.409 -15.731 -26.329  0.00  0.00    +0.189 HD
ENDROOT
BRANCH   8  15
ATOM     14  N   UNL     1      32.658  -9.638 -22.719  0.00  0.00    -0.242 NA
ATOM     15  C   UNL     1      33.146 -12.221 -23.662  0.00  0.00    +0.022 C 
ATOM     16  C   UNL     1      33.833 -11.142 -24.205  0.00  0.00    +0.022 C 
ATOM     17  C   UNL     1      32.218 -12.015 -22.650  0.00  0.00    +0.022 C 
ATOM     18  C   UNL     1      33.554  -9.882 -23.702  0.00  0.00    +0.099 C 
ATOM     19  C   UNL     1      32.012 -10.715 -22.217  0.00  0.00    +0.099 C 
ENDBRANCH   8  15
TORSDOF 1
ENDMDL
MODEL 5
REMARK VINA RESULT:      -9.4      4.902      9.399
REMARK  Name = 314123
REMARK  1 active torsions:
REMARK  status: ('A' for Active; 'I' for Inactive)
REMARK    1  A    between atoms: C_8  and  C_15
REMARK                            x       y       z     vdW  Elec       q    Type
REMARK                         _______ _______ _______ _____ _____    ______ ____
ROOT
ATOM      1  N   UNL     1      37.825 -22.342 -16.627  0.00  0.00    -0.279 N 
ATOM      2  N   UNL     1      38.051 -22.969 -15.444  0.00  0.00    -0.173 NA
ATOM      3  C   UNL     1      35.865 -23.135 -16.036  0.00  0.00    +0.033 A 
ATOM      4  C   UNL     1      34.413 -23.305 -16.323  0.00  0.00    -0.001 C 
ATOM      5  C   UNL     1      36.534 -22.428 -16.996  0.00  0.00    +0.061 A 
ATOM      6  C   UNL     1      34.389 -22.541 -17.662  0.00  0.00    -0.013 C 
ATOM      7  C   UNL     1      35.662 -22.029 -18.040  0.00  0.00    +0.084 C 
ATOM      8  C   UNL     1      36.843 -23.450 -15.094  0.00  0.00    +0.102 A 
ATOM      9  C   UNL     1      33.290 -22.329 -18.474  0.00  0.00    -0.004 C 
ATOM     10  C   UNL     1      35.863 -21.316 -19.201  0.00  0.00    -0.016 C 
ATOM     11  C   UNL     1      33.479 -21.605 -19.658  0.00  0.00    -0.001 C 
ATOM     12  C   UNL     1      34.748 -21.106 -20.016  0.00  0.00    -0.004 C 
ATOM     13  H   UNL     1      38.520 -21.881 -17.150  0.00  0.00    +0.189 HD
ENDROOT
BRANCH   8  15
ATOM     14  N   UNL     1      36.340 -25.632 -11.503  0.00  0.00    -0.242 NA
ATOM     15  C   UNL     1      36.672 -24.193 -13.873  0.00  0.00    +0.022 C 
ATOM     16  C   UNL     1      35.811 -23.722 -12.889  0.00  0.00    +0.022 C 
ATOM     17  C   UNL     1      37.368 -25.378 -13.677  0.00  0.00    +0.022 C 
ATOM     18  C   UNL     1      35.681 -24.474 -11.733  0.00  0.00    +0.099 C 
ATOM     19  C   UNL     1      37.169 -26.055 -12.484  0.00  0.00    +0.099 C 
ENDBRANCH   8  15
TORSDOF 1
ENDMDL
MODEL 6
REMARK VINA RESULT:      -9.4      5.316      9.520
REMARK  Name = 314123
REMARK  1 active torsions:
REMARK  status: ('A' for Active; 'I' for Inactive)
REMARK    1  A    between atoms: C_8  and  C_15
REMARK                            x       y       z     vdW  Elec       q    Type
REMARK                         _______ _______ _______ _____ _____    ______ ____
ROOT
ATOM      1  N   UNL     1      31.911 -11.806 -22.193  0.00  0.00    -0.279 N 
ATOM      2  N   UNL     1      32.004 -13.082 -22.644  0.00  0.00    -0.173 NA
ATOM      3  C   UNL     1      33.393 -11.714 -23.809  0.00  0.00    +0.033 A 
ATOM      4  C   UNL     1      34.337 -10.913 -24.638  0.00  0.00    -0.001 C 
ATOM      5  C   UNL     1      32.727 -10.978 -22.870  0.00  0.00    +0.061 A 
ATOM      6  C   UNL     1      34.071  -9.550 -23.970  0.00  0.00    -0.013 C 
ATOM      7  C   UNL     1      33.110  -9.613 -22.923  0.00  0.00    +0.084 C 
ATOM      8  C   UNL     1      32.915 -13.012 -23.634  0.00  0.00    +0.102 A 
ATOM      9  C   UNL     1      34.661  -8.341 -24.292  0.00  0.00    -0.004 C 
ATOM     10  C   UNL     1      32.726  -8.509 -22.196  0.00  0.00    -0.016 C 
ATOM     11  C   UNL     1      34.280  -7.208 -23.562  0.00  0.00    -0.001 C 
ATOM     12  C   UNL     1      33.325  -7.293 -22.527  0.00  0.00    -0.004 C 
ATOM     13  H   UNL     1      31.319 -11.520 -21.459  0.00  0.00    +0.189 HD
ENDROOT
BRANCH   8  15
ATOM     14  N   UNL     1      34.024 -16.472 -25.804  0.00  0.00    -0.242 NA
ATOM     15  C   UNL     1      33.292 -14.189 -24.372  0.00  0.00    +0.022 C 
ATOM     16  C   UNL     1      32.839 -14.367 -25.673  0.00  0.00    +0.022 C 
ATOM     17  C   UNL     1      34.108 -15.146 -23.784  0.00  0.00    +0.022 C 
ATOM     18  C   UNL     1      33.231 -15.517 -26.340  0.00  0.00    +0.099 C 
ATOM     19  C   UNL     1      34.443 -16.261 -24.536  0.00  0.00    +0.099 C 
ENDBRANCH   8  15
TORSDOF 1
ENDMDL
MODEL 7
REMARK VINA RESULT:      -9.3      1.945      6.755
REMARK  Name = 314123
REMARK  1 active torsions:
REMARK  status: ('A' for Active; 'I' for Inactive)
REMARK    1  A    between atoms: C_8  and  C_15
REMARK                            x       y       z     vdW  Elec       q    Type
REMARK                         _______ _______ _______ _____ _____    ______ ____
ROOT
ATOM      1  N   UNL     1      34.616 -14.921 -21.232  0.00  0.00    -0.279 N 
ATOM      2  N   UNL     1      34.930 -16.035 -20.523  0.00  0.00    -0.173 NA
ATOM      3  C   UNL     1      34.469 -16.561 -22.683  0.00  0.00    +0.033 A 
ATOM      4  C   UNL     1      34.187 -17.021 -24.072  0.00  0.00    -0.001 C 
ATOM      5  C   UNL     1      34.339 -15.211 -22.516  0.00  0.00    +0.061 A 
ATOM      6  C   UNL     1      33.865 -15.639 -24.672  0.00  0.00    -0.013 C 
ATOM      7  C   UNL     1      33.961 -14.578 -23.728  0.00  0.00    +0.084 C 
ATOM      8  C   UNL     1      34.837 -17.032 -21.423  0.00  0.00    +0.102 A 
ATOM      9  C   UNL     1      33.511 -15.366 -25.981  0.00  0.00    -0.004 C 
ATOM     10  C   UNL     1      33.715 -13.264 -24.056  0.00  0.00    -0.016 C 
ATOM     11  C   UNL     1      33.256 -14.034 -26.330  0.00  0.00    -0.001 C 
ATOM     12  C   UNL     1      33.358 -12.998 -25.379  0.00  0.00    -0.004 C 
ATOM     13  H   UNL     1      34.594 -14.012 -20.854  0.00  0.00    +0.189 HD
ENDROOT
BRANCH   8  15
ATOM     14  N   UNL     1      35.620 -21.038 -20.307  0.00  0.00    -0.242 NA
ATOM     15  C   UNL     1      35.103 -18.395 -21.044  0.00  0.00    +0.022 C 
ATOM     16  C   UNL     1      34.050 -19.278 -20.842  0.00  0.00    +0.022 C 
ATOM     17  C   UNL     1      36.413 -18.826 -20.879  0.00  0.00    +0.022 C 
ATOM     18  C   UNL     1      34.360 -20.578 -20.478  0.00  0.00    +0.099 C 
ATOM     19  C   UNL     1      36.616 -20.147 -20.513  0.00  0.00    +0.099 C 
ENDBRANCH   8  15
TORSDOF 1
ENDMDL
MODEL 8
REMARK VINA RESULT:      -9.2      5.347      9.690
REMARK  Name = 314123
REMARK  1 active torsions:
REMARK  status: ('A' for Active; 'I' for Inactive)
REMARK    1  A    between atoms: C_8  and  C_15
REMARK                            x       y       z     vdW  Elec       q    Type
REMARK                         _______ _______ _______ _____ _____    ______ ____
ROOT
ATOM      1  N   UNL     1      33.480 -23.750 -15.849  0.00  0.00    -0.279 N 
ATOM      2  N   UNL     1      33.979 -24.222 -14.678  0.00  0.00    -0.173 NA
ATOM      3  C   UNL     1      35.591 -23.147 -15.863  0.00  0.00    +0.033 A 
ATOM      4  C   UNL     1      36.724 -22.467 -16.551  0.00  0.00    -0.001 C 
ATOM      5  C   UNL     1      34.420 -23.109 -16.567  0.00  0.00    +0.061 A 
ATOM      6  C   UNL     1      35.950 -22.027 -17.810  0.00  0.00    -0.013 C 
ATOM      7  C   UNL     1      34.583 -22.420 -17.796  0.00  0.00    +0.084 C 
ATOM      8  C   UNL     1      35.272 -23.846 -14.699  0.00  0.00    +0.102 A 
ATOM      9  C   UNL     1      36.454 -21.321 -18.887  0.00  0.00    -0.004 C 
ATOM     10  C   UNL     1      33.713 -22.128 -18.823  0.00  0.00    -0.016 C 
ATOM     11  C   UNL     1      35.582 -21.017 -19.939  0.00  0.00    -0.001 C 
ATOM     12  C   UNL     1      34.230 -21.415 -19.907  0.00  0.00    -0.004 C 
ATOM     13  H   UNL     1      32.545 -23.862 -16.137  0.00  0.00    +0.189 HD
ENDROOT
BRANCH   8  15
ATOM     14  N   UNL     1      37.857 -24.793 -11.485  0.00  0.00    -0.242 NA
ATOM     15  C   UNL     1      36.151 -24.168 -13.606  0.00  0.00    +0.022 C 
ATOM     16  C   UNL     1      36.443 -23.209 -12.644  0.00  0.00    +0.022 C 
ATOM     17  C   UNL     1      36.708 -25.437 -13.513  0.00  0.00    +0.022 C 
ATOM     18  C   UNL     1      37.295 -23.570 -11.612  0.00  0.00    +0.099 C 
ATOM     19  C   UNL     1      37.548 -25.697 -12.442  0.00  0.00    +0.099 C 
ENDBRANCH   8  15
TORSDOF 1
ENDMDL
MODEL 9
REMARK VINA RESULT:      -9.1      2.086      3.095
REMARK  Name = 314123
REMARK  1 active torsions:
REMARK  status: ('A' for Active; 'I' for Inactive)
REMARK    1  A    between atoms: C_8  and  C_15
REMARK                            x       y       z     vdW  Elec       q    Type
REMARK                         _______ _______ _______ _____ _____    ______ ____
ROOT
ATOM      1  N   UNL     1      32.774 -21.414 -19.801  0.00  0.00    -0.279 N 
ATOM      2  N   UNL     1      32.768 -20.566 -20.861  0.00  0.00    -0.173 NA
ATOM      3  C   UNL     1      34.832 -20.660 -19.919  0.00  0.00    +0.033 A 
ATOM      4  C   UNL     1      36.223 -20.643 -19.385  0.00  0.00    -0.001 C 
ATOM      5  C   UNL     1      33.989 -21.484 -19.228  0.00  0.00    +0.061 A 
ATOM      6  C   UNL     1      35.999 -21.640 -18.231  0.00  0.00    -0.013 C 
ATOM      7  C   UNL     1      34.664 -22.126 -18.159  0.00  0.00    +0.084 C 
ATOM      8  C   UNL     1      34.034 -20.111 -20.922  0.00  0.00    +0.102 A 
ATOM      9  C   UNL     1      36.942 -22.073 -17.316  0.00  0.00    -0.004 C 
ATOM     10  C   UNL     1      34.250 -23.027 -17.203  0.00  0.00    -0.016 C 
ATOM     11  C   UNL     1      36.535 -22.988 -16.338  0.00  0.00    -0.001 C 
ATOM     12  C   UNL     1      35.207 -23.458 -16.283  0.00  0.00    -0.004 C 
ATOM     13  H   UNL     1      31.987 -21.917 -19.490  0.00  0.00    +0.189 HD
ENDROOT
BRANCH   8  15
ATOM     14  N   UNL     1      35.200 -17.347 -23.907  0.00  0.00    -0.242 NA
ATOM     15  C   UNL     1      34.430 -19.170 -21.937  0.00  0.00    +0.022 C 
ATOM     16  C   UNL     1      34.611 -19.598 -23.247  0.00  0.00    +0.022 C 
ATOM     17  C   UNL     1      34.633 -17.836 -21.608  0.00  0.00    +0.022 C 
ATOM     18  C   UNL     1      34.993 -18.654 -24.186  0.00  0.00    +0.099 C 
ATOM     19  C   UNL     1      35.014 -16.972 -22.622  0.00  0.00    +0.099 C 
ENDBRANCH   8  15
TORSDOF 1
ENDMDL
