MODEL 1
REMARK VINA RESULT:      -3.9      0.000      0.000
REMARK  Name = 220010
REMARK  3 active torsions:
REMARK  status: ('A' for Active; 'I' for Inactive)
REMARK    1  A    between atoms: C_1  and  O_3
REMARK    2  A    between atoms: C_1  and  C_5
REMARK    3  A    between atoms: C_5  and  O_7
REMARK                            x       y       z     vdW  Elec       q    Type
REMARK                         _______ _______ _______ _____ _____    ______ ____
ROOT
ATOM      1  C   UNL     1      33.614 -20.984 -19.674  0.00  0.00    +0.137 C 
ATOM      2  C   UNL     1      32.846 -20.052 -20.605  0.00  0.00    +0.034 C 
ENDROOT
BRANCH   1   3
ATOM      3  O   UNL     1      33.045 -22.290 -19.766  0.00  0.00    -0.382 OA
ATOM      4  H   UNL     1      33.685 -22.893 -20.174  0.00  0.00    +0.210 HD
ENDBRANCH   1   3
BRANCH   1   5
ATOM      5  C   UNL     1      35.108 -21.051 -20.018  0.00  0.00    +0.137 C 
ATOM      6  C   UNL     1      35.944 -21.660 -18.898  0.00  0.00    +0.034 C 
BRANCH   5   7
ATOM      7  O   UNL     1      35.611 -19.746 -20.297  0.00  0.00    -0.382 OA
ATOM      8  H   UNL     1      36.442 -19.819 -20.792  0.00  0.00    +0.210 HD
ENDBRANCH   5   7
ENDBRANCH   1   5
TORSDOF 3
ENDMDL
MODEL 2
REMARK VINA RESULT:      -3.9      7.199      7.936
REMARK  Name = 220010
REMARK  3 active torsions:
REMARK  status: ('A' for Active; 'I' for Inactive)
REMARK    1  A    between atoms: C_1  and  O_3
REMARK    2  A    between atoms: C_1  and  C_5
REMARK    3  A    between atoms: C_5  and  O_7
REMARK                            x       y       z     vdW  Elec       q    Type
REMARK                         _______ _______ _______ _____ _____    ______ ____
ROOT
ATOM      1  C   UNL     1      36.796 -26.662 -14.966  0.00  0.00    +0.137 C 
ATOM      2  C   UNL     1      35.977 -25.377 -15.025  0.00  0.00    +0.034 C 
ENDROOT
BRANCH   1   3
ATOM      3  O   UNL     1      36.827 -27.244 -16.268  0.00  0.00    -0.382 OA
ATOM      4  H   UNL     1      37.265 -28.107 -16.226  0.00  0.00    +0.210 HD
ENDBRANCH   1   3
BRANCH   1   5
ATOM      5  C   UNL     1      38.232 -26.417 -14.480  0.00  0.00    +0.137 C 
ATOM      6  C   UNL     1      38.290 -25.556 -13.224  0.00  0.00    +0.034 C 
BRANCH   5   7
ATOM      7  O   UNL     1      38.997 -25.777 -15.501  0.00  0.00    -0.382 OA
ATOM      8  H   UNL     1      38.471 -25.726 -16.314  0.00  0.00    +0.210 HD
ENDBRANCH   5   7
ENDBRANCH   1   5
TORSDOF 3
ENDMDL
MODEL 3
REMARK VINA RESULT:      -3.9      9.466      9.769
REMARK  Name = 220010
REMARK  3 active torsions:
REMARK  status: ('A' for Active; 'I' for Inactive)
REMARK    1  A    between atoms: C_1  and  O_3
REMARK    2  A    between atoms: C_1  and  C_5
REMARK    3  A    between atoms: C_5  and  O_7
REMARK                            x       y       z     vdW  Elec       q    Type
REMARK                         _______ _______ _______ _____ _____    ______ ____
ROOT
ATOM      1  C   UNL     1      41.255 -15.354 -15.359  0.00  0.00    +0.137 C 
ATOM      2  C   UNL     1      40.989 -13.903 -14.976  0.00  0.00    +0.034 C 
ENDROOT
BRANCH   1   3
ATOM      3  O   UNL     1      40.032 -16.083 -15.257  0.00  0.00    -0.382 OA
ATOM      4  H   UNL     1      39.303 -15.540 -15.594  0.00  0.00    +0.210 HD
ENDBRANCH   1   3
BRANCH   1   5
ATOM      5  C   UNL     1      41.816 -15.490 -16.781  0.00  0.00    +0.137 C 
ATOM      6  C   UNL     1      41.230 -14.466 -17.745  0.00  0.00    +0.034 C 
BRANCH   5   7
ATOM      7  O   UNL     1      41.552 -16.795 -17.294  0.00  0.00    -0.382 OA
ATOM      8  H   UNL     1      42.377 -17.187 -17.620  0.00  0.00    +0.210 HD
ENDBRANCH   5   7
ENDBRANCH   1   5
TORSDOF 3
ENDMDL
MODEL 4
REMARK VINA RESULT:      -3.9      6.278      6.966
REMARK  Name = 220010
REMARK  3 active torsions:
REMARK  status: ('A' for Active; 'I' for Inactive)
REMARK    1  A    between atoms: C_1  and  O_3
REMARK    2  A    between atoms: C_1  and  C_5
REMARK    3  A    between atoms: C_5  and  O_7
REMARK                            x       y       z     vdW  Elec       q    Type
REMARK                         _______ _______ _______ _____ _____    ______ ____
ROOT
ATOM      1  C   UNL     1      28.138 -23.562 -16.255  0.00  0.00    +0.137 C 
ATOM      2  C   UNL     1      27.340 -22.331 -15.842  0.00  0.00    +0.034 C 
ENDROOT
BRANCH   1   3
ATOM      3  O   UNL     1      27.763 -23.923 -17.584  0.00  0.00    -0.382 OA
ATOM      4  H   UNL     1      27.447 -24.840 -17.592  0.00  0.00    +0.210 HD
ENDBRANCH   1   3
BRANCH   1   5
ATOM      5  C   UNL     1      29.653 -23.323 -16.197  0.00  0.00    +0.137 C 
ATOM      6  C   UNL     1      30.127 -22.887 -14.815  0.00  0.00    +0.034 C 
BRANCH   5   7
ATOM      7  O   UNL     1      30.033 -22.323 -17.140  0.00  0.00    -0.382 OA
ATOM      8  H   UNL     1      30.139 -22.728 -18.015  0.00  0.00    +0.210 HD
ENDBRANCH   5   7
ENDBRANCH   1   5
TORSDOF 3
ENDMDL
MODEL 5
REMARK VINA RESULT:      -3.8      7.614      8.420
REMARK  Name = 220010
REMARK  3 active torsions:
REMARK  status: ('A' for Active; 'I' for Inactive)
REMARK    1  A    between atoms: C_1  and  O_3
REMARK    2  A    between atoms: C_1  and  C_5
REMARK    3  A    between atoms: C_5  and  O_7
REMARK                            x       y       z     vdW  Elec       q    Type
REMARK                         _______ _______ _______ _____ _____    ______ ____
ROOT
ATOM      1  C   UNL     1      38.902 -24.890 -14.607  0.00  0.00    +0.137 C 
ATOM      2  C   UNL     1      40.109 -25.818 -14.686  0.00  0.00    +0.034 C 
ENDROOT
BRANCH   1   3
ATOM      3  O   UNL     1      38.980 -23.948 -15.676  0.00  0.00    -0.382 OA
ATOM      4  H   UNL     1      38.467 -23.157 -15.447  0.00  0.00    +0.210 HD
ENDBRANCH   1   3
BRANCH   1   5
ATOM      5  C   UNL     1      37.573 -25.653 -14.694  0.00  0.00    +0.137 C 
ATOM      6  C   UNL     1      37.264 -26.445 -13.428  0.00  0.00    +0.034 C 
BRANCH   5   7
ATOM      7  O   UNL     1      37.592 -26.557 -15.797  0.00  0.00    -0.382 OA
ATOM      8  H   UNL     1      38.166 -27.310 -15.587  0.00  0.00    +0.210 HD
ENDBRANCH   5   7
ENDBRANCH   1   5
TORSDOF 3
ENDMDL
MODEL 6
REMARK VINA RESULT:      -3.8      9.718     10.233
REMARK  Name = 220010
REMARK  3 active torsions:
REMARK  status: ('A' for Active; 'I' for Inactive)
REMARK    1  A    between atoms: C_1  and  O_3
REMARK    2  A    between atoms: C_1  and  C_5
REMARK    3  A    between atoms: C_5  and  O_7
REMARK                            x       y       z     vdW  Elec       q    Type
REMARK                         _______ _______ _______ _____ _____    ______ ____
ROOT
ATOM      1  C   UNL     1      41.587 -16.058 -16.577  0.00  0.00    +0.137 C 
ATOM      2  C   UNL     1      42.179 -15.806 -17.959  0.00  0.00    +0.034 C 
ENDROOT
BRANCH   1   3
ATOM      3  O   UNL     1      42.621 -16.543 -15.721  0.00  0.00    -0.382 OA
ATOM      4  H   UNL     1      42.916 -15.829 -15.135  0.00  0.00    +0.210 HD
ENDBRANCH   1   3
BRANCH   1   5
ATOM      5  C   UNL     1      40.967 -14.794 -15.967  0.00  0.00    +0.137 C 
ATOM      6  C   UNL     1      41.935 -13.616 -15.942  0.00  0.00    +0.034 C 
BRANCH   5   7
ATOM      7  O   UNL     1      40.534 -15.050 -14.632  0.00  0.00    -0.382 OA
ATOM      8  H   UNL     1      39.678 -14.620 -14.483  0.00  0.00    +0.210 HD
ENDBRANCH   5   7
ENDBRANCH   1   5
TORSDOF 3
ENDMDL
MODEL 7
REMARK VINA RESULT:      -3.8      9.369      9.541
REMARK  Name = 220010
REMARK  3 active torsions:
REMARK  status: ('A' for Active; 'I' for Inactive)
REMARK    1  A    between atoms: C_1  and  O_3
REMARK    2  A    between atoms: C_1  and  C_5
REMARK    3  A    between atoms: C_5  and  O_7
REMARK                            x       y       z     vdW  Elec       q    Type
REMARK                         _______ _______ _______ _____ _____    ______ ____
ROOT
ATOM      1  C   UNL     1      36.852 -25.394 -12.639  0.00  0.00    +0.137 C 
ATOM      2  C   UNL     1      38.286 -24.902 -12.797  0.00  0.00    +0.034 C 
ENDROOT
BRANCH   1   3
ATOM      3  O   UNL     1      36.873 -26.652 -11.967  0.00  0.00    -0.382 OA
ATOM      4  H   UNL     1      36.623 -26.527 -11.039  0.00  0.00    +0.210 HD
ENDBRANCH   1   3
BRANCH   1   5
ATOM      5  C   UNL     1      35.979 -24.407 -11.852  0.00  0.00    +0.137 C 
ATOM      6  C   UNL     1      36.751 -23.177 -11.389  0.00  0.00    +0.034 C 
BRANCH   5   7
ATOM      7  O   UNL     1      35.420 -25.046 -10.705  0.00  0.00    -0.382 OA
ATOM      8  H   UNL     1      34.752 -25.689 -10.988  0.00  0.00    +0.210 HD
ENDBRANCH   5   7
ENDBRANCH   1   5
TORSDOF 3
ENDMDL
MODEL 8
REMARK VINA RESULT:      -3.8      6.619      7.355
REMARK  Name = 220010
REMARK  3 active torsions:
REMARK  status: ('A' for Active; 'I' for Inactive)
REMARK    1  A    between atoms: C_1  and  O_3
REMARK    2  A    between atoms: C_1  and  C_5
REMARK    3  A    between atoms: C_5  and  O_7
REMARK                            x       y       z     vdW  Elec       q    Type
REMARK                         _______ _______ _______ _____ _____    ______ ____
ROOT
ATOM      1  C   UNL     1      33.815 -16.181 -25.151  0.00  0.00    +0.137 C 
ATOM      2  C   UNL     1      33.260 -15.006 -25.948  0.00  0.00    +0.034 C 
ENDROOT
BRANCH   1   3
ATOM      3  O   UNL     1      34.898 -16.756 -25.881  0.00  0.00    -0.382 OA
ATOM      4  H   UNL     1      35.584 -16.086 -26.022  0.00  0.00    +0.210 HD
ENDBRANCH   1   3
BRANCH   1   5
ATOM      5  C   UNL     1      34.301 -15.764 -23.756  0.00  0.00    +0.137 C 
ATOM      6  C   UNL     1      34.119 -14.274 -23.491  0.00  0.00    +0.034 C 
BRANCH   5   7
ATOM      7  O   UNL     1      35.682 -16.085 -23.597  0.00  0.00    -0.382 OA
ATOM      8  H   UNL     1      35.792 -17.049 -23.612  0.00  0.00    +0.210 HD
ENDBRANCH   5   7
ENDBRANCH   1   5
TORSDOF 3
ENDMDL
MODEL 9
REMARK VINA RESULT:      -3.8      3.911      5.000
REMARK  Name = 220010
REMARK  3 active torsions:
REMARK  status: ('A' for Active; 'I' for Inactive)
REMARK    1  A    between atoms: C_1  and  O_3
REMARK    2  A    between atoms: C_1  and  C_5
REMARK    3  A    between atoms: C_5  and  O_7
REMARK                            x       y       z     vdW  Elec       q    Type
REMARK                         _______ _______ _______ _____ _____    ______ ____
ROOT
ATOM      1  C   UNL     1      35.646 -17.647 -22.881  0.00  0.00    +0.137 C 
ATOM      2  C   UNL     1      34.893 -18.538 -23.862  0.00  0.00    +0.034 C 
ENDROOT
BRANCH   1   3
ATOM      3  O   UNL     1      35.690 -16.322 -23.409  0.00  0.00    -0.382 OA
ATOM      4  H   UNL     1      34.855 -16.127 -23.861  0.00  0.00    +0.210 HD
ENDBRANCH   1   3
BRANCH   1   5
ATOM      5  C   UNL     1      34.992 -17.624 -21.493  0.00  0.00    +0.137 C 
ATOM      6  C   UNL     1      34.762 -16.209 -20.973  0.00  0.00    +0.034 C 
BRANCH   5   7
ATOM      7  O   UNL     1      35.805 -18.322 -20.551  0.00  0.00    -0.382 OA
ATOM      8  H   UNL     1      36.232 -19.075 -20.989  0.00  0.00    +0.210 HD
ENDBRANCH   5   7
ENDBRANCH   1   5
TORSDOF 3
ENDMDL
