MODEL 1
REMARK VINA RESULT:      -7.7      0.000      0.000
REMARK  Name = 656917
REMARK  12 active torsions:
REMARK  status: ('A' for Active; 'I' for Inactive)
REMARK    1  A    between atoms: C_2  and  O_7
REMARK    2  A    between atoms: C_3  and  O_9
REMARK    3  A    between atoms: C_4  and  O_11
REMARK    4  A    between atoms: C_5  and  C_21
REMARK    5  A    between atoms: C_6  and  S_13
REMARK    6  A    between atoms: S_13  and  C_14
REMARK    7  A    between atoms: C_14  and  C_15
REMARK    8  A    between atoms: C_15  and  C_16
REMARK    9  A    between atoms: C_16  and  C_17
REMARK   10  A    between atoms: C_17  and  C_18
REMARK   11  A    between atoms: C_18  and  C_19
REMARK   12  A    between atoms: C_21  and  O_22
REMARK                            x       y       z     vdW  Elec       q    Type
REMARK                         _______ _______ _______ _____ _____    ______ ____
ROOT
ATOM      1  O   UNL     1      36.253 -23.282 -13.722  0.00  0.00    -0.340 OA
ATOM      2  C   UNL     1      37.134 -26.012 -13.822  0.00  0.00    +0.170 C 
ATOM      3  C   UNL     1      37.683 -25.012 -12.803  0.00  0.00    +0.169 C 
ATOM      4  C   UNL     1      36.553 -25.299 -15.049  0.00  0.00    +0.177 C 
ATOM      5  C   UNL     1      36.650 -23.922 -12.508  0.00  0.00    +0.175 C 
ATOM      6  C   UNL     1      35.603 -24.174 -14.627  0.00  0.00    +0.192 C 
ENDROOT
BRANCH   2   7
ATOM      7  O   UNL     1      38.190 -26.865 -14.268  0.00  0.00    -0.379 OA
ATOM      8  H   UNL     1      38.878 -26.332 -14.696  0.00  0.00    +0.211 HD
ENDBRANCH   2   7
BRANCH   3   9
ATOM      9  O   UNL     1      37.997 -25.692 -11.591  0.00  0.00    -0.379 OA
ATOM     10  H   UNL     1      37.869 -25.092 -10.840  0.00  0.00    +0.211 HD
ENDBRANCH   3   9
BRANCH   4  11
ATOM     11  O   UNL     1      35.844 -26.258 -15.833  0.00  0.00    -0.379 OA
ATOM     12  H   UNL     1      35.615 -25.868 -16.691  0.00  0.00    +0.211 HD
ENDBRANCH   4  11
BRANCH   6  13
ATOM     13  S   UNL     1      35.028 -23.249 -16.098  0.00  0.00    -0.110 S 
BRANCH  13  14
ATOM     14  C   UNL     1      36.594 -22.429 -16.519  0.00  0.00    +0.060 C 
BRANCH  14  15
ATOM     15  C   UNL     1      36.462 -21.666 -17.834  0.00  0.00    +0.012 C 
BRANCH  15  16
ATOM     16  C   UNL     1      35.320 -22.185 -18.717  0.00  0.00    +0.001 C 
BRANCH  16  17
ATOM     17  C   UNL     1      34.856 -21.175 -19.768  0.00  0.00    +0.000 C 
BRANCH  17  18
ATOM     18  C   UNL     1      33.332 -21.041 -19.773  0.00  0.00    +0.000 C 
BRANCH  18  19
ATOM     19  C   UNL     1      32.879 -19.875 -20.652  0.00  0.00    +0.000 C 
ATOM     20  C   UNL     1      34.060 -19.185 -21.315  0.00  0.00    +0.000 C 
ENDBRANCH  18  19
ENDBRANCH  17  18
ENDBRANCH  16  17
ENDBRANCH  15  16
ENDBRANCH  14  15
ENDBRANCH  13  14
ENDBRANCH   6  13
BRANCH   5  21
ATOM     21  C   UNL     1      37.214 -22.845 -11.586  0.00  0.00    +0.169 C 
BRANCH  21  22
ATOM     22  O   UNL     1      38.627 -22.944 -11.588  0.00  0.00    -0.379 OA
ATOM     23  H   UNL     1      38.886 -23.879 -11.558  0.00  0.00    +0.211 HD
ENDBRANCH  21  22
ENDBRANCH   5  21
TORSDOF 12
ENDMDL
MODEL 2
REMARK VINA RESULT:      -7.5      1.639      2.980
REMARK  Name = 656917
REMARK  12 active torsions:
REMARK  status: ('A' for Active; 'I' for Inactive)
REMARK    1  A    between atoms: C_2  and  O_7
REMARK    2  A    between atoms: C_3  and  O_9
REMARK    3  A    between atoms: C_4  and  O_11
REMARK    4  A    between atoms: C_5  and  C_21
REMARK    5  A    between atoms: C_6  and  S_13
REMARK    6  A    between atoms: S_13  and  C_14
REMARK    7  A    between atoms: C_14  and  C_15
REMARK    8  A    between atoms: C_15  and  C_16
REMARK    9  A    between atoms: C_16  and  C_17
REMARK   10  A    between atoms: C_17  and  C_18
REMARK   11  A    between atoms: C_18  and  C_19
REMARK   12  A    between atoms: C_21  and  O_22
REMARK                            x       y       z     vdW  Elec       q    Type
REMARK                         _______ _______ _______ _____ _____    ______ ____
ROOT
ATOM      1  O   UNL     1      35.810 -25.045 -14.847  0.00  0.00    -0.340 OA
ATOM      2  C   UNL     1      35.789 -24.652 -12.003  0.00  0.00    +0.170 C 
ATOM      3  C   UNL     1      36.767 -25.606 -12.690  0.00  0.00    +0.169 C 
ATOM      4  C   UNL     1      34.547 -24.406 -12.868  0.00  0.00    +0.177 C 
ATOM      5  C   UNL     1      37.039 -25.157 -14.127  0.00  0.00    +0.175 C 
ATOM      6  C   UNL     1      34.944 -24.049 -14.304  0.00  0.00    +0.192 C 
ENDROOT
BRANCH   2   7
ATOM      7  O   UNL     1      35.358 -25.220 -10.766  0.00  0.00    -0.379 OA
ATOM      8  H   UNL     1      34.617 -25.825 -10.928  0.00  0.00    +0.211 HD
ENDBRANCH   2   7
BRANCH   3   9
ATOM      9  O   UNL     1      37.997 -25.626 -11.970  0.00  0.00    -0.379 OA
ATOM     10  H   UNL     1      38.728 -25.799 -12.583  0.00  0.00    +0.211 HD
ENDBRANCH   3   9
BRANCH   4  11
ATOM     11  O   UNL     1      33.805 -23.330 -12.294  0.00  0.00    -0.379 OA
ATOM     12  H   UNL     1      34.100 -23.183 -11.383  0.00  0.00    +0.211 HD
ENDBRANCH   4  11
BRANCH   6  13
ATOM     13  S   UNL     1      33.451 -23.894 -15.351  0.00  0.00    -0.110 S 
BRANCH  13  14
ATOM     14  C   UNL     1      34.234 -23.158 -16.816  0.00  0.00    +0.060 C 
BRANCH  14  15
ATOM     15  C   UNL     1      33.187 -22.835 -17.879  0.00  0.00    +0.012 C 
BRANCH  15  16
ATOM     16  C   UNL     1      33.770 -22.097 -19.090  0.00  0.00    +0.001 C 
BRANCH  16  17
ATOM     17  C   UNL     1      35.290 -21.931 -19.027  0.00  0.00    +0.000 C 
BRANCH  17  18
ATOM     18  C   UNL     1      35.766 -20.832 -19.979  0.00  0.00    +0.000 C 
BRANCH  18  19
ATOM     19  C   UNL     1      34.587 -20.129 -20.651  0.00  0.00    +0.000 C 
ATOM     20  C   UNL     1      35.027 -18.864 -21.369  0.00  0.00    +0.000 C 
ENDBRANCH  18  19
ENDBRANCH  17  18
ENDBRANCH  16  17
ENDBRANCH  15  16
ENDBRANCH  14  15
ENDBRANCH  13  14
ENDBRANCH   6  13
BRANCH   5  21
ATOM     21  C   UNL     1      37.917 -26.157 -14.874  0.00  0.00    +0.169 C 
BRANCH  21  22
ATOM     22  O   UNL     1      37.145 -26.761 -15.896  0.00  0.00    -0.379 OA
ATOM     23  H   UNL     1      37.545 -27.609 -16.144  0.00  0.00    +0.211 HD
ENDBRANCH  21  22
ENDBRANCH   5  21
TORSDOF 12
ENDMDL
MODEL 3
REMARK VINA RESULT:      -7.4      4.472      6.103
REMARK  Name = 656917
REMARK  12 active torsions:
REMARK  status: ('A' for Active; 'I' for Inactive)
REMARK    1  A    between atoms: C_2  and  O_7
REMARK    2  A    between atoms: C_3  and  O_9
REMARK    3  A    between atoms: C_4  and  O_11
REMARK    4  A    between atoms: C_5  and  C_21
REMARK    5  A    between atoms: C_6  and  S_13
REMARK    6  A    between atoms: S_13  and  C_14
REMARK    7  A    between atoms: C_14  and  C_15
REMARK    8  A    between atoms: C_15  and  C_16
REMARK    9  A    between atoms: C_16  and  C_17
REMARK   10  A    between atoms: C_17  and  C_18
REMARK   11  A    between atoms: C_18  and  C_19
REMARK   12  A    between atoms: C_21  and  O_22
REMARK                            x       y       z     vdW  Elec       q    Type
REMARK                         _______ _______ _______ _____ _____    ______ ____
ROOT
ATOM      1  O   UNL     1      30.998 -23.444 -16.337  0.00  0.00    -0.340 OA
ATOM      2  C   UNL     1      30.772 -25.046 -13.966  0.00  0.00    +0.170 C 
ATOM      3  C   UNL     1      29.559 -24.392 -14.630  0.00  0.00    +0.169 C 
ATOM      4  C   UNL     1      32.071 -24.324 -14.339  0.00  0.00    +0.177 C 
ATOM      5  C   UNL     1      29.804 -24.199 -16.128  0.00  0.00    +0.175 C 
ATOM      6  C   UNL     1      32.163 -24.112 -15.853  0.00  0.00    +0.192 C 
ENDROOT
BRANCH   2   7
ATOM      7  O   UNL     1      30.627 -24.987 -12.546  0.00  0.00    -0.379 OA
ATOM      8  H   UNL     1      29.928 -24.353 -12.318  0.00  0.00    +0.211 HD
ENDBRANCH   2   7
BRANCH   3   9
ATOM      9  O   UNL     1      28.413 -25.221 -14.450  0.00  0.00    -0.379 OA
ATOM     10  H   UNL     1      28.670 -26.032 -13.985  0.00  0.00    +0.211 HD
ENDBRANCH   3   9
BRANCH   4  11
ATOM     11  O   UNL     1      33.171 -25.119 -13.899  0.00  0.00    -0.379 OA
ATOM     12  H   UNL     1      33.760 -25.300 -14.647  0.00  0.00    +0.211 HD
ENDBRANCH   4  11
BRANCH   6  13
ATOM     13  S   UNL     1      33.651 -23.129 -16.264  0.00  0.00    -0.110 S 
BRANCH  13  14
ATOM     14  C   UNL     1      33.248 -22.754 -17.995  0.00  0.00    +0.060 C 
BRANCH  14  15
ATOM     15  C   UNL     1      34.522 -22.598 -18.821  0.00  0.00    +0.012 C 
BRANCH  15  16
ATOM     16  C   UNL     1      34.550 -21.302 -19.639  0.00  0.00    +0.001 C 
BRANCH  16  17
ATOM     17  C   UNL     1      33.159 -20.743 -19.943  0.00  0.00    +0.000 C 
BRANCH  17  18
ATOM     18  C   UNL     1      33.235 -19.567 -20.919  0.00  0.00    +0.000 C 
BRANCH  18  19
ATOM     19  C   UNL     1      34.660 -19.363 -21.433  0.00  0.00    +0.000 C 
ATOM     20  C   UNL     1      34.686 -19.163 -22.940  0.00  0.00    +0.000 C 
ENDBRANCH  18  19
ENDBRANCH  17  18
ENDBRANCH  16  17
ENDBRANCH  15  16
ENDBRANCH  14  15
ENDBRANCH  13  14
ENDBRANCH   6  13
BRANCH   5  21
ATOM     21  C   UNL     1      28.659 -23.441 -16.794  0.00  0.00    +0.169 C 
BRANCH  21  22
ATOM     22  O   UNL     1      27.789 -24.380 -17.400  0.00  0.00    -0.379 OA
ATOM     23  H   UNL     1      27.775 -25.194 -16.873  0.00  0.00    +0.211 HD
ENDBRANCH  21  22
ENDBRANCH   5  21
TORSDOF 12
ENDMDL
MODEL 4
REMARK VINA RESULT:      -7.3      1.802      2.764
REMARK  Name = 656917
REMARK  12 active torsions:
REMARK  status: ('A' for Active; 'I' for Inactive)
REMARK    1  A    between atoms: C_2  and  O_7
REMARK    2  A    between atoms: C_3  and  O_9
REMARK    3  A    between atoms: C_4  and  O_11
REMARK    4  A    between atoms: C_5  and  C_21
REMARK    5  A    between atoms: C_6  and  S_13
REMARK    6  A    between atoms: S_13  and  C_14
REMARK    7  A    between atoms: C_14  and  C_15
REMARK    8  A    between atoms: C_15  and  C_16
REMARK    9  A    between atoms: C_16  and  C_17
REMARK   10  A    between atoms: C_17  and  C_18
REMARK   11  A    between atoms: C_18  and  C_19
REMARK   12  A    between atoms: C_21  and  O_22
REMARK                            x       y       z     vdW  Elec       q    Type
REMARK                         _______ _______ _______ _____ _____    ______ ____
ROOT
ATOM      1  O   UNL     1      35.425 -23.441 -14.548  0.00  0.00    -0.340 OA
ATOM      2  C   UNL     1      36.982 -24.578 -12.422  0.00  0.00    +0.170 C 
ATOM      3  C   UNL     1      35.488 -24.285 -12.275  0.00  0.00    +0.169 C 
ATOM      4  C   UNL     1      37.614 -23.722 -13.525  0.00  0.00    +0.177 C 
ATOM      5  C   UNL     1      34.792 -24.341 -13.637  0.00  0.00    +0.175 C 
ATOM      6  C   UNL     1      36.783 -23.789 -14.811  0.00  0.00    +0.192 C 
ENDROOT
BRANCH   2   7
ATOM      7  O   UNL     1      37.649 -24.276 -11.194  0.00  0.00    -0.379 OA
ATOM      8  H   UNL     1      38.373 -23.654 -11.365  0.00  0.00    +0.211 HD
ENDBRANCH   2   7
BRANCH   3   9
ATOM      9  O   UNL     1      34.896 -25.253 -11.412  0.00  0.00    -0.379 OA
ATOM     10  H   UNL     1      35.570 -25.889 -11.129  0.00  0.00    +0.211 HD
ENDBRANCH   3   9
BRANCH   4  11
ATOM     11  O   UNL     1      38.930 -24.214 -13.779  0.00  0.00    -0.379 OA
ATOM     12  H   UNL     1      38.939 -24.695 -14.620  0.00  0.00    +0.211 HD
ENDBRANCH   4  11
BRANCH   6  13
ATOM     13  S   UNL     1      37.477 -22.657 -16.070  0.00  0.00    -0.110 S 
BRANCH  13  14
ATOM     14  C   UNL     1      35.962 -22.378 -17.034  0.00  0.00    +0.060 C 
BRANCH  14  15
ATOM     15  C   UNL     1      36.277 -21.614 -18.318  0.00  0.00    +0.012 C 
BRANCH  15  16
ATOM     16  C   UNL     1      35.353 -21.994 -19.482  0.00  0.00    +0.001 C 
BRANCH  16  17
ATOM     17  C   UNL     1      33.888 -21.625 -19.241  0.00  0.00    +0.000 C 
BRANCH  17  18
ATOM     18  C   UNL     1      33.413 -20.566 -20.238  0.00  0.00    +0.000 C 
BRANCH  18  19
ATOM     19  C   UNL     1      34.594 -19.845 -20.888  0.00  0.00    +0.000 C 
ATOM     20  C   UNL     1      34.219 -18.436 -21.318  0.00  0.00    +0.000 C 
ENDBRANCH  18  19
ENDBRANCH  17  18
ENDBRANCH  16  17
ENDBRANCH  15  16
ENDBRANCH  14  15
ENDBRANCH  13  14
ENDBRANCH   6  13
BRANCH   5  21
ATOM     21  C   UNL     1      33.324 -23.936 -13.537  0.00  0.00    +0.169 C 
BRANCH  21  22
ATOM     22  O   UNL     1      32.560 -25.084 -13.214  0.00  0.00    -0.379 OA
ATOM     23  H   UNL     1      31.966 -24.879 -12.476  0.00  0.00    +0.211 HD
ENDBRANCH  21  22
ENDBRANCH   5  21
TORSDOF 12
ENDMDL
MODEL 5
REMARK VINA RESULT:      -7.2      1.810      2.495
REMARK  Name = 656917
REMARK  12 active torsions:
REMARK  status: ('A' for Active; 'I' for Inactive)
REMARK    1  A    between atoms: C_2  and  O_7
REMARK    2  A    between atoms: C_3  and  O_9
REMARK    3  A    between atoms: C_4  and  O_11
REMARK    4  A    between atoms: C_5  and  C_21
REMARK    5  A    between atoms: C_6  and  S_13
REMARK    6  A    between atoms: S_13  and  C_14
REMARK    7  A    between atoms: C_14  and  C_15
REMARK    8  A    between atoms: C_15  and  C_16
REMARK    9  A    between atoms: C_16  and  C_17
REMARK   10  A    between atoms: C_17  and  C_18
REMARK   11  A    between atoms: C_18  and  C_19
REMARK   12  A    between atoms: C_21  and  O_22
REMARK                            x       y       z     vdW  Elec       q    Type
REMARK                         _______ _______ _______ _____ _____    ______ ____
ROOT
ATOM      1  O   UNL     1      38.082 -23.782 -15.255  0.00  0.00    -0.340 OA
ATOM      2  C   UNL     1      36.617 -26.163 -14.604  0.00  0.00    +0.170 C 
ATOM      3  C   UNL     1      38.090 -26.196 -15.015  0.00  0.00    +0.169 C 
ATOM      4  C   UNL     1      35.923 -24.894 -15.110  0.00  0.00    +0.177 C 
ATOM      5  C   UNL     1      38.778 -24.877 -14.658  0.00  0.00    +0.175 C 
ATOM      6  C   UNL     1      36.747 -23.648 -14.769  0.00  0.00    +0.192 C 
ENDROOT
BRANCH   2   7
ATOM      7  O   UNL     1      35.941 -27.289 -15.167  0.00  0.00    -0.379 OA
ATOM      8  H   UNL     1      35.025 -27.045 -15.376  0.00  0.00    +0.211 HD
ENDBRANCH   2   7
BRANCH   3   9
ATOM      9  O   UNL     1      38.750 -27.262 -14.337  0.00  0.00    -0.379 OA
ATOM     10  H   UNL     1      39.670 -27.316 -14.638  0.00  0.00    +0.211 HD
ENDBRANCH   3   9
BRANCH   4  11
ATOM     11  O   UNL     1      34.640 -24.804 -14.491  0.00  0.00    -0.379 OA
ATOM     12  H   UNL     1      34.707 -25.085 -13.565  0.00  0.00    +0.211 HD
ENDBRANCH   4  11
BRANCH   6  13
ATOM     13  S   UNL     1      35.972 -22.160 -15.500  0.00  0.00    -0.110 S 
BRANCH  13  14
ATOM     14  C   UNL     1      37.256 -21.772 -16.726  0.00  0.00    +0.060 C 
BRANCH  14  15
ATOM     15  C   UNL     1      36.640 -21.606 -18.113  0.00  0.00    +0.012 C 
BRANCH  15  16
ATOM     16  C   UNL     1      35.261 -22.264 -18.239  0.00  0.00    +0.001 C 
BRANCH  16  17
ATOM     17  C   UNL     1      34.429 -21.718 -19.401  0.00  0.00    +0.000 C 
BRANCH  17  18
ATOM     18  C   UNL     1      35.204 -20.657 -20.185  0.00  0.00    +0.000 C 
BRANCH  18  19
ATOM     19  C   UNL     1      34.265 -19.790 -21.024  0.00  0.00    +0.000 C 
ATOM     20  C   UNL     1      32.815 -19.974 -20.607  0.00  0.00    +0.000 C 
ENDBRANCH  18  19
ENDBRANCH  17  18
ENDBRANCH  16  17
ENDBRANCH  15  16
ENDBRANCH  14  15
ENDBRANCH  13  14
ENDBRANCH   6  13
BRANCH   5  21
ATOM     21  C   UNL     1      40.217 -24.836 -15.163  0.00  0.00    +0.169 C 
BRANCH  21  22
ATOM     22  O   UNL     1      40.392 -25.875 -16.110  0.00  0.00    -0.379 OA
ATOM     23  H   UNL     1      39.967 -25.626 -16.946  0.00  0.00    +0.211 HD
ENDBRANCH  21  22
ENDBRANCH   5  21
TORSDOF 12
ENDMDL
MODEL 6
REMARK VINA RESULT:      -7.2      3.413      4.310
REMARK  Name = 656917
REMARK  12 active torsions:
REMARK  status: ('A' for Active; 'I' for Inactive)
REMARK    1  A    between atoms: C_2  and  O_7
REMARK    2  A    between atoms: C_3  and  O_9
REMARK    3  A    between atoms: C_4  and  O_11
REMARK    4  A    between atoms: C_5  and  C_21
REMARK    5  A    between atoms: C_6  and  S_13
REMARK    6  A    between atoms: S_13  and  C_14
REMARK    7  A    between atoms: C_14  and  C_15
REMARK    8  A    between atoms: C_15  and  C_16
REMARK    9  A    between atoms: C_16  and  C_17
REMARK   10  A    between atoms: C_17  and  C_18
REMARK   11  A    between atoms: C_18  and  C_19
REMARK   12  A    between atoms: C_21  and  O_22
REMARK                            x       y       z     vdW  Elec       q    Type
REMARK                         _______ _______ _______ _____ _____    ______ ____
ROOT
ATOM      1  O   UNL     1      35.919 -23.606 -13.527  0.00  0.00    -0.340 OA
ATOM      2  C   UNL     1      37.156 -26.179 -13.826  0.00  0.00    +0.170 C 
ATOM      3  C   UNL     1      37.660 -25.141 -12.822  0.00  0.00    +0.169 C 
ATOM      4  C   UNL     1      36.362 -25.522 -14.960  0.00  0.00    +0.177 C 
ATOM      5  C   UNL     1      36.521 -24.217 -12.385  0.00  0.00    +0.175 C 
ATOM      6  C   UNL     1      35.312 -24.556 -14.403  0.00  0.00    +0.192 C 
ENDROOT
BRANCH   2   7
ATOM      7  O   UNL     1      38.270 -26.861 -14.406  0.00  0.00    -0.379 OA
ATOM      8  H   UNL     1      38.841 -27.206 -13.701  0.00  0.00    +0.211 HD
ENDBRANCH   2   7
BRANCH   3   9
ATOM      9  O   UNL     1      38.186 -25.804 -11.675  0.00  0.00    -0.379 OA
ATOM     10  H   UNL     1      39.151 -25.865 -11.751  0.00  0.00    +0.211 HD
ENDBRANCH   3   9
BRANCH   4  11
ATOM     11  O   UNL     1      35.717 -26.548 -15.713  0.00  0.00    -0.379 OA
ATOM     12  H   UNL     1      34.828 -26.701 -15.357  0.00  0.00    +0.211 HD
ENDBRANCH   4  11
BRANCH   6  13
ATOM     13  S   UNL     1      34.470 -23.680 -15.771  0.00  0.00    -0.110 S 
BRANCH  13  14
ATOM     14  C   UNL     1      32.857 -23.435 -14.972  0.00  0.00    +0.060 C 
BRANCH  14  15
ATOM     15  C   UNL     1      32.562 -24.573 -13.999  0.00  0.00    +0.012 C 
BRANCH  15  16
ATOM     16  C   UNL     1      31.068 -24.723 -13.687  0.00  0.00    +0.001 C 
BRANCH  16  17
ATOM     17  C   UNL     1      30.282 -25.427 -14.795  0.00  0.00    +0.000 C 
BRANCH  17  18
ATOM     18  C   UNL     1      28.972 -24.697 -15.094  0.00  0.00    +0.000 C 
BRANCH  18  19
ATOM     19  C   UNL     1      29.228 -23.348 -15.767  0.00  0.00    +0.000 C 
ATOM     20  C   UNL     1      27.970 -22.495 -15.804  0.00  0.00    +0.000 C 
ENDBRANCH  18  19
ENDBRANCH  17  18
ENDBRANCH  16  17
ENDBRANCH  15  16
ENDBRANCH  14  15
ENDBRANCH  13  14
ENDBRANCH   6  13
BRANCH   5  21
ATOM     21  C   UNL     1      37.020 -23.098 -11.476  0.00  0.00    +0.169 C 
BRANCH  21  22
ATOM     22  O   UNL     1      38.414 -22.944 -11.674  0.00  0.00    -0.379 OA
ATOM     23  H   UNL     1      38.656 -23.285 -12.549  0.00  0.00    +0.211 HD
ENDBRANCH  21  22
ENDBRANCH   5  21
TORSDOF 12
ENDMDL
MODEL 7
REMARK VINA RESULT:      -7.1      7.931     11.689
REMARK  Name = 656917
REMARK  12 active torsions:
REMARK  status: ('A' for Active; 'I' for Inactive)
REMARK    1  A    between atoms: C_2  and  O_7
REMARK    2  A    between atoms: C_3  and  O_9
REMARK    3  A    between atoms: C_4  and  O_11
REMARK    4  A    between atoms: C_5  and  C_21
REMARK    5  A    between atoms: C_6  and  S_13
REMARK    6  A    between atoms: S_13  and  C_14
REMARK    7  A    between atoms: C_14  and  C_15
REMARK    8  A    between atoms: C_15  and  C_16
REMARK    9  A    between atoms: C_16  and  C_17
REMARK   10  A    between atoms: C_17  and  C_18
REMARK   11  A    between atoms: C_18  and  C_19
REMARK   12  A    between atoms: C_21  and  O_22
REMARK                            x       y       z     vdW  Elec       q    Type
REMARK                         _______ _______ _______ _____ _____    ______ ____
ROOT
ATOM      1  O   UNL     1      34.327 -16.065 -22.423  0.00  0.00    -0.340 OA
ATOM      2  C   UNL     1      33.574 -14.728 -24.849  0.00  0.00    +0.170 C 
ATOM      3  C   UNL     1      33.127 -14.237 -23.471  0.00  0.00    +0.169 C 
ATOM      4  C   UNL     1      33.941 -16.216 -24.820  0.00  0.00    +0.177 C 
ATOM      5  C   UNL     1      34.135 -14.650 -22.398  0.00  0.00    +0.175 C 
ATOM      6  C   UNL     1      34.886 -16.523 -23.653  0.00  0.00    +0.192 C 
ENDROOT
BRANCH   2   7
ATOM      7  O   UNL     1      32.509 -14.556 -25.786  0.00  0.00    -0.379 OA
ATOM      8  H   UNL     1      31.693 -14.933 -25.420  0.00  0.00    +0.211 HD
ENDBRANCH   2   7
BRANCH   3   9
ATOM      9  O   UNL     1      33.019 -12.816 -23.485  0.00  0.00    -0.379 OA
ATOM     10  H   UNL     1      32.687 -12.525 -24.349  0.00  0.00    +0.211 HD
ENDBRANCH   3   9
BRANCH   4  11
ATOM     11  O   UNL     1      34.580 -16.547 -26.053  0.00  0.00    -0.379 OA
ATOM     12  H   UNL     1      33.940 -16.474 -26.778  0.00  0.00    +0.211 HD
ENDBRANCH   4  11
BRANCH   6  13
ATOM     13  S   UNL     1      35.202 -18.323 -23.554  0.00  0.00    -0.110 S 
BRANCH  13  14
ATOM     14  C   UNL     1      36.068 -18.348 -21.956  0.00  0.00    +0.060 C 
BRANCH  14  15
ATOM     15  C   UNL     1      35.442 -19.383 -21.024  0.00  0.00    +0.012 C 
BRANCH  15  16
ATOM     16  C   UNL     1      33.929 -19.533 -21.225  0.00  0.00    +0.001 C 
BRANCH  16  17
ATOM     17  C   UNL     1      33.279 -20.509 -20.242  0.00  0.00    +0.000 C 
BRANCH  17  18
ATOM     18  C   UNL     1      34.333 -21.347 -19.516  0.00  0.00    +0.000 C 
BRANCH  18  19
ATOM     19  C   UNL     1      33.818 -22.757 -19.225  0.00  0.00    +0.000 C 
ATOM     20  C   UNL     1      33.603 -22.976 -17.736  0.00  0.00    +0.000 C 
ENDBRANCH  18  19
ENDBRANCH  17  18
ENDBRANCH  16  17
ENDBRANCH  15  16
ENDBRANCH  14  15
ENDBRANCH  13  14
ENDBRANCH   6  13
BRANCH   5  21
ATOM     21  C   UNL     1      33.655 -14.276 -20.999  0.00  0.00    +0.169 C 
BRANCH  21  22
ATOM     22  O   UNL     1      32.300 -13.873 -21.080  0.00  0.00    -0.379 OA
ATOM     23  H   UNL     1      32.216 -13.148 -21.718  0.00  0.00    +0.211 HD
ENDBRANCH  21  22
ENDBRANCH   5  21
TORSDOF 12
ENDMDL
MODEL 8
REMARK VINA RESULT:      -7.1     10.598     13.583
REMARK  Name = 656917
REMARK  12 active torsions:
REMARK  status: ('A' for Active; 'I' for Inactive)
REMARK    1  A    between atoms: C_2  and  O_7
REMARK    2  A    between atoms: C_3  and  O_9
REMARK    3  A    between atoms: C_4  and  O_11
REMARK    4  A    between atoms: C_5  and  C_21
REMARK    5  A    between atoms: C_6  and  S_13
REMARK    6  A    between atoms: S_13  and  C_14
REMARK    7  A    between atoms: C_14  and  C_15
REMARK    8  A    between atoms: C_15  and  C_16
REMARK    9  A    between atoms: C_16  and  C_17
REMARK   10  A    between atoms: C_17  and  C_18
REMARK   11  A    between atoms: C_18  and  C_19
REMARK   12  A    between atoms: C_21  and  O_22
REMARK                            x       y       z     vdW  Elec       q    Type
REMARK                         _______ _______ _______ _____ _____    ______ ____
ROOT
ATOM      1  O   UNL     1      32.945 -14.455 -23.805  0.00  0.00    -0.340 OA
ATOM      2  C   UNL     1      34.820 -16.597 -23.434  0.00  0.00    +0.170 C 
ATOM      3  C   UNL     1      34.082 -16.376 -24.755  0.00  0.00    +0.169 C 
ATOM      4  C   UNL     1      34.068 -15.962 -22.259  0.00  0.00    +0.177 C 
ATOM      5  C   UNL     1      33.711 -14.901 -24.925  0.00  0.00    +0.175 C 
ATOM      6  C   UNL     1      33.675 -14.516 -22.580  0.00  0.00    +0.192 C 
ENDROOT
BRANCH   2   7
ATOM      7  O   UNL     1      34.931 -17.998 -23.179  0.00  0.00    -0.379 OA
ATOM      8  H   UNL     1      34.147 -18.453 -23.525  0.00  0.00    +0.211 HD
ENDBRANCH   2   7
BRANCH   3   9
ATOM      9  O   UNL     1      34.917 -16.772 -25.840  0.00  0.00    -0.379 OA
ATOM     10  H   UNL     1      35.844 -16.758 -25.556  0.00  0.00    +0.211 HD
ENDBRANCH   3   9
BRANCH   4  11
ATOM     11  O   UNL     1      34.919 -15.984 -21.114  0.00  0.00    -0.379 OA
ATOM     12  H   UNL     1      34.401 -16.229 -20.331  0.00  0.00    +0.211 HD
ENDBRANCH   4  11
BRANCH   6  13
ATOM     13  S   UNL     1      32.661 -13.821 -21.224  0.00  0.00    -0.110 S 
BRANCH  13  14
ATOM     14  C   UNL     1      31.978 -12.392 -22.114  0.00  0.00    +0.060 C 
BRANCH  14  15
ATOM     15  C   UNL     1      31.079 -11.568 -21.196  0.00  0.00    +0.012 C 
BRANCH  15  16
ATOM     16  C   UNL     1      31.652 -11.409 -19.782  0.00  0.00    +0.001 C 
BRANCH  16  17
ATOM     17  C   UNL     1      31.906  -9.952 -19.390  0.00  0.00    +0.000 C 
BRANCH  17  18
ATOM     18  C   UNL     1      32.057  -9.064 -20.626  0.00  0.00    +0.000 C 
BRANCH  18  19
ATOM     19  C   UNL     1      32.672  -7.711 -20.267  0.00  0.00    +0.000 C 
ATOM     20  C   UNL     1      31.921  -6.564 -20.925  0.00  0.00    +0.000 C 
ENDBRANCH  18  19
ENDBRANCH  17  18
ENDBRANCH  16  17
ENDBRANCH  15  16
ENDBRANCH  14  15
ENDBRANCH  13  14
ENDBRANCH   6  13
BRANCH   5  21
ATOM     21  C   UNL     1      32.870 -14.671 -26.177  0.00  0.00    +0.169 C 
BRANCH  21  22
ATOM     22  O   UNL     1      32.424 -15.927 -26.658  0.00  0.00    -0.379 OA
ATOM     23  H   UNL     1      31.494 -16.054 -26.415  0.00  0.00    +0.211 HD
ENDBRANCH  21  22
ENDBRANCH   5  21
TORSDOF 12
ENDMDL
MODEL 9
REMARK VINA RESULT:      -7.1      1.756      2.766
REMARK  Name = 656917
REMARK  12 active torsions:
REMARK  status: ('A' for Active; 'I' for Inactive)
REMARK    1  A    between atoms: C_2  and  O_7
REMARK    2  A    between atoms: C_3  and  O_9
REMARK    3  A    between atoms: C_4  and  O_11
REMARK    4  A    between atoms: C_5  and  C_21
REMARK    5  A    between atoms: C_6  and  S_13
REMARK    6  A    between atoms: S_13  and  C_14
REMARK    7  A    between atoms: C_14  and  C_15
REMARK    8  A    between atoms: C_15  and  C_16
REMARK    9  A    between atoms: C_16  and  C_17
REMARK   10  A    between atoms: C_17  and  C_18
REMARK   11  A    between atoms: C_18  and  C_19
REMARK   12  A    between atoms: C_21  and  O_22
REMARK                            x       y       z     vdW  Elec       q    Type
REMARK                         _______ _______ _______ _____ _____    ______ ____
ROOT
ATOM      1  O   UNL     1      35.096 -23.288 -15.271  0.00  0.00    -0.340 OA
ATOM      2  C   UNL     1      37.477 -24.352 -14.072  0.00  0.00    +0.170 C 
ATOM      3  C   UNL     1      36.134 -24.326 -13.341  0.00  0.00    +0.169 C 
ATOM      4  C   UNL     1      37.528 -23.301 -15.187  0.00  0.00    +0.177 C 
ATOM      5  C   UNL     1      34.976 -24.364 -14.340  0.00  0.00    +0.175 C 
ATOM      6  C   UNL     1      36.277 -23.379 -16.068  0.00  0.00    +0.192 C 
ENDROOT
BRANCH   2   7
ATOM      7  O   UNL     1      38.528 -24.064 -13.148  0.00  0.00    -0.379 OA
ATOM      8  H   UNL     1      39.357 -24.455 -13.469  0.00  0.00    +0.211 HD
ENDBRANCH   2   7
BRANCH   3   9
ATOM      9  O   UNL     1      36.040 -25.458 -12.479  0.00  0.00    -0.379 OA
ATOM     10  H   UNL     1      36.889 -25.928 -12.469  0.00  0.00    +0.211 HD
ENDBRANCH   3   9
BRANCH   4  11
ATOM     11  O   UNL     1      38.689 -23.540 -15.981  0.00  0.00    -0.379 OA
ATOM     12  H   UNL     1      38.446 -24.061 -16.761  0.00  0.00    +0.211 HD
ENDBRANCH   4  11
BRANCH   6  13
ATOM     13  S   UNL     1      36.290 -22.030 -17.305  0.00  0.00    -0.110 S 
BRANCH  13  14
ATOM     14  C   UNL     1      34.738 -22.440 -18.156  0.00  0.00    +0.060 C 
BRANCH  14  15
ATOM     15  C   UNL     1      34.624 -21.663 -19.465  0.00  0.00    +0.012 C 
BRANCH  15  16
ATOM     16  C   UNL     1      33.248 -21.013 -19.658  0.00  0.00    +0.001 C 
BRANCH  16  17
ATOM     17  C   UNL     1      33.179 -20.083 -20.871  0.00  0.00    +0.000 C 
BRANCH  17  18
ATOM     18  C   UNL     1      34.456 -19.250 -21.002  0.00  0.00    +0.000 C 
BRANCH  18  19
ATOM     19  C   UNL     1      34.579 -18.639 -22.399  0.00  0.00    +0.000 C 
ATOM     20  C   UNL     1      36.021 -18.285 -22.727  0.00  0.00    +0.000 C 
ENDBRANCH  18  19
ENDBRANCH  17  18
ENDBRANCH  16  17
ENDBRANCH  15  16
ENDBRANCH  14  15
ENDBRANCH  13  14
ENDBRANCH   6  13
BRANCH   5  21
ATOM     21  C   UNL     1      33.626 -24.219 -13.644  0.00  0.00    +0.169 C 
BRANCH  21  22
ATOM     22  O   UNL     1      33.821 -23.535 -12.419  0.00  0.00    -0.379 OA
ATOM     23  H   UNL     1      33.648 -22.589 -12.546  0.00  0.00    +0.211 HD
ENDBRANCH  21  22
ENDBRANCH   5  21
TORSDOF 12
ENDMDL
