MODEL 1
REMARK VINA RESULT:     -10.0      0.000      0.000
REMARK  Name = 688857
REMARK  2 active torsions:
REMARK  status: ('A' for Active; 'I' for Inactive)
REMARK    1  A    between atoms: C_3  and  C_12
REMARK    2  A    between atoms: C_10  and  O_18
REMARK                            x       y       z     vdW  Elec       q    Type
REMARK                         _______ _______ _______ _____ _____    ______ ____
ROOT
ATOM      1  O   UNL     1      33.703 -18.391 -21.191  0.00  0.00    -0.474 OA
ATOM      2  O   UNL     1      37.732 -19.162 -21.276  0.00  0.00    -0.291 OA
ATOM      3  C   UNL     1      34.656 -17.316 -21.204  0.00  0.00    +0.196 C 
ATOM      4  C   UNL     1      35.931 -17.724 -21.941  0.00  0.00    +0.117 C 
ATOM      5  C   UNL     1      35.571 -19.854 -20.625  0.00  0.00    +0.069 C 
ATOM      6  C   UNL     1      36.530 -18.927 -21.259  0.00  0.00    +0.180 C 
ATOM      7  C   UNL     1      34.208 -19.544 -20.646  0.00  0.00    +0.145 C 
ATOM      8  C   UNL     1      36.013 -21.048 -20.049  0.00  0.00    +0.009 C 
ATOM      9  C   UNL     1      33.282 -20.447 -20.120  0.00  0.00    +0.074 C 
ATOM     10  C   UNL     1      33.723 -21.639 -19.546  0.00  0.00    +0.137 C 
ATOM     11  C   UNL     1      35.086 -21.937 -19.506  0.00  0.00    +0.037 C 
ENDROOT
BRANCH   3  12
ATOM     12  C   UNL     1      34.010 -16.113 -21.857  0.00  0.00    +0.018 C 
ATOM     13  C   UNL     1      33.006 -15.412 -21.188  0.00  0.00    -0.001 C 
ATOM     14  C   UNL     1      34.417 -15.705 -23.127  0.00  0.00    -0.001 C 
ATOM     15  C   UNL     1      32.411 -14.303 -21.789  0.00  0.00    -0.000 C 
ATOM     16  C   UNL     1      33.822 -14.596 -23.727  0.00  0.00    -0.000 C 
ATOM     17  C   UNL     1      32.818 -13.895 -23.058  0.00  0.00    -0.000 C 
ENDBRANCH   3  12
BRANCH  10  18
ATOM     18  O   UNL     1      32.821 -22.516 -19.024  0.00  0.00    -0.505 OA
ATOM     19  H   UNL     1      32.979 -22.906 -18.187  0.00  0.00    +0.292 HD
ENDBRANCH  10  18
TORSDOF 2
ENDMDL
MODEL 2
REMARK VINA RESULT:     -10.0      1.792      6.120
REMARK  Name = 688857
REMARK  2 active torsions:
REMARK  status: ('A' for Active; 'I' for Inactive)
REMARK    1  A    between atoms: C_3  and  C_12
REMARK    2  A    between atoms: C_10  and  O_18
REMARK                            x       y       z     vdW  Elec       q    Type
REMARK                         _______ _______ _______ _____ _____    ______ ____
ROOT
ATOM      1  O   UNL     1      34.031 -17.405 -20.932  0.00  0.00    -0.474 OA
ATOM      2  O   UNL     1      35.098 -17.150 -24.886  0.00  0.00    -0.291 OA
ATOM      3  C   UNL     1      34.119 -18.586 -21.747  0.00  0.00    +0.196 C 
ATOM      4  C   UNL     1      35.164 -18.414 -22.849  0.00  0.00    +0.117 C 
ATOM      5  C   UNL     1      34.079 -16.135 -23.014  0.00  0.00    +0.069 C 
ATOM      6  C   UNL     1      34.788 -17.232 -23.704  0.00  0.00    +0.180 C 
ATOM      7  C   UNL     1      33.761 -16.274 -21.660  0.00  0.00    +0.145 C 
ATOM      8  C   UNL     1      33.770 -14.953 -23.693  0.00  0.00    +0.009 C 
ATOM      9  C   UNL     1      33.162 -15.216 -20.975  0.00  0.00    +0.074 C 
ATOM     10  C   UNL     1      32.854 -14.036 -21.651  0.00  0.00    +0.137 C 
ATOM     11  C   UNL     1      33.153 -13.906 -23.009  0.00  0.00    +0.037 C 
ENDROOT
BRANCH   3  12
ATOM     12  C   UNL     1      34.457 -19.759 -20.852  0.00  0.00    +0.018 C 
ATOM     13  C   UNL     1      33.435 -20.508 -20.269  0.00  0.00    -0.001 C 
ATOM     14  C   UNL     1      35.790 -20.091 -20.611  0.00  0.00    -0.001 C 
ATOM     15  C   UNL     1      33.746 -21.589 -19.445  0.00  0.00    -0.000 C 
ATOM     16  C   UNL     1      36.100 -21.173 -19.787  0.00  0.00    -0.000 C 
ATOM     17  C   UNL     1      35.078 -21.921 -19.204  0.00  0.00    -0.000 C 
ENDBRANCH   3  12
BRANCH  10  18
ATOM     18  O   UNL     1      32.260 -13.007 -20.986  0.00  0.00    -0.505 OA
ATOM     19  H   UNL     1      31.930 -13.138 -20.119  0.00  0.00    +0.292 HD
ENDBRANCH  10  18
TORSDOF 2
ENDMDL
MODEL 3
REMARK VINA RESULT:      -9.7      2.807      4.924
REMARK  Name = 688857
REMARK  2 active torsions:
REMARK  status: ('A' for Active; 'I' for Inactive)
REMARK    1  A    between atoms: C_3  and  C_12
REMARK    2  A    between atoms: C_10  and  O_18
REMARK                            x       y       z     vdW  Elec       q    Type
REMARK                         _______ _______ _______ _____ _____    ______ ____
ROOT
ATOM      1  O   UNL     1      33.767 -14.510 -22.468  0.00  0.00    -0.474 OA
ATOM      2  O   UNL     1      33.859 -16.137 -26.233  0.00  0.00    -0.291 OA
ATOM      3  C   UNL     1      33.806 -13.667 -23.631  0.00  0.00    +0.196 C 
ATOM      4  C   UNL     1      33.125 -14.343 -24.820  0.00  0.00    +0.117 C 
ATOM      5  C   UNL     1      34.405 -16.343 -23.945  0.00  0.00    +0.069 C 
ATOM      6  C   UNL     1      33.823 -15.647 -25.111  0.00  0.00    +0.180 C 
ATOM      7  C   UNL     1      34.324 -15.745 -22.685  0.00  0.00    +0.145 C 
ATOM      8  C   UNL     1      34.990 -17.603 -24.092  0.00  0.00    +0.009 C 
ATOM      9  C   UNL     1      34.799 -16.424 -21.562  0.00  0.00    +0.074 C 
ATOM     10  C   UNL     1      35.382 -17.683 -21.706  0.00  0.00    +0.137 C 
ATOM     11  C   UNL     1      35.482 -18.269 -22.969  0.00  0.00    +0.037 C 
ENDROOT
BRANCH   3  12
ATOM     12  C   UNL     1      33.135 -12.354 -23.292  0.00  0.00    +0.018 C 
ATOM     13  C   UNL     1      33.568 -11.174 -23.897  0.00  0.00    -0.001 C 
ATOM     14  C   UNL     1      32.085 -12.323 -22.376  0.00  0.00    -0.001 C 
ATOM     15  C   UNL     1      32.950  -9.963 -23.585  0.00  0.00    -0.000 C 
ATOM     16  C   UNL     1      31.467 -11.112 -22.064  0.00  0.00    -0.000 C 
ATOM     17  C   UNL     1      31.900  -9.932 -22.669  0.00  0.00    -0.000 C 
ENDBRANCH   3  12
BRANCH  10  18
ATOM     18  O   UNL     1      35.855 -18.342 -20.613  0.00  0.00    -0.505 OA
ATOM     19  H   UNL     1      35.261 -18.780 -20.037  0.00  0.00    +0.292 HD
ENDBRANCH  10  18
TORSDOF 2
ENDMDL
MODEL 4
REMARK VINA RESULT:      -9.7      2.807      4.819
REMARK  Name = 688857
REMARK  2 active torsions:
REMARK  status: ('A' for Active; 'I' for Inactive)
REMARK    1  A    between atoms: C_3  and  C_12
REMARK    2  A    between atoms: C_10  and  O_18
REMARK                            x       y       z     vdW  Elec       q    Type
REMARK                         _______ _______ _______ _____ _____    ______ ____
ROOT
ATOM      1  O   UNL     1      33.751 -14.489 -22.445  0.00  0.00    -0.474 OA
ATOM      2  O   UNL     1      33.861 -16.124 -26.206  0.00  0.00    -0.291 OA
ATOM      3  C   UNL     1      33.795 -13.649 -23.610  0.00  0.00    +0.196 C 
ATOM      4  C   UNL     1      33.120 -14.327 -24.801  0.00  0.00    +0.117 C 
ATOM      5  C   UNL     1      34.396 -16.325 -23.916  0.00  0.00    +0.069 C 
ATOM      6  C   UNL     1      33.819 -15.631 -25.086  0.00  0.00    +0.180 C 
ATOM      7  C   UNL     1      34.309 -15.724 -22.657  0.00  0.00    +0.145 C 
ATOM      8  C   UNL     1      34.981 -17.586 -24.057  0.00  0.00    +0.009 C 
ATOM      9  C   UNL     1      34.779 -16.401 -21.530  0.00  0.00    +0.074 C 
ATOM     10  C   UNL     1      35.363 -17.661 -21.669  0.00  0.00    +0.137 C 
ATOM     11  C   UNL     1      35.468 -18.249 -22.931  0.00  0.00    +0.037 C 
ENDROOT
BRANCH   3  12
ATOM     12  C   UNL     1      33.123 -12.334 -23.277  0.00  0.00    +0.018 C 
ATOM     13  C   UNL     1      32.071 -12.302 -22.361  0.00  0.00    -0.001 C 
ATOM     14  C   UNL     1      33.554 -11.156 -23.885  0.00  0.00    -0.001 C 
ATOM     15  C   UNL     1      31.451 -11.091 -22.053  0.00  0.00    -0.000 C 
ATOM     16  C   UNL     1      32.934  -9.946 -23.577  0.00  0.00    -0.000 C 
ATOM     17  C   UNL     1      31.883  -9.913 -22.662  0.00  0.00    -0.000 C 
ENDBRANCH   3  12
BRANCH  10  18
ATOM     18  O   UNL     1      35.831 -18.317 -20.573  0.00  0.00    -0.505 OA
ATOM     19  H   UNL     1      36.439 -19.023 -20.674  0.00  0.00    +0.292 HD
ENDBRANCH  10  18
TORSDOF 2
ENDMDL
MODEL 5
REMARK VINA RESULT:      -9.7      2.033      6.317
REMARK  Name = 688857
REMARK  2 active torsions:
REMARK  status: ('A' for Active; 'I' for Inactive)
REMARK    1  A    between atoms: C_3  and  C_12
REMARK    2  A    between atoms: C_10  and  O_18
REMARK                            x       y       z     vdW  Elec       q    Type
REMARK                         _______ _______ _______ _____ _____    ______ ____
ROOT
ATOM      1  O   UNL     1      34.121 -16.695 -21.012  0.00  0.00    -0.474 OA
ATOM      2  O   UNL     1      34.310 -16.200 -25.081  0.00  0.00    -0.291 OA
ATOM      3  C   UNL     1      34.145 -17.833 -21.889  0.00  0.00    +0.196 C 
ATOM      4  C   UNL     1      34.916 -17.520 -23.171  0.00  0.00    +0.117 C 
ATOM      5  C   UNL     1      33.616 -15.357 -22.988  0.00  0.00    +0.069 C 
ATOM      6  C   UNL     1      34.263 -16.353 -23.866  0.00  0.00    +0.180 C 
ATOM      7  C   UNL     1      33.601 -15.574 -21.607  0.00  0.00    +0.145 C 
ATOM      8  C   UNL     1      33.065 -14.191 -23.524  0.00  0.00    +0.009 C 
ATOM      9  C   UNL     1      33.064 -14.605 -20.758  0.00  0.00    +0.074 C 
ATOM     10  C   UNL     1      32.514 -13.440 -21.292  0.00  0.00    +0.137 C 
ATOM     11  C   UNL     1      32.510 -13.235 -22.673  0.00  0.00    +0.037 C 
ENDROOT
BRANCH   3  12
ATOM     12  C   UNL     1      34.769 -18.995 -21.147  0.00  0.00    +0.018 C 
ATOM     13  C   UNL     1      36.152 -19.053 -20.979  0.00  0.00    -0.001 C 
ATOM     14  C   UNL     1      33.961 -20.008 -20.632  0.00  0.00    -0.001 C 
ATOM     15  C   UNL     1      36.727 -20.124 -20.296  0.00  0.00    -0.000 C 
ATOM     16  C   UNL     1      34.536 -21.079 -19.948  0.00  0.00    -0.000 C 
ATOM     17  C   UNL     1      35.919 -21.137 -19.780  0.00  0.00    -0.000 C 
ENDBRANCH   3  12
BRANCH  10  18
ATOM     18  O   UNL     1      31.981 -12.499 -20.465  0.00  0.00    -0.505 OA
ATOM     19  H   UNL     1      31.051 -12.433 -20.370  0.00  0.00    +0.292 HD
ENDBRANCH  10  18
TORSDOF 2
ENDMDL
MODEL 6
REMARK VINA RESULT:      -9.5      2.290      6.585
REMARK  Name = 688857
REMARK  2 active torsions:
REMARK  status: ('A' for Active; 'I' for Inactive)
REMARK    1  A    between atoms: C_3  and  C_12
REMARK    2  A    between atoms: C_10  and  O_18
REMARK                            x       y       z     vdW  Elec       q    Type
REMARK                         _______ _______ _______ _____ _____    ______ ____
ROOT
ATOM      1  O   UNL     1      34.237 -17.202 -23.160  0.00  0.00    -0.474 OA
ATOM      2  O   UNL     1      33.060 -13.971 -20.921  0.00  0.00    -0.291 OA
ATOM      3  C   UNL     1      34.721 -17.022 -21.819  0.00  0.00    +0.196 C 
ATOM      4  C   UNL     1      33.695 -16.284 -20.961  0.00  0.00    +0.117 C 
ATOM      5  C   UNL     1      33.499 -14.879 -23.056  0.00  0.00    +0.069 C 
ATOM      6  C   UNL     1      33.408 -14.942 -21.582  0.00  0.00    +0.180 C 
ATOM      7  C   UNL     1      33.888 -16.020 -23.763  0.00  0.00    +0.145 C 
ATOM      8  C   UNL     1      33.160 -13.708 -23.738  0.00  0.00    +0.009 C 
ATOM      9  C   UNL     1      33.904 -16.000 -25.159  0.00  0.00    +0.074 C 
ATOM     10  C   UNL     1      33.564 -14.832 -25.841  0.00  0.00    +0.137 C 
ATOM     11  C   UNL     1      33.198 -13.687 -25.132  0.00  0.00    +0.037 C 
ENDROOT
BRANCH   3  12
ATOM     12  C   UNL     1      35.038 -18.384 -21.240  0.00  0.00    +0.018 C 
ATOM     13  C   UNL     1      34.004 -19.263 -20.917  0.00  0.00    -0.001 C 
ATOM     14  C   UNL     1      36.364 -18.761 -21.028  0.00  0.00    -0.001 C 
ATOM     15  C   UNL     1      34.296 -20.518 -20.384  0.00  0.00    -0.000 C 
ATOM     16  C   UNL     1      36.656 -20.016 -20.495  0.00  0.00    -0.000 C 
ATOM     17  C   UNL     1      35.621 -20.894 -20.172  0.00  0.00    -0.000 C 
ENDBRANCH   3  12
BRANCH  10  18
ATOM     18  O   UNL     1      33.590 -14.808 -27.202  0.00  0.00    -0.505 OA
ATOM     19  H   UNL     1      32.945 -15.281 -27.691  0.00  0.00    +0.292 HD
ENDBRANCH  10  18
TORSDOF 2
ENDMDL
MODEL 7
REMARK VINA RESULT:      -9.1      3.632      6.390
REMARK  Name = 688857
REMARK  2 active torsions:
REMARK  status: ('A' for Active; 'I' for Inactive)
REMARK    1  A    between atoms: C_3  and  C_12
REMARK    2  A    between atoms: C_10  and  O_18
REMARK                            x       y       z     vdW  Elec       q    Type
REMARK                         _______ _______ _______ _____ _____    ______ ____
ROOT
ATOM      1  O   UNL     1      35.497 -22.062 -17.513  0.00  0.00    -0.474 OA
ATOM      2  O   UNL     1      32.217 -24.074 -16.087  0.00  0.00    -0.291 OA
ATOM      3  C   UNL     1      34.404 -22.396 -18.384  0.00  0.00    +0.196 C 
ATOM      4  C   UNL     1      33.084 -22.441 -17.616  0.00  0.00    +0.117 C 
ATOM      5  C   UNL     1      34.533 -23.646 -15.927  0.00  0.00    +0.069 C 
ATOM      6  C   UNL     1      33.190 -23.465 -16.516  0.00  0.00    +0.180 C 
ATOM      7  C   UNL     1      35.607 -22.916 -16.445  0.00  0.00    +0.145 C 
ATOM      8  C   UNL     1      34.721 -24.501 -14.838  0.00  0.00    +0.009 C 
ATOM      9  C   UNL     1      36.866 -23.017 -15.850  0.00  0.00    +0.074 C 
ATOM     10  C   UNL     1      37.055 -23.869 -14.762  0.00  0.00    +0.137 C 
ATOM     11  C   UNL     1      35.986 -24.613 -14.260  0.00  0.00    +0.037 C 
ENDROOT
BRANCH   3  12
ATOM     12  C   UNL     1      34.352 -21.373 -19.499  0.00  0.00    +0.018 C 
ATOM     13  C   UNL     1      33.124 -20.862 -19.919  0.00  0.00    -0.001 C 
ATOM     14  C   UNL     1      35.531 -20.941 -20.105  0.00  0.00    -0.001 C 
ATOM     15  C   UNL     1      33.076 -19.919 -20.945  0.00  0.00    -0.000 C 
ATOM     16  C   UNL     1      35.483 -19.998 -21.131  0.00  0.00    -0.000 C 
ATOM     17  C   UNL     1      34.255 -19.488 -21.552  0.00  0.00    -0.000 C 
ENDBRANCH   3  12
BRANCH  10  18
ATOM     18  O   UNL     1      38.284 -23.975 -14.188  0.00  0.00    -0.505 OA
ATOM     19  H   UNL     1      38.928 -23.310 -14.333  0.00  0.00    +0.292 HD
ENDBRANCH  10  18
TORSDOF 2
ENDMDL
MODEL 8
REMARK VINA RESULT:      -9.1      7.568      9.965
REMARK  Name = 688857
REMARK  2 active torsions:
REMARK  status: ('A' for Active; 'I' for Inactive)
REMARK    1  A    between atoms: C_3  and  C_12
REMARK    2  A    between atoms: C_10  and  O_18
REMARK                            x       y       z     vdW  Elec       q    Type
REMARK                         _______ _______ _______ _____ _____    ______ ____
ROOT
ATOM      1  O   UNL     1      35.757 -24.216 -15.087  0.00  0.00    -0.474 OA
ATOM      2  O   UNL     1      35.822 -25.015 -11.063  0.00  0.00    -0.291 OA
ATOM      3  C   UNL     1      34.550 -24.560 -14.387  0.00  0.00    +0.196 C 
ATOM      4  C   UNL     1      34.615 -24.111 -12.928  0.00  0.00    +0.117 C 
ATOM      5  C   UNL     1      36.960 -25.039 -13.131  0.00  0.00    +0.069 C 
ATOM      6  C   UNL     1      35.796 -24.769 -12.262  0.00  0.00    +0.180 C 
ATOM      7  C   UNL     1      36.882 -24.726 -14.491  0.00  0.00    +0.145 C 
ATOM      8  C   UNL     1      38.140 -25.558 -12.594  0.00  0.00    +0.009 C 
ATOM      9  C   UNL     1      37.999 -24.902 -15.309  0.00  0.00    +0.074 C 
ATOM     10  C   UNL     1      39.179 -25.420 -14.774  0.00  0.00    +0.137 C 
ATOM     11  C   UNL     1      39.248 -25.752 -13.420  0.00  0.00    +0.037 C 
ENDROOT
BRANCH   3  12
ATOM     12  C   UNL     1      33.382 -23.918 -15.104  0.00  0.00    +0.018 C 
ATOM     13  C   UNL     1      33.502 -23.556 -16.446  0.00  0.00    -0.001 C 
ATOM     14  C   UNL     1      32.186 -23.689 -14.424  0.00  0.00    -0.001 C 
ATOM     15  C   UNL     1      32.426 -22.965 -17.107  0.00  0.00    -0.000 C 
ATOM     16  C   UNL     1      31.110 -23.098 -15.086  0.00  0.00    -0.000 C 
ATOM     17  C   UNL     1      31.230 -22.736 -16.427  0.00  0.00    -0.000 C 
ENDBRANCH   3  12
BRANCH  10  18
ATOM     18  O   UNL     1      40.265 -25.602 -15.573  0.00  0.00    -0.505 OA
ATOM     19  H   UNL     1      40.155 -25.700 -16.498  0.00  0.00    +0.292 HD
ENDBRANCH  10  18
TORSDOF 2
ENDMDL
MODEL 9
REMARK VINA RESULT:      -9.1      5.531      8.570
REMARK  Name = 688857
REMARK  2 active torsions:
REMARK  status: ('A' for Active; 'I' for Inactive)
REMARK    1  A    between atoms: C_3  and  C_12
REMARK    2  A    between atoms: C_10  and  O_18
REMARK                            x       y       z     vdW  Elec       q    Type
REMARK                         _______ _______ _______ _____ _____    ______ ____
ROOT
ATOM      1  O   UNL     1      36.605 -23.654 -15.939  0.00  0.00    -0.474 OA
ATOM      2  O   UNL     1      33.923 -24.017 -12.856  0.00  0.00    -0.291 OA
ATOM      3  C   UNL     1      35.191 -23.615 -16.188  0.00  0.00    +0.196 C 
ATOM      4  C   UNL     1      34.438 -23.044 -14.987  0.00  0.00    +0.117 C 
ATOM      5  C   UNL     1      36.052 -24.538 -13.734  0.00  0.00    +0.069 C 
ATOM      6  C   UNL     1      34.720 -23.900 -13.779  0.00  0.00    +0.180 C 
ATOM      7  C   UNL     1      36.928 -24.360 -14.808  0.00  0.00    +0.145 C 
ATOM      8  C   UNL     1      36.449 -25.273 -12.614  0.00  0.00    +0.009 C 
ATOM      9  C   UNL     1      38.218 -24.890 -14.747  0.00  0.00    +0.074 C 
ATOM     10  C   UNL     1      38.616 -25.624 -13.629  0.00  0.00    +0.137 C 
ATOM     11  C   UNL     1      37.731 -25.818 -12.567  0.00  0.00    +0.037 C 
ENDROOT
BRANCH   3  12
ATOM     12  C   UNL     1      34.947 -22.784 -17.430  0.00  0.00    +0.018 C 
ATOM     13  C   UNL     1      33.674 -22.739 -17.999  0.00  0.00    -0.001 C 
ATOM     14  C   UNL     1      35.994 -22.064 -18.004  0.00  0.00    -0.001 C 
ATOM     15  C   UNL     1      33.449 -21.973 -19.143  0.00  0.00    -0.000 C 
ATOM     16  C   UNL     1      35.768 -21.298 -19.148  0.00  0.00    -0.000 C 
ATOM     17  C   UNL     1      34.496 -21.253 -19.717  0.00  0.00    -0.000 C 
ENDBRANCH   3  12
BRANCH  10  18
ATOM     18  O   UNL     1      39.870 -26.151 -13.573  0.00  0.00    -0.505 OA
ATOM     19  H   UNL     1      40.510 -25.777 -13.000  0.00  0.00    +0.292 HD
ENDBRANCH  10  18
TORSDOF 2
ENDMDL
