MODEL 1
REMARK VINA RESULT:     -11.8      0.000      0.000
REMARK  Name = 5496659
REMARK  9 active torsions:
REMARK  status: ('A' for Active; 'I' for Inactive)
REMARK    1  A    between atoms: C_1  and  N_4
REMARK    2  A    between atoms: C_1  and  C_20
REMARK    3  A    between atoms: C_5  and  C_7
REMARK    4  A    between atoms: C_10  and  C_15
REMARK    5  A    between atoms: C_20  and  C_22
REMARK    6  A    between atoms: C_20  and  C_25
REMARK    7  A    between atoms: C_22  and  O_23
REMARK    8  A    between atoms: C_25  and  C_26
REMARK    9  A    between atoms: C_29  and  C_34
REMARK                            x       y       z     vdW  Elec       q    Type
REMARK                         _______ _______ _______ _____ _____    ______ ____
ROOT
ATOM      1  C   UNL     1      33.423 -23.860 -16.330  0.00  0.00    +0.083 C 
ATOM      2  C   UNL     1      32.042 -23.793 -15.682  0.00  0.00    +0.022 C 
ENDROOT
BRANCH   1   4
ATOM      3  O   UNL     1      33.822 -24.046 -19.167  0.00  0.00    -0.270 OA
ATOM      4  N   UNL     1      33.595 -22.761 -17.251  0.00  0.00    -0.302 N 
ATOM      5  C   UNL     1      33.782 -22.952 -18.612  0.00  0.00    +0.246 C 
ATOM      6  H   UNL     1      33.578 -21.841 -16.900  0.00  0.00    +0.150 HD
BRANCH   5   7
ATOM      7  C   UNL     1      33.969 -21.720 -19.420  0.00  0.00    +0.053 C 
ATOM      8  C   UNL     1      32.865 -20.946 -19.777  0.00  0.00    +0.005 C 
ATOM      9  C   UNL     1      35.247 -21.337 -19.823  0.00  0.00    +0.005 C 
ATOM     10  C   UNL     1      34.319 -19.406 -20.939  0.00  0.00    +0.000 C 
ATOM     11  C   UNL     1      33.039 -19.789 -20.536  0.00  0.00    +0.000 C 
ATOM     12  C   UNL     1      35.423 -20.181 -20.583  0.00  0.00    +0.000 C 
BRANCH  10  15
ATOM     13  O   UNL     1      35.012 -14.844 -23.947  0.00  0.00    -0.163 OA
ATOM     14  N   UNL     1      34.853 -15.899 -23.252  0.00  0.00    -0.127 N 
ATOM     15  C   UNL     1      34.502 -18.208 -21.729  0.00  0.00    +0.003 C 
ATOM     16  C   UNL     1      34.768 -18.306 -23.091  0.00  0.00    +0.022 C 
ATOM     17  C   UNL     1      34.411 -16.958 -21.128  0.00  0.00    +0.022 C 
ATOM     18  C   UNL     1      34.941 -17.147 -23.839  0.00  0.00    +0.121 C 
ATOM     19  C   UNL     1      34.589 -15.813 -21.899  0.00  0.00    +0.121 C 
ENDBRANCH  10  15
ENDBRANCH   5   7
ENDBRANCH   1   4
BRANCH   1  20
ATOM     20  C   UNL     1      34.559 -23.941 -15.284  0.00  0.00    +0.121 C 
BRANCH  20  22
ATOM     21  O   UNL     1      35.739 -21.872 -14.765  0.00  0.00    -0.250 OA
ATOM     22  C   UNL     1      35.592 -22.840 -15.501  0.00  0.00    +0.319 C 
BRANCH  22  23
ATOM     23  O   UNL     1      36.314 -23.101 -16.630  0.00  0.00    -0.444 OA
ATOM     24  C   UNL     1      37.272 -22.102 -16.993  0.00  0.00    +0.256 C 
ENDBRANCH  22  23
ENDBRANCH  20  22
BRANCH  20  25
ATOM     25  C   UNL     1      35.253 -25.320 -15.289  0.00  0.00    +0.039 C 
BRANCH  25  26
ATOM     26  C   UNL     1      36.474 -25.363 -14.399  0.00  0.00    -0.021 C 
ATOM     27  C   UNL     1      37.715 -25.710 -14.934  0.00  0.00    -0.002 C 
ATOM     28  C   UNL     1      36.359 -25.060 -13.043  0.00  0.00    -0.004 C 
ATOM     29  C   UNL     1      38.840 -25.753 -14.112  0.00  0.00    +0.030 C 
ATOM     30  C   UNL     1      37.485 -25.102 -12.221  0.00  0.00    -0.000 C 
ATOM     31  C   UNL     1      38.725 -25.449 -12.755  0.00  0.00    +0.003 C 
BRANCH  29  34
ATOM     32  N   UNL     1      41.099 -26.764 -13.899  0.00  0.00    -0.343 N 
ATOM     33  N   UNL     1      40.413 -25.828 -15.927  0.00  0.00    -0.285 NA
ATOM     34  C   UNL     1      40.134 -26.116 -14.669  0.00  0.00    +0.117 C 
ATOM     35  H   UNL     1      41.967 -27.001 -14.296  0.00  0.00    +0.144 HD
ATOM     36  H   UNL     1      40.910 -26.985 -12.958  0.00  0.00    +0.144 HD
ATOM     37  H   UNL     1      41.289 -26.074 -16.306  0.00  0.00    +0.188 HD
ENDBRANCH  29  34
ENDBRANCH  25  26
ENDBRANCH  20  25
ENDBRANCH   1  20
TORSDOF 9
ENDMDL
MODEL 2
REMARK VINA RESULT:     -11.4      5.038      9.676
REMARK  Name = 5496659
REMARK  9 active torsions:
REMARK  status: ('A' for Active; 'I' for Inactive)
REMARK    1  A    between atoms: C_1  and  N_4
REMARK    2  A    between atoms: C_1  and  C_20
REMARK    3  A    between atoms: C_5  and  C_7
REMARK    4  A    between atoms: C_10  and  C_15
REMARK    5  A    between atoms: C_20  and  C_22
REMARK    6  A    between atoms: C_20  and  C_25
REMARK    7  A    between atoms: C_22  and  O_23
REMARK    8  A    between atoms: C_25  and  C_26
REMARK    9  A    between atoms: C_29  and  C_34
REMARK                            x       y       z     vdW  Elec       q    Type
REMARK                         _______ _______ _______ _____ _____    ______ ____
ROOT
ATOM      1  C   UNL     1      35.100 -16.094 -23.351  0.00  0.00    +0.083 C 
ATOM      2  C   UNL     1      34.864 -16.577 -24.782  0.00  0.00    +0.022 C 
ENDROOT
BRANCH   1   4
ATOM      3  O   UNL     1      32.996 -14.827 -24.837  0.00  0.00    -0.270 OA
ATOM      4  N   UNL     1      34.636 -14.735 -23.201  0.00  0.00    -0.302 N 
ATOM      5  C   UNL     1      33.608 -14.210 -23.969  0.00  0.00    +0.246 C 
ATOM      6  H   UNL     1      35.066 -14.159 -22.528  0.00  0.00    +0.150 HD
BRANCH   5   7
ATOM      7  C   UNL     1      33.266 -12.789 -23.710  0.00  0.00    +0.053 C 
ATOM      8  C   UNL     1      32.350 -12.462 -22.711  0.00  0.00    +0.005 C 
ATOM      9  C   UNL     1      33.860 -11.779 -24.468  0.00  0.00    +0.005 C 
ATOM     10  C   UNL     1      32.623 -10.117 -23.225  0.00  0.00    +0.000 C 
ATOM     11  C   UNL     1      32.028 -11.127 -22.468  0.00  0.00    +0.000 C 
ATOM     12  C   UNL     1      33.539 -10.444 -24.226  0.00  0.00    +0.000 C 
BRANCH  10  15
ATOM     13  O   UNL     1      31.354  -4.841 -22.279  0.00  0.00    -0.163 OA
ATOM     14  N   UNL     1      31.647  -6.061 -22.497  0.00  0.00    -0.127 N 
ATOM     15  C   UNL     1      32.289  -8.732 -22.976  0.00  0.00    +0.003 C 
ATOM     16  C   UNL     1      32.724  -8.110 -21.811  0.00  0.00    +0.022 C 
ATOM     17  C   UNL     1      31.533  -8.021 -23.902  0.00  0.00    +0.022 C 
ATOM     18  C   UNL     1      32.397  -6.778 -21.584  0.00  0.00    +0.121 C 
ATOM     19  C   UNL     1      31.220  -6.689 -23.651  0.00  0.00    +0.121 C 
ENDBRANCH  10  15
ENDBRANCH   5   7
ENDBRANCH   1   4
BRANCH   1  20
ATOM     20  C   UNL     1      34.489 -17.050 -22.301  0.00  0.00    +0.121 C 
BRANCH  20  22
ATOM     21  O   UNL     1      35.066 -16.056 -20.151  0.00  0.00    -0.250 OA
ATOM     22  C   UNL     1      34.212 -16.326 -20.987  0.00  0.00    +0.319 C 
BRANCH  22  23
ATOM     23  O   UNL     1      32.882 -16.035 -20.893  0.00  0.00    -0.444 OA
ATOM     24  C   UNL     1      32.561 -14.861 -20.140  0.00  0.00    +0.256 C 
ENDBRANCH  22  23
ENDBRANCH  20  22
BRANCH  20  25
ATOM     25  C   UNL     1      35.386 -18.279 -22.045  0.00  0.00    +0.039 C 
BRANCH  25  26
ATOM     26  C   UNL     1      34.703 -19.339 -21.212  0.00  0.00    -0.021 C 
ATOM     27  C   UNL     1      35.447 -20.117 -20.325  0.00  0.00    -0.002 C 
ATOM     28  C   UNL     1      33.328 -19.543 -21.333  0.00  0.00    -0.004 C 
ATOM     29  C   UNL     1      34.817 -21.097 -19.559  0.00  0.00    +0.030 C 
ATOM     30  C   UNL     1      32.698 -20.522 -20.567  0.00  0.00    -0.000 C 
ATOM     31  C   UNL     1      33.442 -21.300 -19.680  0.00  0.00    +0.003 C 
BRANCH  29  34
ATOM     32  N   UNL     1      36.971 -21.740 -18.504  0.00  0.00    -0.343 N 
ATOM     33  N   UNL     1      34.992 -22.830 -17.904  0.00  0.00    -0.285 NA
ATOM     34  C   UNL     1      35.593 -21.909 -18.635  0.00  0.00    +0.117 C 
ATOM     35  H   UNL     1      37.477 -22.301 -17.873  0.00  0.00    +0.144 HD
ATOM     36  H   UNL     1      37.437 -21.061 -19.042  0.00  0.00    +0.144 HD
ATOM     37  H   UNL     1      35.517 -23.381 -17.277  0.00  0.00    +0.188 HD
ENDBRANCH  29  34
ENDBRANCH  25  26
ENDBRANCH  20  25
ENDBRANCH   1  20
TORSDOF 9
ENDMDL
MODEL 3
REMARK VINA RESULT:     -11.3      6.424     14.831
REMARK  Name = 5496659
REMARK  9 active torsions:
REMARK  status: ('A' for Active; 'I' for Inactive)
REMARK    1  A    between atoms: C_1  and  N_4
REMARK    2  A    between atoms: C_1  and  C_20
REMARK    3  A    between atoms: C_5  and  C_7
REMARK    4  A    between atoms: C_10  and  C_15
REMARK    5  A    between atoms: C_20  and  C_22
REMARK    6  A    between atoms: C_20  and  C_25
REMARK    7  A    between atoms: C_22  and  O_23
REMARK    8  A    between atoms: C_25  and  C_26
REMARK    9  A    between atoms: C_29  and  C_34
REMARK                            x       y       z     vdW  Elec       q    Type
REMARK                         _______ _______ _______ _____ _____    ______ ____
ROOT
ATOM      1  C   UNL     1      33.441 -11.262 -23.915  0.00  0.00    +0.083 C 
ATOM      2  C   UNL     1      34.715 -10.607 -24.446  0.00  0.00    +0.022 C 
ENDROOT
BRANCH   1   4
ATOM      3  O   UNL     1      33.289 -13.790 -25.267  0.00  0.00    -0.270 OA
ATOM      4  N   UNL     1      33.743 -12.558 -23.356  0.00  0.00    -0.302 N 
ATOM      5  C   UNL     1      33.639 -13.729 -24.091  0.00  0.00    +0.246 C 
ATOM      6  H   UNL     1      34.033 -12.613 -22.416  0.00  0.00    +0.150 HD
BRANCH   5   7
ATOM      7  C   UNL     1      33.961 -14.983 -23.364  0.00  0.00    +0.053 C 
ATOM      8  C   UNL     1      34.648 -16.009 -24.012  0.00  0.00    +0.005 C 
ATOM      9  C   UNL     1      33.575 -15.135 -22.032  0.00  0.00    +0.005 C 
ATOM     10  C   UNL     1      34.564 -17.339 -21.996  0.00  0.00    +0.000 C 
ATOM     11  C   UNL     1      34.950 -17.187 -23.328  0.00  0.00    +0.000 C 
ATOM     12  C   UNL     1      33.876 -16.312 -21.348  0.00  0.00    +0.000 C 
BRANCH  10  15
ATOM     13  O   UNL     1      35.746 -21.989 -19.290  0.00  0.00    -0.163 OA
ATOM     14  N   UNL     1      35.473 -20.915 -19.917  0.00  0.00    -0.127 N 
ATOM     15  C   UNL     1      34.874 -18.561 -21.286  0.00  0.00    +0.003 C 
ATOM     16  C   UNL     1      36.198 -18.891 -21.014  0.00  0.00    +0.022 C 
ATOM     17  C   UNL     1      33.850 -19.406 -20.874  0.00  0.00    +0.022 C 
ATOM     18  C   UNL     1      36.483 -20.067 -20.331  0.00  0.00    +0.121 C 
ATOM     19  C   UNL     1      34.162 -20.577 -20.192  0.00  0.00    +0.121 C 
ENDBRANCH  10  15
ENDBRANCH   5   7
ENDBRANCH   1   4
BRANCH   1  20
ATOM     20  C   UNL     1      32.681 -10.350 -22.925  0.00  0.00    +0.121 C 
BRANCH  20  22
ATOM     21  O   UNL     1      30.446 -11.180 -22.418  0.00  0.00    -0.250 OA
ATOM     22  C   UNL     1      31.637 -11.135 -22.137  0.00  0.00    +0.319 C 
BRANCH  22  23
ATOM     23  O   UNL     1      32.234 -11.767 -21.085  0.00  0.00    -0.444 OA
ATOM     24  C   UNL     1      31.635 -11.533 -19.806  0.00  0.00    +0.256 C 
ENDBRANCH  22  23
ENDBRANCH  20  22
BRANCH  20  25
ATOM     25  C   UNL     1      32.013  -9.154 -23.635  0.00  0.00    +0.039 C 
BRANCH  25  26
ATOM     26  C   UNL     1      31.931  -7.924 -22.760  0.00  0.00    -0.021 C 
ATOM     27  C   UNL     1      31.420  -6.733 -23.276  0.00  0.00    -0.002 C 
ATOM     28  C   UNL     1      32.370  -7.980 -21.437  0.00  0.00    -0.004 C 
ATOM     29  C   UNL     1      31.348  -5.599 -22.468  0.00  0.00    +0.030 C 
ATOM     30  C   UNL     1      32.296  -6.845 -20.630  0.00  0.00    -0.000 C 
ATOM     31  C   UNL     1      31.786  -5.654 -21.145  0.00  0.00    +0.003 C 
BRANCH  29  34
ATOM     32  N   UNL     1      30.740  -4.136 -24.382  0.00  0.00    -0.343 N 
ATOM     33  N   UNL     1      30.400  -3.409 -22.186  0.00  0.00    -0.285 NA
ATOM     34  C   UNL     1      30.816  -4.356 -23.007  0.00  0.00    +0.117 C 
ATOM     35  H   UNL     1      30.377  -3.288 -24.724  0.00  0.00    +0.144 HD
ATOM     36  H   UNL     1      31.048  -4.829 -25.009  0.00  0.00    +0.144 HD
ATOM     37  H   UNL     1      30.040  -2.566 -22.550  0.00  0.00    +0.188 HD
ENDBRANCH  29  34
ENDBRANCH  25  26
ENDBRANCH  20  25
ENDBRANCH   1  20
TORSDOF 9
ENDMDL
MODEL 4
REMARK VINA RESULT:     -11.3      1.596      2.442
REMARK  Name = 5496659
REMARK  9 active torsions:
REMARK  status: ('A' for Active; 'I' for Inactive)
REMARK    1  A    between atoms: C_1  and  N_4
REMARK    2  A    between atoms: C_1  and  C_20
REMARK    3  A    between atoms: C_5  and  C_7
REMARK    4  A    between atoms: C_10  and  C_15
REMARK    5  A    between atoms: C_20  and  C_22
REMARK    6  A    between atoms: C_20  and  C_25
REMARK    7  A    between atoms: C_22  and  O_23
REMARK    8  A    between atoms: C_25  and  C_26
REMARK    9  A    between atoms: C_29  and  C_34
REMARK                            x       y       z     vdW  Elec       q    Type
REMARK                         _______ _______ _______ _____ _____    ______ ____
ROOT
ATOM      1  C   UNL     1      32.348 -23.689 -15.978  0.00  0.00    +0.083 C 
ATOM      2  C   UNL     1      31.088 -23.260 -15.229  0.00  0.00    +0.022 C 
ENDROOT
BRANCH   1   4
ATOM      3  O   UNL     1      33.740 -24.168 -18.443  0.00  0.00    -0.270 OA
ATOM      4  N   UNL     1      32.691 -22.707 -16.980  0.00  0.00    -0.302 N 
ATOM      5  C   UNL     1      33.368 -23.036 -18.144  0.00  0.00    +0.246 C 
ATOM      6  H   UNL     1      32.434 -21.767 -16.831  0.00  0.00    +0.150 HD
BRANCH   5   7
ATOM      7  C   UNL     1      33.667 -21.908 -19.062  0.00  0.00    +0.053 C 
ATOM      8  C   UNL     1      32.628 -21.135 -19.579  0.00  0.00    +0.005 C 
ATOM      9  C   UNL     1      34.988 -21.621 -19.407  0.00  0.00    +0.005 C 
ATOM     10  C   UNL     1      34.231 -19.788 -20.787  0.00  0.00    +0.000 C 
ATOM     11  C   UNL     1      32.909 -20.075 -20.442  0.00  0.00    +0.000 C 
ATOM     12  C   UNL     1      35.270 -20.562 -20.269  0.00  0.00    +0.000 C 
BRANCH  10  15
ATOM     13  O   UNL     1      35.345 -15.610 -24.199  0.00  0.00    -0.163 OA
ATOM     14  N   UNL     1      35.088 -16.576 -23.410  0.00  0.00    -0.127 N 
ATOM     15  C   UNL     1      34.524 -18.691 -21.682  0.00  0.00    +0.003 C 
ATOM     16  C   UNL     1      34.756 -18.937 -23.032  0.00  0.00    +0.022 C 
ATOM     17  C   UNL     1      34.574 -17.389 -21.196  0.00  0.00    +0.022 C 
ATOM     18  C   UNL     1      35.036 -17.874 -23.883  0.00  0.00    +0.121 C 
ATOM     19  C   UNL     1      34.856 -16.343 -22.068  0.00  0.00    +0.121 C 
ENDBRANCH  10  15
ENDBRANCH   5   7
ENDBRANCH   1   4
BRANCH   1  20
ATOM     20  C   UNL     1      33.523 -23.995 -15.021  0.00  0.00    +0.121 C 
BRANCH  20  22
ATOM     21  O   UNL     1      32.142 -25.220 -13.428  0.00  0.00    -0.250 OA
ATOM     22  C   UNL     1      33.021 -24.392 -13.636  0.00  0.00    +0.319 C 
BRANCH  22  23
ATOM     23  O   UNL     1      33.697 -23.687 -12.682  0.00  0.00    -0.444 OA
ATOM     24  C   UNL     1      34.625 -24.446 -11.899  0.00  0.00    +0.256 C 
ENDBRANCH  22  23
ENDBRANCH  20  22
BRANCH  20  25
ATOM     25  C   UNL     1      34.500 -22.806 -14.904  0.00  0.00    +0.039 C 
BRANCH  25  26
ATOM     26  C   UNL     1      35.931 -23.193 -15.198  0.00  0.00    -0.021 C 
ATOM     27  C   UNL     1      36.433 -24.410 -14.737  0.00  0.00    -0.002 C 
ATOM     28  C   UNL     1      36.750 -22.331 -15.928  0.00  0.00    -0.004 C 
ATOM     29  C   UNL     1      37.755 -24.765 -15.007  0.00  0.00    +0.030 C 
ATOM     30  C   UNL     1      38.071 -22.687 -16.198  0.00  0.00    -0.000 C 
ATOM     31  C   UNL     1      38.574 -23.903 -15.737  0.00  0.00    +0.003 C 
BRANCH  29  34
ATOM     32  N   UNL     1      37.489 -26.909 -13.781  0.00  0.00    -0.343 N 
ATOM     33  N   UNL     1      39.529 -26.370 -14.788  0.00  0.00    -0.285 NA
ATOM     34  C   UNL     1      38.279 -26.033 -14.525  0.00  0.00    +0.117 C 
ATOM     35  H   UNL     1      37.865 -27.761 -13.465  0.00  0.00    +0.144 HD
ATOM     36  H   UNL     1      36.557 -26.673 -13.573  0.00  0.00    +0.144 HD
ATOM     37  H   UNL     1      39.886 -27.229 -14.462  0.00  0.00    +0.188 HD
ENDBRANCH  29  34
ENDBRANCH  25  26
ENDBRANCH  20  25
ENDBRANCH   1  20
TORSDOF 9
ENDMDL
MODEL 5
REMARK VINA RESULT:     -11.2      5.383      9.826
REMARK  Name = 5496659
REMARK  9 active torsions:
REMARK  status: ('A' for Active; 'I' for Inactive)
REMARK    1  A    between atoms: C_1  and  N_4
REMARK    2  A    between atoms: C_1  and  C_20
REMARK    3  A    between atoms: C_5  and  C_7
REMARK    4  A    between atoms: C_10  and  C_15
REMARK    5  A    between atoms: C_20  and  C_22
REMARK    6  A    between atoms: C_20  and  C_25
REMARK    7  A    between atoms: C_22  and  O_23
REMARK    8  A    between atoms: C_25  and  C_26
REMARK    9  A    between atoms: C_29  and  C_34
REMARK                            x       y       z     vdW  Elec       q    Type
REMARK                         _______ _______ _______ _____ _____    ______ ____
ROOT
ATOM      1  C   UNL     1      35.047 -16.196 -23.602  0.00  0.00    +0.083 C 
ATOM      2  C   UNL     1      34.396 -16.765 -24.861  0.00  0.00    +0.022 C 
ENDROOT
BRANCH   1   4
ATOM      3  O   UNL     1      33.137 -14.739 -25.175  0.00  0.00    -0.270 OA
ATOM      4  N   UNL     1      34.538 -14.871 -23.332  0.00  0.00    -0.302 N 
ATOM      5  C   UNL     1      33.613 -14.248 -24.155  0.00  0.00    +0.246 C 
ATOM      6  H   UNL     1      34.861 -14.393 -22.534  0.00  0.00    +0.150 HD
BRANCH   5   7
ATOM      7  C   UNL     1      33.208 -12.877 -23.753  0.00  0.00    +0.053 C 
ATOM      8  C   UNL     1      33.746 -11.770 -24.410  0.00  0.00    +0.005 C 
ATOM      9  C   UNL     1      32.290 -12.695 -22.719  0.00  0.00    +0.005 C 
ATOM     10  C   UNL     1      32.448 -10.300 -22.998  0.00  0.00    +0.000 C 
ATOM     11  C   UNL     1      33.367 -10.482 -24.033  0.00  0.00    +0.000 C 
ATOM     12  C   UNL     1      31.911 -11.407 -22.341  0.00  0.00    +0.000 C 
BRANCH  10  15
ATOM     13  O   UNL     1      30.955  -5.215 -21.499  0.00  0.00    -0.163 OA
ATOM     14  N   UNL     1      31.299  -6.390 -21.845  0.00  0.00    -0.127 N 
ATOM     15  C   UNL     1      32.055  -8.965 -22.604  0.00  0.00    +0.003 C 
ATOM     16  C   UNL     1      32.420  -8.472 -21.356  0.00  0.00    +0.022 C 
ATOM     17  C   UNL     1      31.313  -8.173 -23.473  0.00  0.00    +0.022 C 
ATOM     18  C   UNL     1      32.037  -7.186 -20.990  0.00  0.00    +0.121 C 
ATOM     19  C   UNL     1      30.942  -6.890 -23.082  0.00  0.00    +0.121 C 
ENDBRANCH  10  15
ENDBRANCH   5   7
ENDBRANCH   1   4
BRANCH   1  20
ATOM     20  C   UNL     1      34.906 -17.145 -22.389  0.00  0.00    +0.121 C 
BRANCH  20  22
ATOM     21  O   UNL     1      35.172 -15.883 -20.320  0.00  0.00    -0.250 OA
ATOM     22  C   UNL     1      34.430 -16.393 -21.149  0.00  0.00    +0.319 C 
BRANCH  22  23
ATOM     23  O   UNL     1      33.065 -16.384 -21.114  0.00  0.00    -0.444 OA
ATOM     24  C   UNL     1      32.477 -15.313 -20.369  0.00  0.00    +0.256 C 
ENDBRANCH  22  23
ENDBRANCH  20  22
BRANCH  20  25
ATOM     25  C   UNL     1      36.223 -17.887 -22.079  0.00  0.00    +0.039 C 
BRANCH  25  26
ATOM     26  C   UNL     1      36.025 -19.072 -21.161  0.00  0.00    -0.021 C 
ATOM     27  C   UNL     1      34.736 -19.513 -20.861  0.00  0.00    -0.002 C 
ATOM     28  C   UNL     1      37.131 -19.721 -20.613  0.00  0.00    -0.004 C 
ATOM     29  C   UNL     1      34.554 -20.605 -20.012  0.00  0.00    +0.030 C 
ATOM     30  C   UNL     1      36.948 -20.813 -19.765  0.00  0.00    -0.000 C 
ATOM     31  C   UNL     1      35.660 -21.254 -19.464  0.00  0.00    +0.003 C 
BRANCH  29  34
ATOM     32  N   UNL     1      32.985 -22.330 -19.159  0.00  0.00    -0.343 N 
ATOM     33  N   UNL     1      32.175 -20.276 -19.926  0.00  0.00    -0.285 NA
ATOM     34  C   UNL     1      33.210 -21.064 -19.697  0.00  0.00    +0.117 C 
ATOM     35  H   UNL     1      32.067 -22.620 -18.953  0.00  0.00    +0.144 HD
ATOM     36  H   UNL     1      33.743 -22.932 -18.984  0.00  0.00    +0.144 HD
ATOM     37  H   UNL     1      31.264 -20.586 -19.713  0.00  0.00    +0.188 HD
ENDBRANCH  29  34
ENDBRANCH  25  26
ENDBRANCH  20  25
ENDBRANCH   1  20
TORSDOF 9
ENDMDL
MODEL 6
REMARK VINA RESULT:     -11.2      1.602      2.593
REMARK  Name = 5496659
REMARK  9 active torsions:
REMARK  status: ('A' for Active; 'I' for Inactive)
REMARK    1  A    between atoms: C_1  and  N_4
REMARK    2  A    between atoms: C_1  and  C_20
REMARK    3  A    between atoms: C_5  and  C_7
REMARK    4  A    between atoms: C_10  and  C_15
REMARK    5  A    between atoms: C_20  and  C_22
REMARK    6  A    between atoms: C_20  and  C_25
REMARK    7  A    between atoms: C_22  and  O_23
REMARK    8  A    between atoms: C_25  and  C_26
REMARK    9  A    between atoms: C_29  and  C_34
REMARK                            x       y       z     vdW  Elec       q    Type
REMARK                         _______ _______ _______ _____ _____    ______ ____
ROOT
ATOM      1  C   UNL     1      32.075 -23.957 -16.319  0.00  0.00    +0.083 C 
ATOM      2  C   UNL     1      30.553 -24.078 -16.257  0.00  0.00    +0.022 C 
ENDROOT
BRANCH   1   4
ATOM      3  O   UNL     1      33.831 -24.222 -18.575  0.00  0.00    -0.270 OA
ATOM      4  N   UNL     1      32.454 -22.915 -17.244  0.00  0.00    -0.302 N 
ATOM      5  C   UNL     1      33.313 -23.141 -18.309  0.00  0.00    +0.246 C 
ATOM      6  H   UNL     1      32.090 -22.009 -17.114  0.00  0.00    +0.150 HD
BRANCH   5   7
ATOM      7  C   UNL     1      33.624 -21.960 -19.153  0.00  0.00    +0.053 C 
ATOM      8  C   UNL     1      34.946 -21.677 -19.498  0.00  0.00    +0.005 C 
ATOM      9  C   UNL     1      32.595 -21.132 -19.602  0.00  0.00    +0.005 C 
ATOM     10  C   UNL     1      34.209 -19.740 -20.739  0.00  0.00    +0.000 C 
ATOM     11  C   UNL     1      35.239 -20.567 -20.290  0.00  0.00    +0.000 C 
ATOM     12  C   UNL     1      32.887 -20.023 -20.394  0.00  0.00    +0.000 C 
BRANCH  10  15
ATOM     13  O   UNL     1      35.353 -15.351 -23.865  0.00  0.00    -0.163 OA
ATOM     14  N   UNL     1      35.090 -16.366 -23.143  0.00  0.00    -0.127 N 
ATOM     15  C   UNL     1      34.510 -18.587 -21.560  0.00  0.00    +0.003 C 
ATOM     16  C   UNL     1      34.773 -18.748 -22.916  0.00  0.00    +0.022 C 
ATOM     17  C   UNL     1      34.537 -17.317 -20.994  0.00  0.00    +0.022 C 
ATOM     18  C   UNL     1      35.060 -17.633 -23.694  0.00  0.00    +0.121 C 
ATOM     19  C   UNL     1      34.827 -16.217 -21.795  0.00  0.00    +0.121 C 
ENDBRANCH  10  15
ENDBRANCH   5   7
ENDBRANCH   1   4
BRANCH   1  20
ATOM     20  C   UNL     1      32.706 -23.768 -14.920  0.00  0.00    +0.121 C 
BRANCH  20  22
ATOM     21  O   UNL     1      31.392 -21.813 -14.296  0.00  0.00    -0.250 OA
ATOM     22  C   UNL     1      31.809 -22.929 -14.016  0.00  0.00    +0.319 C 
BRANCH  22  23
ATOM     23  O   UNL     1      31.553 -23.612 -12.862  0.00  0.00    -0.444 OA
ATOM     24  C   UNL     1      30.469 -24.544 -12.926  0.00  0.00    +0.256 C 
ENDBRANCH  22  23
ENDBRANCH  20  22
BRANCH  20  25
ATOM     25  C   UNL     1      34.111 -23.135 -15.000  0.00  0.00    +0.039 C 
BRANCH  25  26
ATOM     26  C   UNL     1      35.141 -23.890 -14.192  0.00  0.00    -0.021 C 
ATOM     27  C   UNL     1      36.264 -24.427 -14.821  0.00  0.00    -0.002 C 
ATOM     28  C   UNL     1      34.966 -24.052 -12.817  0.00  0.00    -0.004 C 
ATOM     29  C   UNL     1      37.212 -25.127 -14.075  0.00  0.00    +0.030 C 
ATOM     30  C   UNL     1      35.915 -24.751 -12.072  0.00  0.00    -0.000 C 
ATOM     31  C   UNL     1      37.038 -25.289 -12.700  0.00  0.00    +0.003 C 
BRANCH  29  34
ATOM     32  N   UNL     1      39.290 -24.879 -15.413  0.00  0.00    -0.343 N 
ATOM     33  N   UNL     1      38.598 -26.991 -14.688  0.00  0.00    -0.285 NA
ATOM     34  C   UNL     1      38.383 -25.689 -14.730  0.00  0.00    +0.117 C 
ATOM     35  H   UNL     1      40.075 -25.281 -15.850  0.00  0.00    +0.144 HD
ATOM     36  H   UNL     1      39.145 -23.907 -15.458  0.00  0.00    +0.144 HD
ATOM     37  H   UNL     1      39.391 -27.373 -15.132  0.00  0.00    +0.188 HD
ENDBRANCH  29  34
ENDBRANCH  25  26
ENDBRANCH  20  25
ENDBRANCH   1  20
TORSDOF 9
ENDMDL
MODEL 7
REMARK VINA RESULT:     -10.9      1.818      2.405
REMARK  Name = 5496659
REMARK  9 active torsions:
REMARK  status: ('A' for Active; 'I' for Inactive)
REMARK    1  A    between atoms: C_1  and  N_4
REMARK    2  A    between atoms: C_1  and  C_20
REMARK    3  A    between atoms: C_5  and  C_7
REMARK    4  A    between atoms: C_10  and  C_15
REMARK    5  A    between atoms: C_20  and  C_22
REMARK    6  A    between atoms: C_20  and  C_25
REMARK    7  A    between atoms: C_22  and  O_23
REMARK    8  A    between atoms: C_25  and  C_26
REMARK    9  A    between atoms: C_29  and  C_34
REMARK                            x       y       z     vdW  Elec       q    Type
REMARK                         _______ _______ _______ _____ _____    ______ ____
ROOT
ATOM      1  C   UNL     1      33.270 -23.786 -16.707  0.00  0.00    +0.083 C 
ATOM      2  C   UNL     1      31.861 -23.835 -16.119  0.00  0.00    +0.022 C 
ENDROOT
BRANCH   1   4
ATOM      3  O   UNL     1      34.061 -23.793 -19.467  0.00  0.00    -0.270 OA
ATOM      4  N   UNL     1      33.412 -22.634 -17.567  0.00  0.00    -0.302 N 
ATOM      5  C   UNL     1      33.801 -22.739 -18.893  0.00  0.00    +0.246 C 
ATOM      6  H   UNL     1      33.225 -21.741 -17.197  0.00  0.00    +0.150 HD
BRANCH   5   7
ATOM      7  C   UNL     1      33.924 -21.459 -19.636  0.00  0.00    +0.053 C 
ATOM      8  C   UNL     1      32.782 -20.722 -19.950  0.00  0.00    +0.005 C 
ATOM      9  C   UNL     1      35.181 -20.994 -20.020  0.00  0.00    +0.005 C 
ATOM     10  C   UNL     1      34.156 -19.054 -21.032  0.00  0.00    +0.000 C 
ATOM     11  C   UNL     1      32.898 -19.520 -20.648  0.00  0.00    +0.000 C 
ATOM     12  C   UNL     1      35.298 -19.792 -20.718  0.00  0.00    +0.000 C 
BRANCH  10  15
ATOM     13  O   UNL     1      34.623 -14.311 -23.793  0.00  0.00    -0.163 OA
ATOM     14  N   UNL     1      34.514 -15.407 -23.155  0.00  0.00    -0.127 N 
ATOM     15  C   UNL     1      34.278 -17.809 -21.758  0.00  0.00    +0.003 C 
ATOM     16  C   UNL     1      33.793 -16.629 -21.202  0.00  0.00    +0.022 C 
ATOM     17  C   UNL     1      34.881 -17.789 -23.010  0.00  0.00    +0.022 C 
ATOM     18  C   UNL     1      33.917 -15.439 -21.909  0.00  0.00    +0.121 C 
ATOM     19  C   UNL     1      34.993 -16.584 -23.697  0.00  0.00    +0.121 C 
ENDBRANCH  10  15
ENDBRANCH   5   7
ENDBRANCH   1   4
BRANCH   1  20
ATOM     20  C   UNL     1      34.364 -23.851 -15.616  0.00  0.00    +0.121 C 
BRANCH  20  22
ATOM     21  O   UNL     1      35.287 -21.654 -15.102  0.00  0.00    -0.250 OA
ATOM     22  C   UNL     1      35.348 -22.693 -15.748  0.00  0.00    +0.319 C 
BRANCH  22  23
ATOM     23  O   UNL     1      36.291 -22.995 -16.688  0.00  0.00    -0.444 OA
ATOM     24  C   UNL     1      37.605 -22.492 -16.425  0.00  0.00    +0.256 C 
ENDBRANCH  22  23
ENDBRANCH  20  22
BRANCH  20  25
ATOM     25  C   UNL     1      35.126 -25.193 -15.641  0.00  0.00    +0.039 C 
BRANCH  25  26
ATOM     26  C   UNL     1      36.045 -25.365 -14.453  0.00  0.00    -0.021 C 
ATOM     27  C   UNL     1      35.727 -24.769 -13.233  0.00  0.00    -0.002 C 
ATOM     28  C   UNL     1      37.214 -26.117 -14.579  0.00  0.00    -0.004 C 
ATOM     29  C   UNL     1      36.576 -24.927 -12.138  0.00  0.00    +0.030 C 
ATOM     30  C   UNL     1      38.062 -26.274 -13.484  0.00  0.00    -0.000 C 
ATOM     31  C   UNL     1      37.745 -25.678 -12.264  0.00  0.00    +0.003 C 
BRANCH  29  34
ATOM     32  N   UNL     1      36.839 -23.107 -10.468  0.00  0.00    -0.343 N 
ATOM     33  N   UNL     1      35.369 -24.878 -10.061  0.00  0.00    -0.285 NA
ATOM     34  C   UNL     1      36.245 -24.304 -10.865  0.00  0.00    +0.117 C 
ATOM     35  H   UNL     1      36.600 -22.704  -9.602  0.00  0.00    +0.144 HD
ATOM     36  H   UNL     1      37.497 -22.666 -11.053  0.00  0.00    +0.144 HD
ATOM     37  H   UNL     1      35.144 -24.458  -9.199  0.00  0.00    +0.188 HD
ENDBRANCH  29  34
ENDBRANCH  25  26
ENDBRANCH  20  25
ENDBRANCH   1  20
TORSDOF 9
ENDMDL
MODEL 8
REMARK VINA RESULT:     -10.9      2.972     10.906
REMARK  Name = 5496659
REMARK  9 active torsions:
REMARK  status: ('A' for Active; 'I' for Inactive)
REMARK    1  A    between atoms: C_1  and  N_4
REMARK    2  A    between atoms: C_1  and  C_20
REMARK    3  A    between atoms: C_5  and  C_7
REMARK    4  A    between atoms: C_10  and  C_15
REMARK    5  A    between atoms: C_20  and  C_22
REMARK    6  A    between atoms: C_20  and  C_25
REMARK    7  A    between atoms: C_22  and  O_23
REMARK    8  A    between atoms: C_25  and  C_26
REMARK    9  A    between atoms: C_29  and  C_34
REMARK                            x       y       z     vdW  Elec       q    Type
REMARK                         _______ _______ _______ _____ _____    ______ ____
ROOT
ATOM      1  C   UNL     1      36.262 -19.796 -20.809  0.00  0.00    +0.083 C 
ATOM      2  C   UNL     1      37.657 -19.278 -21.157  0.00  0.00    +0.022 C 
ENDROOT
BRANCH   1   4
ATOM      3  O   UNL     1      35.583 -22.487 -20.077  0.00  0.00    -0.270 OA
ATOM      4  N   UNL     1      36.256 -20.352 -19.476  0.00  0.00    -0.302 N 
ATOM      5  C   UNL     1      35.911 -21.670 -19.221  0.00  0.00    +0.246 C 
ATOM      6  H   UNL     1      36.505 -19.772 -18.719  0.00  0.00    +0.150 HD
BRANCH   5   7
ATOM      7  C   UNL     1      35.929 -22.081 -17.794  0.00  0.00    +0.053 C 
ATOM      8  C   UNL     1      34.823 -22.724 -17.240  0.00  0.00    +0.005 C 
ATOM      9  C   UNL     1      37.052 -21.824 -17.009  0.00  0.00    +0.005 C 
ATOM     10  C   UNL     1      35.963 -22.853 -15.113  0.00  0.00    +0.000 C 
ATOM     11  C   UNL     1      34.839 -23.110 -15.899  0.00  0.00    +0.000 C 
ATOM     12  C   UNL     1      37.070 -22.209 -15.669  0.00  0.00    +0.000 C 
BRANCH  10  15
ATOM     13  O   UNL     1      36.034 -24.370  -9.818  0.00  0.00    -0.163 OA
ATOM     14  N   UNL     1      36.017 -24.019 -11.042  0.00  0.00    -0.127 N 
ATOM     15  C   UNL     1      35.982 -23.250 -13.723  0.00  0.00    +0.003 C 
ATOM     16  C   UNL     1      34.916 -23.969 -13.190  0.00  0.00    +0.022 C 
ATOM     17  C   UNL     1      37.064 -22.915 -12.917  0.00  0.00    +0.022 C 
ATOM     18  C   UNL     1      34.946 -24.346 -11.852  0.00  0.00    +0.121 C 
ATOM     19  C   UNL     1      37.070 -23.305 -11.581  0.00  0.00    +0.121 C 
ENDBRANCH  10  15
ENDBRANCH   5   7
ENDBRANCH   1   4
BRANCH   1  20
ATOM     20  C   UNL     1      35.170 -18.720 -21.009  0.00  0.00    +0.121 C 
BRANCH  20  22
ATOM     21  O   UNL     1      34.227 -19.491 -23.121  0.00  0.00    -0.250 OA
ATOM     22  C   UNL     1      34.067 -19.216 -21.938  0.00  0.00    +0.319 C 
BRANCH  22  23
ATOM     23  O   UNL     1      32.890 -19.301 -21.251  0.00  0.00    -0.444 OA
ATOM     24  C   UNL     1      32.788 -20.400 -20.340  0.00  0.00    +0.256 C 
ENDBRANCH  22  23
ENDBRANCH  20  22
BRANCH  20  25
ATOM     25  C   UNL     1      35.753 -17.396 -21.547  0.00  0.00    +0.039 C 
BRANCH  25  26
ATOM     26  C   UNL     1      34.730 -16.285 -21.601  0.00  0.00    -0.021 C 
ATOM     27  C   UNL     1      34.601 -15.511 -22.754  0.00  0.00    -0.002 C 
ATOM     28  C   UNL     1      33.917 -16.031 -20.496  0.00  0.00    -0.004 C 
ATOM     29  C   UNL     1      33.659 -14.484 -22.802  0.00  0.00    +0.030 C 
ATOM     30  C   UNL     1      32.974 -15.005 -20.545  0.00  0.00    -0.000 C 
ATOM     31  C   UNL     1      32.845 -14.231 -21.698  0.00  0.00    +0.003 C 
BRANCH  29  34
ATOM     32  N   UNL     1      34.066 -12.393 -24.079  0.00  0.00    -0.343 N 
ATOM     33  N   UNL     1      32.877 -14.155 -25.051  0.00  0.00    -0.285 NA
ATOM     34  C   UNL     1      33.525 -13.676 -24.004  0.00  0.00    +0.117 C 
ATOM     35  H   UNL     1      33.964 -11.863 -24.902  0.00  0.00    +0.144 HD
ATOM     36  H   UNL     1      34.550 -12.018 -23.308  0.00  0.00    +0.144 HD
ATOM     37  H   UNL     1      32.786 -13.609 -25.866  0.00  0.00    +0.188 HD
ENDBRANCH  29  34
ENDBRANCH  25  26
ENDBRANCH  20  25
ENDBRANCH   1  20
TORSDOF 9
ENDMDL
MODEL 9
REMARK VINA RESULT:     -10.8      3.373     11.996
REMARK  Name = 5496659
REMARK  9 active torsions:
REMARK  status: ('A' for Active; 'I' for Inactive)
REMARK    1  A    between atoms: C_1  and  N_4
REMARK    2  A    between atoms: C_1  and  C_20
REMARK    3  A    between atoms: C_5  and  C_7
REMARK    4  A    between atoms: C_10  and  C_15
REMARK    5  A    between atoms: C_20  and  C_22
REMARK    6  A    between atoms: C_20  and  C_25
REMARK    7  A    between atoms: C_22  and  O_23
REMARK    8  A    between atoms: C_25  and  C_26
REMARK    9  A    between atoms: C_29  and  C_34
REMARK                            x       y       z     vdW  Elec       q    Type
REMARK                         _______ _______ _______ _____ _____    ______ ____
ROOT
ATOM      1  C   UNL     1      34.266 -16.608 -23.474  0.00  0.00    +0.083 C 
ATOM      2  C   UNL     1      35.341 -16.742 -24.551  0.00  0.00    +0.022 C 
ENDROOT
BRANCH   1   4
ATOM      3  O   UNL     1      34.447 -19.466 -23.678  0.00  0.00    -0.270 OA
ATOM      4  N   UNL     1      34.521 -17.535 -22.397  0.00  0.00    -0.302 N 
ATOM      5  C   UNL     1      34.591 -18.905 -22.595  0.00  0.00    +0.246 C 
ATOM      6  H   UNL     1      34.649 -17.181 -21.487  0.00  0.00    +0.150 HD
BRANCH   5   7
ATOM      7  C   UNL     1      34.835 -19.725 -21.380  0.00  0.00    +0.053 C 
ATOM      8  C   UNL     1      33.764 -20.321 -20.714  0.00  0.00    +0.005 C 
ATOM      9  C   UNL     1      36.134 -19.897 -20.905  0.00  0.00    +0.005 C 
ATOM     10  C   UNL     1      35.293 -21.263 -19.098  0.00  0.00    +0.000 C 
ATOM     11  C   UNL     1      33.993 -21.090 -19.573  0.00  0.00    +0.000 C 
ATOM     12  C   UNL     1      36.364 -20.666 -19.765  0.00  0.00    +0.000 C 
BRANCH  10  15
ATOM     13  O   UNL     1      36.204 -24.289 -14.587  0.00  0.00    -0.163 OA
ATOM     14  N   UNL     1      35.994 -23.591 -15.630  0.00  0.00    -0.127 N 
ATOM     15  C   UNL     1      35.532 -22.059 -17.914  0.00  0.00    +0.003 C 
ATOM     16  C   UNL     1      36.771 -22.011 -17.282  0.00  0.00    +0.022 C 
ATOM     17  C   UNL     1      34.525 -22.871 -17.405  0.00  0.00    +0.022 C 
ATOM     18  C   UNL     1      36.988 -22.780 -16.144  0.00  0.00    +0.121 C 
ATOM     19  C   UNL     1      34.768 -23.630 -16.265  0.00  0.00    +0.121 C 
ENDBRANCH  10  15
ENDBRANCH   5   7
ENDBRANCH   1   4
BRANCH   1  20
ATOM     20  C   UNL     1      34.109 -15.151 -22.980  0.00  0.00    +0.121 C 
BRANCH  20  22
ATOM     21  O   UNL     1      34.917 -14.651 -20.735  0.00  0.00    -0.250 OA
ATOM     22  C   UNL     1      34.030 -15.088 -21.458  0.00  0.00    +0.319 C 
BRANCH  22  23
ATOM     23  O   UNL     1      32.832 -15.589 -21.038  0.00  0.00    -0.444 OA
ATOM     24  C   UNL     1      32.267 -14.953 -19.887  0.00  0.00    +0.256 C 
ENDBRANCH  22  23
ENDBRANCH  20  22
BRANCH  20  25
ATOM     25  C   UNL     1      32.876 -14.459 -23.599  0.00  0.00    +0.039 C 
BRANCH  25  26
ATOM     26  C   UNL     1      32.855 -12.969 -23.349  0.00  0.00    -0.021 C 
ATOM     27  C   UNL     1      33.802 -12.146 -23.958  0.00  0.00    -0.002 C 
ATOM     28  C   UNL     1      31.890 -12.417 -22.506  0.00  0.00    -0.004 C 
ATOM     29  C   UNL     1      33.783 -10.771 -23.724  0.00  0.00    +0.030 C 
ATOM     30  C   UNL     1      31.871 -11.043 -22.274  0.00  0.00    -0.000 C 
ATOM     31  C   UNL     1      32.818 -10.219 -22.882  0.00  0.00    +0.003 C 
BRANCH  29  34
ATOM     32  N   UNL     1      35.563 -10.372 -25.410  0.00  0.00    -0.343 N 
ATOM     33  N   UNL     1      34.935  -8.672 -23.934  0.00  0.00    -0.285 NA
ATOM     34  C   UNL     1      34.772  -9.912 -24.358  0.00  0.00    +0.117 C 
ATOM     35  H   UNL     1      36.226  -9.774 -25.824  0.00  0.00    +0.144 HD
ATOM     36  H   UNL     1      35.458 -11.294 -25.738  0.00  0.00    +0.144 HD
ATOM     37  H   UNL     1      35.604  -8.089 -24.362  0.00  0.00    +0.188 HD
ENDBRANCH  29  34
ENDBRANCH  25  26
ENDBRANCH  20  25
ENDBRANCH   1  20
TORSDOF 9
ENDMDL
