MODEL 1
REMARK VINA RESULT:      -4.6      0.000      0.000
REMARK  Name = 4116
REMARK  2 active torsions:
REMARK  status: ('A' for Active; 'I' for Inactive)
REMARK    1  A    between atoms: C_3  and  C_6
REMARK    2  A    between atoms: C_3  and  O_7
REMARK                            x       y       z     vdW  Elec       q    Type
REMARK                         _______ _______ _______ _____ _____    ______ ____
ROOT
ATOM      1  F   UNL     1      35.785 -18.610 -22.680  0.00  0.00    -0.172 F 
ATOM      2  F   UNL     1      37.294 -18.966 -21.134  0.00  0.00    -0.172 F 
ATOM      3  C   UNL     1      35.959 -18.877 -21.363  0.00  0.00    +0.394 C 
ENDROOT
BRANCH   3   6
ATOM      4 CL   UNL     1      36.113 -20.950 -19.600  0.00  0.00    -0.088 Cl
ATOM      5 CL   UNL     1      33.574 -19.903 -20.558  0.00  0.00    -0.088 Cl
ATOM      6  C   UNL     1      35.283 -20.183 -20.979  0.00  0.00    +0.248 C 
ENDBRANCH   3   6
BRANCH   3   7
ATOM      7  O   UNL     1      35.443 -17.798 -20.589  0.00  0.00    -0.301 OA
ATOM      8  C   UNL     1      34.975 -16.723 -21.392  0.00  0.00    +0.180 C 
ENDBRANCH   3   7
TORSDOF 2
ENDMDL
MODEL 2
REMARK VINA RESULT:      -4.6      1.393      1.794
REMARK  Name = 4116
REMARK  2 active torsions:
REMARK  status: ('A' for Active; 'I' for Inactive)
REMARK    1  A    between atoms: C_3  and  C_6
REMARK    2  A    between atoms: C_3  and  O_7
REMARK                            x       y       z     vdW  Elec       q    Type
REMARK                         _______ _______ _______ _____ _____    ______ ____
ROOT
ATOM      1  F   UNL     1      36.307 -17.616 -22.616  0.00  0.00    -0.172 F 
ATOM      2  F   UNL     1      37.015 -18.953 -21.034  0.00  0.00    -0.172 F 
ATOM      3  C   UNL     1      35.905 -18.400 -21.586  0.00  0.00    +0.394 C 
ENDROOT
BRANCH   3   6
ATOM      4 CL   UNL     1      33.527 -19.609 -21.029  0.00  0.00    -0.088 Cl
ATOM      5 CL   UNL     1      34.462 -19.188 -23.751  0.00  0.00    -0.088 Cl
ATOM      6  C   UNL     1      34.970 -19.495 -22.070  0.00  0.00    +0.248 C 
ENDBRANCH   3   6
BRANCH   3   7
ATOM      7  O   UNL     1      35.267 -17.595 -20.599  0.00  0.00    -0.301 OA
ATOM      8  C   UNL     1      34.844 -16.337 -21.107  0.00  0.00    +0.180 C 
ENDBRANCH   3   7
TORSDOF 2
ENDMDL
MODEL 3
REMARK VINA RESULT:      -4.4      1.919      2.261
REMARK  Name = 4116
REMARK  2 active torsions:
REMARK  status: ('A' for Active; 'I' for Inactive)
REMARK    1  A    between atoms: C_3  and  C_6
REMARK    2  A    between atoms: C_3  and  O_7
REMARK                            x       y       z     vdW  Elec       q    Type
REMARK                         _______ _______ _______ _____ _____    ______ ____
ROOT
ATOM      1  F   UNL     1      35.766 -17.893 -20.817  0.00  0.00    -0.172 F 
ATOM      2  F   UNL     1      33.612 -17.515 -20.923  0.00  0.00    -0.172 F 
ATOM      3  C   UNL     1      34.622 -18.253 -21.450  0.00  0.00    +0.394 C 
ENDROOT
BRANCH   3   6
ATOM      4 CL   UNL     1      35.601 -20.500 -20.259  0.00  0.00    -0.088 Cl
ATOM      5 CL   UNL     1      32.750 -19.966 -20.476  0.00  0.00    -0.088 Cl
ATOM      6  C   UNL     1      34.336 -19.732 -21.254  0.00  0.00    +0.248 C 
ENDBRANCH   3   6
BRANCH   3   7
ATOM      7  O   UNL     1      34.729 -17.941 -22.835  0.00  0.00    -0.301 OA
ATOM      8  C   UNL     1      34.921 -19.094 -23.643  0.00  0.00    +0.180 C 
ENDBRANCH   3   7
TORSDOF 2
ENDMDL
MODEL 4
REMARK VINA RESULT:      -4.4      1.205      1.938
REMARK  Name = 4116
REMARK  2 active torsions:
REMARK  status: ('A' for Active; 'I' for Inactive)
REMARK    1  A    between atoms: C_3  and  C_6
REMARK    2  A    between atoms: C_3  and  O_7
REMARK                            x       y       z     vdW  Elec       q    Type
REMARK                         _______ _______ _______ _____ _____    ______ ____
ROOT
ATOM      1  F   UNL     1      34.551 -19.420 -23.266  0.00  0.00    -0.172 F 
ATOM      2  F   UNL     1      36.409 -18.622 -22.427  0.00  0.00    -0.172 F 
ATOM      3  C   UNL     1      35.061 -18.657 -22.269  0.00  0.00    +0.394 C 
ENDROOT
BRANCH   3   6
ATOM      4 CL   UNL     1      33.073 -19.931 -20.908  0.00  0.00    -0.088 Cl
ATOM      5 CL   UNL     1      35.888 -20.504 -20.454  0.00  0.00    -0.088 Cl
ATOM      6  C   UNL     1      34.717 -19.240 -20.908  0.00  0.00    +0.248 C 
ENDBRANCH   3   6
BRANCH   3   7
ATOM      7  O   UNL     1      34.561 -17.328 -22.386  0.00  0.00    -0.301 OA
ATOM      8  C   UNL     1      34.718 -16.576 -21.192  0.00  0.00    +0.180 C 
ENDBRANCH   3   7
TORSDOF 2
ENDMDL
MODEL 5
REMARK VINA RESULT:      -4.4      2.912      3.364
REMARK  Name = 4116
REMARK  2 active torsions:
REMARK  status: ('A' for Active; 'I' for Inactive)
REMARK    1  A    between atoms: C_3  and  C_6
REMARK    2  A    between atoms: C_3  and  O_7
REMARK                            x       y       z     vdW  Elec       q    Type
REMARK                         _______ _______ _______ _____ _____    ______ ____
ROOT
ATOM      1  F   UNL     1      33.914 -19.821 -21.773  0.00  0.00    -0.172 F 
ATOM      2  F   UNL     1      34.016 -17.774 -21.003  0.00  0.00    -0.172 F 
ATOM      3  C   UNL     1      34.756 -18.791 -21.513  0.00  0.00    +0.394 C 
ENDROOT
BRANCH   3   6
ATOM      4 CL   UNL     1      34.846 -19.209 -24.204  0.00  0.00    -0.088 Cl
ATOM      5 CL   UNL     1      35.235 -16.581 -23.021  0.00  0.00    -0.088 Cl
ATOM      6  C   UNL     1      35.460 -18.332 -22.778  0.00  0.00    +0.248 C 
ENDBRANCH   3   6
BRANCH   3   7
ATOM      7  O   UNL     1      35.704 -19.192 -20.528  0.00  0.00    -0.301 OA
ATOM      8  C   UNL     1      35.700 -20.594 -20.302  0.00  0.00    +0.180 C 
ENDBRANCH   3   7
TORSDOF 2
ENDMDL
MODEL 6
REMARK VINA RESULT:      -4.4      4.303      5.017
REMARK  Name = 4116
REMARK  2 active torsions:
REMARK  status: ('A' for Active; 'I' for Inactive)
REMARK    1  A    between atoms: C_3  and  C_6
REMARK    2  A    between atoms: C_3  and  O_7
REMARK                            x       y       z     vdW  Elec       q    Type
REMARK                         _______ _______ _______ _____ _____    ______ ____
ROOT
ATOM      1  F   UNL     1      34.441 -13.568 -23.281  0.00  0.00    -0.172 F 
ATOM      2  F   UNL     1      33.074 -15.279 -23.242  0.00  0.00    -0.172 F 
ATOM      3  C   UNL     1      34.296 -14.843 -22.842  0.00  0.00    +0.394 C 
ENDROOT
BRANCH   3   6
ATOM      4 CL   UNL     1      32.826 -14.548 -20.567  0.00  0.00    -0.088 Cl
ATOM      5 CL   UNL     1      34.947 -16.523 -20.808  0.00  0.00    -0.088 Cl
ATOM      6  C   UNL     1      34.398 -14.910 -21.328  0.00  0.00    +0.248 C 
ENDBRANCH   3   6
BRANCH   3   7
ATOM      7  O   UNL     1      35.286 -15.667 -23.449  0.00  0.00    -0.301 OA
ATOM      8  C   UNL     1      34.742 -16.560 -24.411  0.00  0.00    +0.180 C 
ENDBRANCH   3   7
TORSDOF 2
ENDMDL
MODEL 7
REMARK VINA RESULT:      -4.4      2.430      3.237
REMARK  Name = 4116
REMARK  2 active torsions:
REMARK  status: ('A' for Active; 'I' for Inactive)
REMARK    1  A    between atoms: C_3  and  C_6
REMARK    2  A    between atoms: C_3  and  O_7
REMARK                            x       y       z     vdW  Elec       q    Type
REMARK                         _______ _______ _______ _____ _____    ______ ____
ROOT
ATOM      1  F   UNL     1      36.787 -18.300 -22.479  0.00  0.00    -0.172 F 
ATOM      2  F   UNL     1      35.026 -19.571 -22.750  0.00  0.00    -0.172 F 
ATOM      3  C   UNL     1      35.538 -18.551 -22.016  0.00  0.00    +0.394 C 
ENDROOT
BRANCH   3   6
ATOM      4 CL   UNL     1      34.839 -16.243 -20.746  0.00  0.00    -0.088 Cl
ATOM      5 CL   UNL     1      35.047 -16.427 -23.641  0.00  0.00    -0.088 Cl
ATOM      6  C   UNL     1      34.652 -17.323 -22.152  0.00  0.00    +0.248 C 
ENDBRANCH   3   6
BRANCH   3   7
ATOM      7  O   UNL     1      35.612 -18.969 -20.657  0.00  0.00    -0.301 OA
ATOM      8  C   UNL     1      35.144 -20.297 -20.466  0.00  0.00    +0.180 C 
ENDBRANCH   3   7
TORSDOF 2
ENDMDL
MODEL 8
REMARK VINA RESULT:      -4.4      8.683      9.091
REMARK  Name = 4116
REMARK  2 active torsions:
REMARK  status: ('A' for Active; 'I' for Inactive)
REMARK    1  A    between atoms: C_3  and  C_6
REMARK    2  A    between atoms: C_3  and  O_7
REMARK                            x       y       z     vdW  Elec       q    Type
REMARK                         _______ _______ _______ _____ _____    ______ ____
ROOT
ATOM      1  F   UNL     1      29.223 -21.978 -14.756  0.00  0.00    -0.172 F 
ATOM      2  F   UNL     1      28.659 -24.003 -15.369  0.00  0.00    -0.172 F 
ATOM      3  C   UNL     1      29.461 -22.951 -15.671  0.00  0.00    +0.394 C 
ENDROOT
BRANCH   3   6
ATOM      4 CL   UNL     1      31.795 -22.792 -17.069  0.00  0.00    -0.088 Cl
ATOM      5 CL   UNL     1      31.715 -22.780 -14.162  0.00  0.00    -0.088 Cl
ATOM      6  C   UNL     1      30.916 -23.385 -15.635  0.00  0.00    +0.248 C 
ENDBRANCH   3   6
BRANCH   3   7
ATOM      7  O   UNL     1      29.110 -22.477 -16.967  0.00  0.00    -0.301 OA
ATOM      8  C   UNL     1      27.789 -22.841 -17.344  0.00  0.00    +0.180 C 
ENDBRANCH   3   7
TORSDOF 2
ENDMDL
MODEL 9
REMARK VINA RESULT:      -4.3      2.311      2.723
REMARK  Name = 4116
REMARK  2 active torsions:
REMARK  status: ('A' for Active; 'I' for Inactive)
REMARK    1  A    between atoms: C_3  and  C_6
REMARK    2  A    between atoms: C_3  and  O_7
REMARK                            x       y       z     vdW  Elec       q    Type
REMARK                         _______ _______ _______ _____ _____    ______ ____
ROOT
ATOM      1  F   UNL     1      34.865 -19.529 -23.334  0.00  0.00    -0.172 F 
ATOM      2  F   UNL     1      36.741 -18.488 -22.897  0.00  0.00    -0.172 F 
ATOM      3  C   UNL     1      35.390 -18.397 -22.804  0.00  0.00    +0.394 C 
ENDROOT
BRANCH   3   6
ATOM      4 CL   UNL     1      34.568 -16.544 -20.982  0.00  0.00    -0.088 Cl
ATOM      5 CL   UNL     1      33.589 -19.283 -20.971  0.00  0.00    -0.088 Cl
ATOM      6  C   UNL     1      34.983 -18.239 -21.348  0.00  0.00    +0.248 C 
ENDBRANCH   3   6
BRANCH   3   7
ATOM      7  O   UNL     1      34.963 -17.274 -23.569  0.00  0.00    -0.301 OA
ATOM      8  C   UNL     1      34.615 -17.620 -24.902  0.00  0.00    +0.180 C 
ENDBRANCH   3   7
TORSDOF 2
ENDMDL
