MODEL 1
REMARK VINA RESULT:      -6.8      0.000      0.000
REMARK  Name = 439507
REMARK  6 active torsions:
REMARK  status: ('A' for Active; 'I' for Inactive)
REMARK    1  A    between atoms: C_2  and  O_7
REMARK    2  A    between atoms: C_3  and  O_9
REMARK    3  A    between atoms: C_4  and  C_15
REMARK    4  A    between atoms: C_5  and  O_11
REMARK    5  A    between atoms: C_6  and  O_13
REMARK    6  A    between atoms: C_15  and  O_16
REMARK                            x       y       z     vdW  Elec       q    Type
REMARK                         _______ _______ _______ _____ _____    ______ ____
ROOT
ATOM      1  O   UNL     1      39.271 -24.466 -13.071  0.00  0.00    -0.326 OA
ATOM      2  C   UNL     1      37.951 -25.287 -14.939  0.00  0.00    +0.169 C 
ATOM      3  C   UNL     1      36.669 -24.761 -14.288  0.00  0.00    +0.172 C 
ATOM      4  C   UNL     1      39.014 -25.616 -13.881  0.00  0.00    +0.176 C 
ATOM      5  C   UNL     1      37.009 -23.615 -13.331  0.00  0.00    +0.196 C 
ATOM      6  C   UNL     1      38.123 -24.005 -12.356  0.00  0.00    +0.262 C 
ENDROOT
BRANCH   2   7
ATOM      7  O   UNL     1      37.667 -26.439 -15.723  0.00  0.00    -0.379 OA
ATOM      8  H   UNL     1      37.594 -27.214 -15.144  0.00  0.00    +0.211 HD
ENDBRANCH   2   7
BRANCH   3   9
ATOM      9  O   UNL     1      36.002 -25.814 -13.586  0.00  0.00    -0.379 OA
ATOM     10  H   UNL     1      35.708 -26.488 -14.218  0.00  0.00    +0.211 HD
ENDBRANCH   3   9
BRANCH   5  11
ATOM     11  O   UNL     1      35.850 -23.228 -12.599  0.00  0.00    -0.378 OA
ATOM     12  H   UNL     1      36.084 -22.525 -11.974  0.00  0.00    +0.211 HD
ENDBRANCH   5  11
BRANCH   6  13
ATOM     13  O   UNL     1      38.466 -22.845 -11.599  0.00  0.00    -0.358 OA
ATOM     14  H   UNL     1      37.659 -22.362 -11.363  0.00  0.00    +0.213 HD
ENDBRANCH   6  13
BRANCH   4  15
ATOM     15  C   UNL     1      40.336 -26.027 -14.523  0.00  0.00    +0.169 C 
BRANCH  15  16
ATOM     16  O   UNL     1      40.274 -25.740 -15.907  0.00  0.00    -0.379 OA
ATOM     17  H   UNL     1      41.170 -25.744 -16.279  0.00  0.00    +0.211 HD
ENDBRANCH  15  16
ENDBRANCH   4  15
TORSDOF 6
ENDMDL
MODEL 2
REMARK VINA RESULT:      -6.5      1.734      2.015
REMARK  Name = 439507
REMARK  6 active torsions:
REMARK  status: ('A' for Active; 'I' for Inactive)
REMARK    1  A    between atoms: C_2  and  O_7
REMARK    2  A    between atoms: C_3  and  O_9
REMARK    3  A    between atoms: C_4  and  C_15
REMARK    4  A    between atoms: C_5  and  O_11
REMARK    5  A    between atoms: C_6  and  O_13
REMARK    6  A    between atoms: C_15  and  O_16
REMARK                            x       y       z     vdW  Elec       q    Type
REMARK                         _______ _______ _______ _____ _____    ______ ____
ROOT
ATOM      1  O   UNL     1      38.497 -26.105 -13.327  0.00  0.00    -0.326 OA
ATOM      2  C   UNL     1      38.302 -24.129 -14.729  0.00  0.00    +0.169 C 
ATOM      3  C   UNL     1      36.800 -24.055 -14.446  0.00  0.00    +0.172 C 
ATOM      4  C   UNL     1      38.815 -25.572 -14.616  0.00  0.00    +0.176 C 
ATOM      5  C   UNL     1      36.488 -24.751 -13.119  0.00  0.00    +0.196 C 
ATOM      6  C   UNL     1      37.094 -26.157 -13.064  0.00  0.00    +0.262 C 
ENDROOT
BRANCH   2   7
ATOM      7  O   UNL     1      38.585 -23.608 -16.021  0.00  0.00    -0.379 OA
ATOM      8  H   UNL     1      38.886 -22.690 -15.940  0.00  0.00    +0.211 HD
ENDBRANCH   2   7
BRANCH   3   9
ATOM      9  O   UNL     1      36.064 -24.663 -15.511  0.00  0.00    -0.379 OA
ATOM     10  H   UNL     1      36.667 -24.876 -16.240  0.00  0.00    +0.211 HD
ENDBRANCH   3   9
BRANCH   5  11
ATOM     11  O   UNL     1      35.080 -24.832 -12.926  0.00  0.00    -0.378 OA
ATOM     12  H   UNL     1      34.856 -24.505 -12.040  0.00  0.00    +0.211 HD
ENDBRANCH   5  11
BRANCH   6  13
ATOM     13  O   UNL     1      36.873 -26.676 -11.752  0.00  0.00    -0.358 OA
ATOM     14  H   UNL     1      36.552 -27.590 -11.815  0.00  0.00    +0.213 HD
ENDBRANCH   6  13
BRANCH   4  15
ATOM     15  C   UNL     1      40.331 -25.643 -14.776  0.00  0.00    +0.169 C 
BRANCH  15  16
ATOM     16  O   UNL     1      40.627 -26.021 -16.108  0.00  0.00    -0.379 OA
ATOM     17  H   UNL     1      39.918 -25.716 -16.696  0.00  0.00    +0.211 HD
ENDBRANCH  15  16
ENDBRANCH   4  15
TORSDOF 6
ENDMDL
MODEL 3
REMARK VINA RESULT:      -6.4      1.762      4.016
REMARK  Name = 439507
REMARK  6 active torsions:
REMARK  status: ('A' for Active; 'I' for Inactive)
REMARK    1  A    between atoms: C_2  and  O_7
REMARK    2  A    between atoms: C_3  and  O_9
REMARK    3  A    between atoms: C_4  and  C_15
REMARK    4  A    between atoms: C_5  and  O_11
REMARK    5  A    between atoms: C_6  and  O_13
REMARK    6  A    between atoms: C_15  and  O_16
REMARK                            x       y       z     vdW  Elec       q    Type
REMARK                         _______ _______ _______ _____ _____    ______ ____
ROOT
ATOM      1  O   UNL     1      37.004 -23.678 -14.231  0.00  0.00    -0.326 OA
ATOM      2  C   UNL     1      37.484 -25.525 -12.726  0.00  0.00    +0.169 C 
ATOM      3  C   UNL     1      38.467 -26.118 -13.738  0.00  0.00    +0.172 C 
ATOM      4  C   UNL     1      36.399 -24.696 -13.429  0.00  0.00    +0.176 C 
ATOM      5  C   UNL     1      38.991 -25.012 -14.658  0.00  0.00    +0.196 C 
ATOM      6  C   UNL     1      37.847 -24.192 -15.262  0.00  0.00    +0.262 C 
ENDROOT
BRANCH   2   7
ATOM      7  O   UNL     1      36.887 -26.561 -11.956  0.00  0.00    -0.379 OA
ATOM      8  H   UNL     1      37.406 -26.704 -11.149  0.00  0.00    +0.211 HD
ENDBRANCH   2   7
BRANCH   3   9
ATOM      9  O   UNL     1      37.831 -27.144 -14.505  0.00  0.00    -0.379 OA
ATOM     10  H   UNL     1      38.183 -27.137 -15.408  0.00  0.00    +0.211 HD
ENDBRANCH   3   9
BRANCH   5  11
ATOM     11  O   UNL     1      39.776 -25.576 -15.703  0.00  0.00    -0.378 OA
ATOM     12  H   UNL     1      39.332 -25.433 -16.554  0.00  0.00    +0.211 HD
ENDBRANCH   5  11
BRANCH   6  13
ATOM     13  O   UNL     1      38.425 -23.110 -15.992  0.00  0.00    -0.358 OA
ATOM     14  H   UNL     1      38.003 -23.044 -16.863  0.00  0.00    +0.213 HD
ENDBRANCH   6  13
BRANCH   4  15
ATOM     15  C   UNL     1      35.484 -24.001 -12.424  0.00  0.00    +0.169 C 
BRANCH  15  16
ATOM     16  O   UNL     1      34.581 -24.957 -11.900  0.00  0.00    -0.379 OA
ATOM     17  H   UNL     1      34.073 -24.560 -11.176  0.00  0.00    +0.211 HD
ENDBRANCH  15  16
ENDBRANCH   4  15
TORSDOF 6
ENDMDL
MODEL 4
REMARK VINA RESULT:      -6.3      1.404      3.707
REMARK  Name = 439507
REMARK  6 active torsions:
REMARK  status: ('A' for Active; 'I' for Inactive)
REMARK    1  A    between atoms: C_2  and  O_7
REMARK    2  A    between atoms: C_3  and  O_9
REMARK    3  A    between atoms: C_4  and  C_15
REMARK    4  A    between atoms: C_5  and  O_11
REMARK    5  A    between atoms: C_6  and  O_13
REMARK    6  A    between atoms: C_15  and  O_16
REMARK                            x       y       z     vdW  Elec       q    Type
REMARK                         _______ _______ _______ _____ _____    ______ ____
ROOT
ATOM      1  O   UNL     1      38.200 -24.919 -13.419  0.00  0.00    -0.326 OA
ATOM      2  C   UNL     1      35.825 -24.417 -13.530  0.00  0.00    +0.169 C 
ATOM      3  C   UNL     1      35.689 -25.257 -14.802  0.00  0.00    +0.172 C 
ATOM      4  C   UNL     1      37.246 -23.854 -13.389  0.00  0.00    +0.176 C 
ATOM      5  C   UNL     1      36.807 -26.301 -14.855  0.00  0.00    +0.196 C 
ATOM      6  C   UNL     1      38.183 -25.664 -14.637  0.00  0.00    +0.262 C 
ENDROOT
BRANCH   2   7
ATOM      7  O   UNL     1      34.876 -23.358 -13.537  0.00  0.00    -0.379 OA
ATOM      8  H   UNL     1      34.047 -23.670 -13.931  0.00  0.00    +0.211 HD
ENDBRANCH   2   7
BRANCH   3   9
ATOM      9  O   UNL     1      35.737 -24.417 -15.959  0.00  0.00    -0.379 OA
ATOM     10  H   UNL     1      35.727 -23.487 -15.684  0.00  0.00    +0.211 HD
ENDBRANCH   3   9
BRANCH   5  11
ATOM     11  O   UNL     1      36.789 -26.977 -16.107  0.00  0.00    -0.378 OA
ATOM     12  H   UNL     1      37.573 -26.726 -16.621  0.00  0.00    +0.211 HD
ENDBRANCH   5  11
BRANCH   6  13
ATOM     13  O   UNL     1      39.145 -26.716 -14.567  0.00  0.00    -0.358 OA
ATOM     14  H   UNL     1      39.334 -27.043 -15.461  0.00  0.00    +0.213 HD
ENDBRANCH   6  13
BRANCH   4  15
ATOM     15  C   UNL     1      37.428 -23.115 -12.066  0.00  0.00    +0.169 C 
BRANCH  15  16
ATOM     16  O   UNL     1      38.789 -23.201 -11.685  0.00  0.00    -0.379 OA
ATOM     17  H   UNL     1      39.235 -23.871 -12.226  0.00  0.00    +0.211 HD
ENDBRANCH  15  16
ENDBRANCH   4  15
TORSDOF 6
ENDMDL
MODEL 5
REMARK VINA RESULT:      -6.2      2.112      2.833
REMARK  Name = 439507
REMARK  6 active torsions:
REMARK  status: ('A' for Active; 'I' for Inactive)
REMARK    1  A    between atoms: C_2  and  O_7
REMARK    2  A    between atoms: C_3  and  O_9
REMARK    3  A    between atoms: C_4  and  C_15
REMARK    4  A    between atoms: C_5  and  O_11
REMARK    5  A    between atoms: C_6  and  O_13
REMARK    6  A    between atoms: C_15  and  O_16
REMARK                            x       y       z     vdW  Elec       q    Type
REMARK                         _______ _______ _______ _____ _____    ______ ____
ROOT
ATOM      1  O   UNL     1      37.881 -24.496 -13.318  0.00  0.00    -0.326 OA
ATOM      2  C   UNL     1      35.457 -24.324 -13.348  0.00  0.00    +0.169 C 
ATOM      3  C   UNL     1      35.459 -23.805 -11.908  0.00  0.00    +0.172 C 
ATOM      4  C   UNL     1      36.680 -25.214 -13.616  0.00  0.00    +0.176 C 
ATOM      5  C   UNL     1      36.811 -23.159 -11.593  0.00  0.00    +0.196 C 
ATOM      6  C   UNL     1      37.976 -24.086 -11.954  0.00  0.00    +0.262 C 
ENDROOT
BRANCH   2   7
ATOM      7  O   UNL     1      34.260 -25.046 -13.608  0.00  0.00    -0.379 OA
ATOM      8  H   UNL     1      34.422 -25.698 -14.307  0.00  0.00    +0.211 HD
ENDBRANCH   2   7
BRANCH   3   9
ATOM      9  O   UNL     1      35.193 -24.872 -10.995  0.00  0.00    -0.379 OA
ATOM     10  H   UNL     1      35.006 -25.684 -11.492  0.00  0.00    +0.211 HD
ENDBRANCH   3   9
BRANCH   5  11
ATOM     11  O   UNL     1      36.882 -22.820 -10.213  0.00  0.00    -0.378 OA
ATOM     12  H   UNL     1      36.167 -22.202  -9.994  0.00  0.00    +0.211 HD
ENDBRANCH   5  11
BRANCH   6  13
ATOM     13  O   UNL     1      39.188 -23.359 -11.756  0.00  0.00    -0.358 OA
ATOM     14  H   UNL     1      39.812 -23.569 -12.469  0.00  0.00    +0.213 HD
ENDBRANCH   6  13
BRANCH   4  15
ATOM     15  C   UNL     1      36.754 -25.640 -15.080  0.00  0.00    +0.169 C 
BRANCH  15  16
ATOM     16  O   UNL     1      35.959 -26.798 -15.253  0.00  0.00    -0.379 OA
ATOM     17  H   UNL     1      36.472 -27.583 -15.005  0.00  0.00    +0.211 HD
ENDBRANCH  15  16
ENDBRANCH   4  15
TORSDOF 6
ENDMDL
MODEL 6
REMARK VINA RESULT:      -6.2      1.216      2.838
REMARK  Name = 439507
REMARK  6 active torsions:
REMARK  status: ('A' for Active; 'I' for Inactive)
REMARK    1  A    between atoms: C_2  and  O_7
REMARK    2  A    between atoms: C_3  and  O_9
REMARK    3  A    between atoms: C_4  and  C_15
REMARK    4  A    between atoms: C_5  and  O_11
REMARK    5  A    between atoms: C_6  and  O_13
REMARK    6  A    between atoms: C_15  and  O_16
REMARK                            x       y       z     vdW  Elec       q    Type
REMARK                         _______ _______ _______ _____ _____    ______ ____
ROOT
ATOM      1  O   UNL     1      36.211 -24.663 -13.881  0.00  0.00    -0.326 OA
ATOM      2  C   UNL     1      38.042 -26.260 -13.826  0.00  0.00    +0.169 C 
ATOM      3  C   UNL     1      38.897 -25.278 -13.021  0.00  0.00    +0.172 C 
ATOM      4  C   UNL     1      37.019 -25.516 -14.696  0.00  0.00    +0.176 C 
ATOM      5  C   UNL     1      37.991 -24.303 -12.265  0.00  0.00    +0.196 C 
ATOM      6  C   UNL     1      36.958 -23.658 -13.194  0.00  0.00    +0.262 C 
ENDROOT
BRANCH   2   7
ATOM      7  O   UNL     1      38.871 -27.082 -14.638  0.00  0.00    -0.379 OA
ATOM      8  H   UNL     1      39.065 -27.908 -14.168  0.00  0.00    +0.211 HD
ENDBRANCH   2   7
BRANCH   3   9
ATOM      9  O   UNL     1      39.783 -24.565 -13.889  0.00  0.00    -0.379 OA
ATOM     10  H   UNL     1      39.917 -25.074 -14.703  0.00  0.00    +0.211 HD
ENDBRANCH   3   9
BRANCH   5  11
ATOM     11  O   UNL     1      38.773 -23.287 -11.647  0.00  0.00    -0.378 OA
ATOM     12  H   UNL     1      39.172 -23.636 -10.833  0.00  0.00    +0.211 HD
ENDBRANCH   5  11
BRANCH   6  13
ATOM     13  O   UNL     1      36.077 -22.874 -12.389  0.00  0.00    -0.358 OA
ATOM     14  H   UNL     1      35.328 -22.574 -12.927  0.00  0.00    +0.213 HD
ENDBRANCH   6  13
BRANCH   4  15
ATOM     15  C   UNL     1      36.081 -26.485 -15.411  0.00  0.00    +0.169 C 
BRANCH  15  16
ATOM     16  O   UNL     1      36.823 -27.198 -16.384  0.00  0.00    -0.379 OA
ATOM     17  H   UNL     1      37.148 -28.026 -15.999  0.00  0.00    +0.211 HD
ENDBRANCH  15  16
ENDBRANCH   4  15
TORSDOF 6
ENDMDL
MODEL 7
REMARK VINA RESULT:      -6.0      1.580      4.636
REMARK  Name = 439507
REMARK  6 active torsions:
REMARK  status: ('A' for Active; 'I' for Inactive)
REMARK    1  A    between atoms: C_2  and  O_7
REMARK    2  A    between atoms: C_3  and  O_9
REMARK    3  A    between atoms: C_4  and  C_15
REMARK    4  A    between atoms: C_5  and  O_11
REMARK    5  A    between atoms: C_6  and  O_13
REMARK    6  A    between atoms: C_15  and  O_16
REMARK                            x       y       z     vdW  Elec       q    Type
REMARK                         _______ _______ _______ _____ _____    ______ ____
ROOT
ATOM      1  O   UNL     1      35.703 -25.600 -15.229  0.00  0.00    -0.326 OA
ATOM      2  C   UNL     1      36.827 -24.021 -13.761  0.00  0.00    +0.169 C 
ATOM      3  C   UNL     1      38.031 -24.958 -13.646  0.00  0.00    +0.172 C 
ATOM      4  C   UNL     1      35.540 -24.807 -14.049  0.00  0.00    +0.176 C 
ATOM      5  C   UNL     1      38.092 -25.876 -14.870  0.00  0.00    +0.196 C 
ATOM      6  C   UNL     1      36.748 -26.567 -15.124  0.00  0.00    +0.262 C 
ENDROOT
BRANCH   2   7
ATOM      7  O   UNL     1      36.681 -23.260 -12.569  0.00  0.00    -0.379 OA
ATOM      8  H   UNL     1      36.016 -23.677 -11.999  0.00  0.00    +0.211 HD
ENDBRANCH   2   7
BRANCH   3   9
ATOM      9  O   UNL     1      37.943 -25.734 -12.448  0.00  0.00    -0.379 OA
ATOM     10  H   UNL     1      37.207 -26.361 -12.522  0.00  0.00    +0.211 HD
ENDBRANCH   3   9
BRANCH   5  11
ATOM     11  O   UNL     1      39.107 -26.858 -14.697  0.00  0.00    -0.378 OA
ATOM     12  H   UNL     1      38.760 -27.591 -14.164  0.00  0.00    +0.211 HD
ENDBRANCH   5  11
BRANCH   6  13
ATOM     13  O   UNL     1      36.855 -27.290 -16.350  0.00  0.00    -0.358 OA
ATOM     14  H   UNL     1      36.007 -27.716 -16.550  0.00  0.00    +0.213 HD
ENDBRANCH   6  13
BRANCH   4  15
ATOM     15  C   UNL     1      34.354 -23.876 -14.286  0.00  0.00    +0.169 C 
BRANCH  15  16
ATOM     16  O   UNL     1      33.743 -23.597 -13.040  0.00  0.00    -0.379 OA
ATOM     17  H   UNL     1      33.358 -24.410 -12.679  0.00  0.00    +0.211 HD
ENDBRANCH  15  16
ENDBRANCH   4  15
TORSDOF 6
ENDMDL
MODEL 8
REMARK VINA RESULT:      -6.0      2.467      4.322
REMARK  Name = 439507
REMARK  6 active torsions:
REMARK  status: ('A' for Active; 'I' for Inactive)
REMARK    1  A    between atoms: C_2  and  O_7
REMARK    2  A    between atoms: C_3  and  O_9
REMARK    3  A    between atoms: C_4  and  C_15
REMARK    4  A    between atoms: C_5  and  O_11
REMARK    5  A    between atoms: C_6  and  O_13
REMARK    6  A    between atoms: C_15  and  O_16
REMARK                            x       y       z     vdW  Elec       q    Type
REMARK                         _______ _______ _______ _____ _____    ______ ____
ROOT
ATOM      1  O   UNL     1      34.381 -24.589 -12.340  0.00  0.00    -0.326 OA
ATOM      2  C   UNL     1      35.669 -24.760 -14.394  0.00  0.00    +0.169 C 
ATOM      3  C   UNL     1      36.974 -24.614 -13.608  0.00  0.00    +0.172 C 
ATOM      4  C   UNL     1      34.506 -24.069 -13.667  0.00  0.00    +0.176 C 
ATOM      5  C   UNL     1      36.759 -25.062 -12.160  0.00  0.00    +0.196 C 
ATOM      6  C   UNL     1      35.540 -24.376 -11.534  0.00  0.00    +0.262 C 
ENDROOT
BRANCH   2   7
ATOM      7  O   UNL     1      35.819 -24.220 -15.701  0.00  0.00    -0.379 OA
ATOM      8  H   UNL     1      35.709 -23.257 -15.667  0.00  0.00    +0.211 HD
ENDBRANCH   2   7
BRANCH   3   9
ATOM      9  O   UNL     1      37.429 -23.259 -13.648  0.00  0.00    -0.379 OA
ATOM     10  H   UNL     1      36.715 -22.688 -13.971  0.00  0.00    +0.211 HD
ENDBRANCH   3   9
BRANCH   5  11
ATOM     11  O   UNL     1      37.916 -24.778 -11.382  0.00  0.00    -0.378 OA
ATOM     12  H   UNL     1      37.663 -24.678 -10.451  0.00  0.00    +0.211 HD
ENDBRANCH   5  11
BRANCH   6  13
ATOM     13  O   UNL     1      35.335 -24.947 -10.242  0.00  0.00    -0.358 OA
ATOM     14  H   UNL     1      34.399 -24.874 -10.000  0.00  0.00    +0.213 HD
ENDBRANCH   6  13
BRANCH   4  15
ATOM     15  C   UNL     1      33.177 -24.309 -14.378  0.00  0.00    +0.169 C 
BRANCH  15  16
ATOM     16  O   UNL     1      32.550 -25.437 -13.795  0.00  0.00    -0.379 OA
ATOM     17  H   UNL     1      32.355 -26.091 -14.483  0.00  0.00    +0.211 HD
ENDBRANCH  15  16
ENDBRANCH   4  15
TORSDOF 6
ENDMDL
MODEL 9
REMARK VINA RESULT:      -6.0      1.841      2.096
REMARK  Name = 439507
REMARK  6 active torsions:
REMARK  status: ('A' for Active; 'I' for Inactive)
REMARK    1  A    between atoms: C_2  and  O_7
REMARK    2  A    between atoms: C_3  and  O_9
REMARK    3  A    between atoms: C_4  and  C_15
REMARK    4  A    between atoms: C_5  and  O_11
REMARK    5  A    between atoms: C_6  and  O_13
REMARK    6  A    between atoms: C_15  and  O_16
REMARK                            x       y       z     vdW  Elec       q    Type
REMARK                         _______ _______ _______ _____ _____    ______ ____
ROOT
ATOM      1  O   UNL     1      38.603 -23.706 -15.201  0.00  0.00    -0.326 OA
ATOM      2  C   UNL     1      37.872 -26.020 -15.062  0.00  0.00    +0.169 C 
ATOM      3  C   UNL     1      36.418 -25.569 -14.902  0.00  0.00    +0.172 C 
ATOM      4  C   UNL     1      38.842 -24.951 -14.539  0.00  0.00    +0.176 C 
ATOM      5  C   UNL     1      36.238 -24.176 -15.511  0.00  0.00    +0.196 C 
ATOM      6  C   UNL     1      37.288 -23.192 -14.987  0.00  0.00    +0.262 C 
ENDROOT
BRANCH   2   7
ATOM      7  O   UNL     1      38.083 -27.250 -14.381  0.00  0.00    -0.379 OA
ATOM      8  H   UNL     1      37.377 -27.384 -13.730  0.00  0.00    +0.211 HD
ENDBRANCH   2   7
BRANCH   3   9
ATOM      9  O   UNL     1      36.051 -25.559 -13.520  0.00  0.00    -0.379 OA
ATOM     10  H   UNL     1      35.086 -25.612 -13.441  0.00  0.00    +0.211 HD
ENDBRANCH   3   9
BRANCH   5  11
ATOM     11  O   UNL     1      34.935 -23.680 -15.224  0.00  0.00    -0.378 OA
ATOM     12  H   UNL     1      34.325 -24.425 -15.102  0.00  0.00    +0.211 HD
ENDBRANCH   5  11
BRANCH   6  13
ATOM     13  O   UNL     1      37.131 -21.966 -15.702  0.00  0.00    -0.358 OA
ATOM     14  H   UNL     1      37.782 -21.320 -15.384  0.00  0.00    +0.213 HD
ENDBRANCH   6  13
BRANCH   4  15
ATOM     15  C   UNL     1      40.296 -25.335 -14.803  0.00  0.00    +0.169 C 
BRANCH  15  16
ATOM     16  O   UNL     1      40.380 -25.930 -16.084  0.00  0.00    -0.379 OA
ATOM     17  H   UNL     1      39.508 -26.269 -16.342  0.00  0.00    +0.211 HD
ENDBRANCH  15  16
ENDBRANCH   4  15
TORSDOF 6
ENDMDL
