MODEL 1
REMARK VINA RESULT:      -6.1      0.000      0.000
REMARK  Name = 6112
REMARK  6 active torsions:
REMARK  status: ('A' for Active; 'I' for Inactive)
REMARK    1  A    between atoms: C_1  and  C_2
REMARK    2  A    between atoms: C_1  and  C_8
REMARK    3  A    between atoms: C_2  and  C_5
REMARK    4  A    between atoms: C_8  and  C_9
REMARK    5  A    between atoms: C_9  and  C_11
REMARK    6  A    between atoms: C_11  and  O_12
REMARK                            x       y       z     vdW  Elec       q    Type
REMARK                         _______ _______ _______ _____ _____    ______ ____
ROOT
ATOM      1  C   UNL     1      33.589 -19.443 -21.303  0.00  0.00    +0.001 C 
ENDROOT
BRANCH   1   2
ATOM      2  C   UNL     1      35.061 -19.038 -21.205  0.00  0.00    +0.012 C 
BRANCH   2   5
ATOM      3  S   UNL     1      35.066 -17.477 -23.473  0.00  0.00    -0.083 S 
ATOM      4  S   UNL     1      34.422 -15.530 -23.482  0.00  0.00    -0.082 S 
ATOM      5  C   UNL     1      35.333 -17.618 -21.678  0.00  0.00    +0.059 C 
ATOM      6  C   UNL     1      34.396 -16.600 -21.023  0.00  0.00    +0.024 C 
ATOM      7  C   UNL     1      34.555 -15.245 -21.701  0.00  0.00    +0.070 C 
ENDBRANCH   2   5
ENDBRANCH   1   2
BRANCH   1   8
ATOM      8  C   UNL     1      33.083 -20.379 -20.200  0.00  0.00    +0.012 C 
BRANCH   8   9
ATOM      9  C   UNL     1      34.171 -21.289 -19.630  0.00  0.00    +0.109 C 
BRANCH   9  11
ATOM     10  O   UNL     1      34.032 -23.712 -19.416  0.00  0.00    -0.250 OA
ATOM     11  C   UNL     1      33.604 -22.601 -19.135  0.00  0.00    +0.314 C 
BRANCH  11  12
ATOM     12  O   UNL     1      32.532 -22.403 -18.324  0.00  0.00    -0.480 OA
ATOM     13  H   UNL     1      32.515 -21.670 -17.740  0.00  0.00    +0.295 HD
ENDBRANCH  11  12
ENDBRANCH   9  11
ENDBRANCH   8   9
ENDBRANCH   1   8
TORSDOF 6
ENDMDL
MODEL 2
REMARK VINA RESULT:      -6.1      1.135      1.171
REMARK  Name = 6112
REMARK  6 active torsions:
REMARK  status: ('A' for Active; 'I' for Inactive)
REMARK    1  A    between atoms: C_1  and  C_2
REMARK    2  A    between atoms: C_1  and  C_8
REMARK    3  A    between atoms: C_2  and  C_5
REMARK    4  A    between atoms: C_8  and  C_9
REMARK    5  A    between atoms: C_9  and  C_11
REMARK    6  A    between atoms: C_11  and  O_12
REMARK                            x       y       z     vdW  Elec       q    Type
REMARK                         _______ _______ _______ _____ _____    ______ ____
ROOT
ATOM      1  C   UNL     1      33.525 -19.457 -21.002  0.00  0.00    +0.001 C 
ENDROOT
BRANCH   1   2
ATOM      2  C   UNL     1      34.972 -19.596 -21.480  0.00  0.00    +0.012 C 
BRANCH   2   5
ATOM      3  S   UNL     1      34.838 -18.894 -24.139  0.00  0.00    -0.083 S 
ATOM      4  S   UNL     1      34.554 -16.962 -24.764  0.00  0.00    -0.082 S 
ATOM      5  C   UNL     1      35.397 -18.505 -22.452  0.00  0.00    +0.059 C 
ATOM      6  C   UNL     1      34.788 -17.146 -22.098  0.00  0.00    +0.024 C 
ATOM      7  C   UNL     1      35.056 -16.155 -23.225  0.00  0.00    +0.070 C 
ENDBRANCH   2   5
ENDBRANCH   1   2
BRANCH   1   8
ATOM      8  C   UNL     1      33.040 -20.540 -20.033  0.00  0.00    +0.012 C 
BRANCH   8   9
ATOM      9  C   UNL     1      34.142 -21.507 -19.602  0.00  0.00    +0.109 C 
BRANCH   9  11
ATOM     10  O   UNL     1      34.388 -23.203 -17.870  0.00  0.00    -0.250 OA
ATOM     11  C   UNL     1      33.674 -22.442 -18.509  0.00  0.00    +0.314 C 
BRANCH  11  12
ATOM     12  O   UNL     1      32.333 -22.345 -18.314  0.00  0.00    -0.480 OA
ATOM     13  H   UNL     1      31.793 -23.109 -18.376  0.00  0.00    +0.295 HD
ENDBRANCH  11  12
ENDBRANCH   9  11
ENDBRANCH   8   9
ENDBRANCH   1   8
TORSDOF 6
ENDMDL
MODEL 3
REMARK VINA RESULT:      -6.1      1.517      2.220
REMARK  Name = 6112
REMARK  6 active torsions:
REMARK  status: ('A' for Active; 'I' for Inactive)
REMARK    1  A    between atoms: C_1  and  C_2
REMARK    2  A    between atoms: C_1  and  C_8
REMARK    3  A    between atoms: C_2  and  C_5
REMARK    4  A    between atoms: C_8  and  C_9
REMARK    5  A    between atoms: C_9  and  C_11
REMARK    6  A    between atoms: C_11  and  O_12
REMARK                            x       y       z     vdW  Elec       q    Type
REMARK                         _______ _______ _______ _____ _____    ______ ____
ROOT
ATOM      1  C   UNL     1      35.604 -19.922 -20.944  0.00  0.00    +0.001 C 
ENDROOT
BRANCH   1   2
ATOM      2  C   UNL     1      35.484 -18.426 -21.247  0.00  0.00    +0.012 C 
BRANCH   2   5
ATOM      3  S   UNL     1      34.952 -16.420 -23.055  0.00  0.00    -0.083 S 
ATOM      4  S   UNL     1      34.683 -16.772 -25.057  0.00  0.00    -0.082 S 
ATOM      5  C   UNL     1      34.653 -18.121 -22.484  0.00  0.00    +0.059 C 
ATOM      6  C   UNL     1      35.007 -19.038 -23.658  0.00  0.00    +0.024 C 
ATOM      7  C   UNL     1      34.319 -18.539 -24.924  0.00  0.00    +0.070 C 
ENDBRANCH   2   5
ENDBRANCH   1   2
BRANCH   1   8
ATOM      8  C   UNL     1      34.408 -20.551 -20.222  0.00  0.00    +0.012 C 
BRANCH   8   9
ATOM      9  C   UNL     1      34.805 -21.638 -19.224  0.00  0.00    +0.109 C 
BRANCH   9  11
ATOM     10  O   UNL     1      32.622 -22.397 -18.455  0.00  0.00    -0.250 OA
ATOM     11  C   UNL     1      33.688 -22.634 -19.005  0.00  0.00    +0.314 C 
BRANCH  11  12
ATOM     12  O   UNL     1      34.014 -23.859 -19.496  0.00  0.00    -0.480 OA
ATOM     13  H   UNL     1      34.330 -24.527 -18.919  0.00  0.00    +0.295 HD
ENDBRANCH  11  12
ENDBRANCH   9  11
ENDBRANCH   8   9
ENDBRANCH   1   8
TORSDOF 6
ENDMDL
MODEL 4
REMARK VINA RESULT:      -6.0      2.361      2.725
REMARK  Name = 6112
REMARK  6 active torsions:
REMARK  status: ('A' for Active; 'I' for Inactive)
REMARK    1  A    between atoms: C_1  and  C_2
REMARK    2  A    between atoms: C_1  and  C_8
REMARK    3  A    between atoms: C_2  and  C_5
REMARK    4  A    between atoms: C_8  and  C_9
REMARK    5  A    between atoms: C_9  and  C_11
REMARK    6  A    between atoms: C_11  and  O_12
REMARK                            x       y       z     vdW  Elec       q    Type
REMARK                         _______ _______ _______ _____ _____    ______ ____
ROOT
ATOM      1  C   UNL     1      33.997 -20.461 -20.418  0.00  0.00    +0.001 C 
ENDROOT
BRANCH   1   2
ATOM      2  C   UNL     1      35.002 -19.450 -20.974  0.00  0.00    +0.012 C 
BRANCH   2   5
ATOM      3  S   UNL     1      34.692 -16.813 -21.704  0.00  0.00    -0.083 S 
ATOM      4  S   UNL     1      34.896 -16.166 -23.639  0.00  0.00    -0.082 S 
ATOM      5  C   UNL     1      34.434 -18.575 -22.081  0.00  0.00    +0.059 C 
ATOM      6  C   UNL     1      35.117 -18.831 -23.428  0.00  0.00    +0.024 C 
ATOM      7  C   UNL     1      34.677 -17.775 -24.436  0.00  0.00    +0.070 C 
ENDBRANCH   2   5
ENDBRANCH   1   2
BRANCH   1   8
ATOM      8  C   UNL     1      34.573 -21.510 -19.461  0.00  0.00    +0.012 C 
BRANCH   8   9
ATOM      9  C   UNL     1      36.075 -21.362 -19.230  0.00  0.00    +0.109 C 
BRANCH   9  11
ATOM     10  O   UNL     1      36.109 -22.641 -17.157  0.00  0.00    -0.250 OA
ATOM     11  C   UNL     1      36.456 -21.658 -17.796  0.00  0.00    +0.314 C 
BRANCH  11  12
ATOM     12  O   UNL     1      37.245 -20.678 -17.281  0.00  0.00    -0.480 OA
ATOM     13  H   UNL     1      37.795 -20.859 -16.544  0.00  0.00    +0.295 HD
ENDBRANCH  11  12
ENDBRANCH   9  11
ENDBRANCH   8   9
ENDBRANCH   1   8
TORSDOF 6
ENDMDL
MODEL 5
REMARK VINA RESULT:      -5.9      4.808      6.408
REMARK  Name = 6112
REMARK  6 active torsions:
REMARK  status: ('A' for Active; 'I' for Inactive)
REMARK    1  A    between atoms: C_1  and  C_2
REMARK    2  A    between atoms: C_1  and  C_8
REMARK    3  A    between atoms: C_2  and  C_5
REMARK    4  A    between atoms: C_8  and  C_9
REMARK    5  A    between atoms: C_9  and  C_11
REMARK    6  A    between atoms: C_11  and  O_12
REMARK                            x       y       z     vdW  Elec       q    Type
REMARK                         _______ _______ _______ _____ _____    ______ ____
ROOT
ATOM      1  C   UNL     1      34.598 -17.526 -21.877  0.00  0.00    +0.001 C 
ENDROOT
BRANCH   1   2
ATOM      2  C   UNL     1      34.729 -19.049 -21.955  0.00  0.00    +0.012 C 
BRANCH   2   5
ATOM      3  S   UNL     1      33.116 -20.547 -20.302  0.00  0.00    -0.083 S 
ATOM      4  S   UNL     1      33.826 -22.099 -19.165  0.00  0.00    -0.082 S 
ATOM      5  C   UNL     1      34.715 -19.731 -20.595  0.00  0.00    +0.059 C 
ATOM      6  C   UNL     1      35.782 -20.823 -20.485  0.00  0.00    +0.024 C 
ATOM      7  C   UNL     1      35.570 -21.621 -19.203  0.00  0.00    +0.070 C 
ENDBRANCH   2   5
ENDBRANCH   1   2
BRANCH   1   8
ATOM      8  C   UNL     1      35.289 -16.743 -22.997  0.00  0.00    +0.012 C 
BRANCH   8   9
ATOM      9  C   UNL     1      34.312 -16.018 -23.923  0.00  0.00    +0.109 C 
BRANCH   9  11
ATOM     10  O   UNL     1      34.602 -17.790 -25.570  0.00  0.00    -0.250 OA
ATOM     11  C   UNL     1      34.274 -16.642 -25.300  0.00  0.00    +0.314 C 
BRANCH  11  12
ATOM     12  O   UNL     1      33.826 -15.760 -26.232  0.00  0.00    -0.480 OA
ATOM     13  H   UNL     1      32.906 -15.674 -26.391  0.00  0.00    +0.295 HD
ENDBRANCH  11  12
ENDBRANCH   9  11
ENDBRANCH   8   9
ENDBRANCH   1   8
TORSDOF 6
ENDMDL
MODEL 6
REMARK VINA RESULT:      -5.9      2.098      2.423
REMARK  Name = 6112
REMARK  6 active torsions:
REMARK  status: ('A' for Active; 'I' for Inactive)
REMARK    1  A    between atoms: C_1  and  C_2
REMARK    2  A    between atoms: C_1  and  C_8
REMARK    3  A    between atoms: C_2  and  C_5
REMARK    4  A    between atoms: C_8  and  C_9
REMARK    5  A    between atoms: C_9  and  C_11
REMARK    6  A    between atoms: C_11  and  O_12
REMARK                            x       y       z     vdW  Elec       q    Type
REMARK                         _______ _______ _______ _____ _____    ______ ____
ROOT
ATOM      1  C   UNL     1      34.932 -19.497 -22.485  0.00  0.00    +0.001 C 
ENDROOT
BRANCH   1   2
ATOM      2  C   UNL     1      35.474 -18.288 -23.249  0.00  0.00    +0.012 C 
BRANCH   2   5
ATOM      3  S   UNL     1      34.307 -15.872 -22.633  0.00  0.00    -0.083 S 
ATOM      4  S   UNL     1      33.728 -14.522 -24.063  0.00  0.00    -0.082 S 
ATOM      5  C   UNL     1      34.390 -17.330 -23.719  0.00  0.00    +0.059 C 
ATOM      6  C   UNL     1      34.658 -16.800 -25.130  0.00  0.00    +0.024 C 
ATOM      7  C   UNL     1      33.677 -15.679 -25.453  0.00  0.00    +0.070 C 
ENDBRANCH   2   5
ENDBRANCH   1   2
BRANCH   1   8
ATOM      8  C   UNL     1      34.767 -19.308 -20.973  0.00  0.00    +0.012 C 
BRANCH   8   9
ATOM      9  C   UNL     1      34.790 -20.620 -20.190  0.00  0.00    +0.109 C 
BRANCH   9  11
ATOM     10  O   UNL     1      33.108 -22.289 -19.626  0.00  0.00    -0.250 OA
ATOM     11  C   UNL     1      33.394 -21.136 -19.918  0.00  0.00    +0.314 C 
BRANCH  11  12
ATOM     12  O   UNL     1      32.468 -20.150 -20.043  0.00  0.00    -0.480 OA
ATOM     13  H   UNL     1      31.822 -20.197 -20.722  0.00  0.00    +0.295 HD
ENDBRANCH  11  12
ENDBRANCH   9  11
ENDBRANCH   8   9
ENDBRANCH   1   8
TORSDOF 6
ENDMDL
MODEL 7
REMARK VINA RESULT:      -5.8      7.317      8.780
REMARK  Name = 6112
REMARK  6 active torsions:
REMARK  status: ('A' for Active; 'I' for Inactive)
REMARK    1  A    between atoms: C_1  and  C_2
REMARK    2  A    between atoms: C_1  and  C_8
REMARK    3  A    between atoms: C_2  and  C_5
REMARK    4  A    between atoms: C_8  and  C_9
REMARK    5  A    between atoms: C_9  and  C_11
REMARK    6  A    between atoms: C_11  and  O_12
REMARK                            x       y       z     vdW  Elec       q    Type
REMARK                         _______ _______ _______ _____ _____    ______ ____
ROOT
ATOM      1  C   UNL     1      30.510 -24.901 -14.392  0.00  0.00    +0.001 C 
ENDROOT
BRANCH   1   2
ATOM      2  C   UNL     1      30.953 -23.481 -14.032  0.00  0.00    +0.012 C 
BRANCH   2   5
ATOM      3  S   UNL     1      33.603 -24.147 -13.699  0.00  0.00    -0.083 S 
ATOM      4  S   UNL     1      34.927 -24.252 -15.261  0.00  0.00    -0.082 S 
ATOM      5  C   UNL     1      32.345 -23.132 -14.536  0.00  0.00    +0.059 C 
ATOM      6  C   UNL     1      32.503 -23.402 -16.034  0.00  0.00    +0.024 C 
ATOM      7  C   UNL     1      33.967 -23.260 -16.431  0.00  0.00    +0.070 C 
ENDBRANCH   2   5
ENDBRANCH   1   2
BRANCH   1   8
ATOM      8  C   UNL     1      29.163 -25.014 -15.112  0.00  0.00    +0.012 C 
BRANCH   8   9
ATOM      9  C   UNL     1      28.496 -23.663 -15.367  0.00  0.00    +0.109 C 
BRANCH   9  11
ATOM     10  O   UNL     1      27.678 -23.861 -17.653  0.00  0.00    -0.250 OA
ATOM     11  C   UNL     1      28.430 -23.338 -16.843  0.00  0.00    +0.314 C 
BRANCH  11  12
ATOM     12  O   UNL     1      29.329 -22.376 -17.178  0.00  0.00    -0.480 OA
ATOM     13  H   UNL     1      30.210 -22.612 -17.394  0.00  0.00    +0.295 HD
ENDBRANCH  11  12
ENDBRANCH   9  11
ENDBRANCH   8   9
ENDBRANCH   1   8
TORSDOF 6
ENDMDL
MODEL 8
REMARK VINA RESULT:      -5.8      1.559      2.330
REMARK  Name = 6112
REMARK  6 active torsions:
REMARK  status: ('A' for Active; 'I' for Inactive)
REMARK    1  A    between atoms: C_1  and  C_2
REMARK    2  A    between atoms: C_1  and  C_8
REMARK    3  A    between atoms: C_2  and  C_5
REMARK    4  A    between atoms: C_8  and  C_9
REMARK    5  A    between atoms: C_9  and  C_11
REMARK    6  A    between atoms: C_11  and  O_12
REMARK                            x       y       z     vdW  Elec       q    Type
REMARK                         _______ _______ _______ _____ _____    ______ ____
ROOT
ATOM      1  C   UNL     1      35.054 -18.010 -21.311  0.00  0.00    +0.001 C 
ENDROOT
BRANCH   1   2
ATOM      2  C   UNL     1      34.904 -17.031 -22.478  0.00  0.00    +0.012 C 
BRANCH   2   5
ATOM      3  S   UNL     1      33.837 -14.694 -23.466  0.00  0.00    -0.083 S 
ATOM      4  S   UNL     1      32.478 -13.567 -22.424  0.00  0.00    -0.082 S 
ATOM      5  C   UNL     1      34.485 -15.634 -22.049  0.00  0.00    +0.059 C 
ATOM      6  C   UNL     1      33.367 -15.661 -21.003  0.00  0.00    +0.024 C 
ATOM      7  C   UNL     1      32.832 -14.251 -20.787  0.00  0.00    +0.070 C 
ENDBRANCH   2   5
ENDBRANCH   1   2
BRANCH   1   8
ATOM      8  C   UNL     1      34.552 -19.434 -21.571  0.00  0.00    +0.012 C 
BRANCH   8   9
ATOM      9  C   UNL     1      33.332 -19.811 -20.731  0.00  0.00    +0.109 C 
BRANCH   9  11
ATOM     10  O   UNL     1      32.743 -21.865 -19.562  0.00  0.00    -0.250 OA
ATOM     11  C   UNL     1      33.586 -21.042 -19.890  0.00  0.00    +0.314 C 
BRANCH  11  12
ATOM     12  O   UNL     1      34.892 -21.133 -19.526  0.00  0.00    -0.480 OA
ATOM     13  H   UNL     1      35.557 -21.218 -20.181  0.00  0.00    +0.295 HD
ENDBRANCH  11  12
ENDBRANCH   9  11
ENDBRANCH   8   9
ENDBRANCH   1   8
TORSDOF 6
ENDMDL
MODEL 9
REMARK VINA RESULT:      -5.6      7.404      8.340
REMARK  Name = 6112
REMARK  6 active torsions:
REMARK  status: ('A' for Active; 'I' for Inactive)
REMARK    1  A    between atoms: C_1  and  C_2
REMARK    2  A    between atoms: C_1  and  C_8
REMARK    3  A    between atoms: C_2  and  C_5
REMARK    4  A    between atoms: C_8  and  C_9
REMARK    5  A    between atoms: C_9  and  C_11
REMARK    6  A    between atoms: C_11  and  O_12
REMARK                            x       y       z     vdW  Elec       q    Type
REMARK                         _______ _______ _______ _____ _____    ______ ____
ROOT
ATOM      1  C   UNL     1      31.132 -23.048 -14.328  0.00  0.00    +0.001 C 
ENDROOT
BRANCH   1   2
ATOM      2  C   UNL     1      32.169 -23.800 -15.166  0.00  0.00    +0.012 C 
BRANCH   2   5
ATOM      3  S   UNL     1      34.605 -24.251 -13.965  0.00  0.00    -0.083 S 
ATOM      4  S   UNL     1      36.391 -23.918 -14.916  0.00  0.00    -0.082 S 
ATOM      5  C   UNL     1      33.573 -23.224 -15.055  0.00  0.00    +0.059 C 
ATOM      6  C   UNL     1      34.288 -23.180 -16.408  0.00  0.00    +0.024 C 
ATOM      7  C   UNL     1      35.754 -22.818 -16.203  0.00  0.00    +0.070 C 
ENDBRANCH   2   5
ENDBRANCH   1   2
BRANCH   1   8
ATOM      8  C   UNL     1      29.827 -22.695 -15.049  0.00  0.00    +0.012 C 
BRANCH   8   9
ATOM      9  C   UNL     1      29.295 -23.826 -15.928  0.00  0.00    +0.109 C 
BRANCH   9  11
ATOM     10  O   UNL     1      27.587 -24.014 -17.656  0.00  0.00    -0.250 OA
ATOM     11  C   UNL     1      28.325 -23.318 -16.972  0.00  0.00    +0.314 C 
BRANCH  11  12
ATOM     12  O   UNL     1      28.369 -21.963 -17.072  0.00  0.00    -0.480 OA
ATOM     13  H   UNL     1      28.983 -21.475 -16.559  0.00  0.00    +0.295 HD
ENDBRANCH  11  12
ENDBRANCH   9  11
ENDBRANCH   8   9
ENDBRANCH   1   8
TORSDOF 6
ENDMDL
