MODEL 1
REMARK VINA RESULT:      -9.8      0.000      0.000
REMARK  Name = 6128
REMARK  0 active torsions:
REMARK  status: ('A' for Active; 'I' for Inactive)
REMARK                            x       y       z     vdW  Elec       q    Type
REMARK                         _______ _______ _______ _____ _____    ______ ____
ROOT
ATOM      1  O   UNL     1      34.486 -24.164 -12.450  0.00  0.00    -0.296 OA
ATOM      2  O   UNL     1      33.927 -18.901 -21.604  0.00  0.00    -0.291 OA
ATOM      3  C   UNL     1      35.848 -22.725 -16.875  0.00  0.00    +0.001 C 
ATOM      4  C   UNL     1      34.423 -22.265 -17.321  0.00  0.00    +0.003 C 
ATOM      5  C   UNL     1      35.864 -22.833 -15.347  0.00  0.00    +0.007 C 
ATOM      6  C   UNL     1      34.845 -23.872 -14.837  0.00  0.00    +0.052 C 
ATOM      7  C   UNL     1      34.301 -22.081 -18.884  0.00  0.00    +0.016 C 
ATOM      8  C   UNL     1      33.302 -23.144 -16.699  0.00  0.00    +0.001 C 
ATOM      9  C   UNL     1      33.449 -23.363 -15.182  0.00  0.00    +0.007 C 
ATOM     10  C   UNL     1      36.904 -21.736 -17.384  0.00  0.00    +0.004 C 
ATOM     11  C   UNL     1      37.157 -23.190 -14.623  0.00  0.00    +0.008 C 
ATOM     12  C   UNL     1      35.471 -21.230 -19.391  0.00  0.00    -0.042 C 
ATOM     13  C   UNL     1      35.231 -23.857 -13.370  0.00  0.00    +0.150 C 
ATOM     14  C   UNL     1      36.849 -21.607 -18.901  0.00  0.00    +0.022 C 
ATOM     15  C   UNL     1      36.681 -23.440 -13.184  0.00  0.00    +0.064 C 
ATOM     16  C   UNL     1      32.953 -21.368 -19.189  0.00  0.00    +0.012 C 
ATOM     17  C   UNL     1      35.053 -25.316 -15.331  0.00  0.00    +0.007 C 
ATOM     18  C   UNL     1      34.331 -23.436 -19.628  0.00  0.00    +0.004 C 
ATOM     19  C   UNL     1      32.868 -20.798 -20.595  0.00  0.00    +0.069 C 
ATOM     20  C   UNL     1      35.337 -20.204 -20.249  0.00  0.00    +0.029 C 
ATOM     21  C   UNL     1      34.027 -19.872 -20.855  0.00  0.00    +0.173 C 
ENDROOT
TORSDOF 0
ENDMDL
MODEL 2
REMARK VINA RESULT:      -9.3      3.463      6.298
REMARK  Name = 6128
REMARK  0 active torsions:
REMARK  status: ('A' for Active; 'I' for Inactive)
REMARK                            x       y       z     vdW  Elec       q    Type
REMARK                         _______ _______ _______ _____ _____    ______ ____
ROOT
ATOM      1  O   UNL     1      29.769 -24.318 -15.154  0.00  0.00    -0.296 OA
ATOM      2  O   UNL     1      40.147 -26.101 -14.192  0.00  0.00    -0.291 OA
ATOM      3  C   UNL     1      34.511 -23.310 -15.247  0.00  0.00    +0.001 C 
ATOM      4  C   UNL     1      34.926 -24.482 -14.300  0.00  0.00    +0.003 C 
ATOM      5  C   UNL     1      33.108 -23.601 -15.789  0.00  0.00    +0.007 C 
ATOM      6  C   UNL     1      32.066 -23.691 -14.656  0.00  0.00    +0.052 C 
ATOM      7  C   UNL     1      36.379 -24.307 -13.711  0.00  0.00    +0.016 C 
ATOM      8  C   UNL     1      33.841 -24.779 -13.227  0.00  0.00    +0.001 C 
ATOM      9  C   UNL     1      32.415 -24.901 -13.797  0.00  0.00    +0.007 C 
ATOM     10  C   UNL     1      35.535 -23.161 -16.379  0.00  0.00    +0.004 C 
ATOM     11  C   UNL     1      32.475 -22.659 -16.806  0.00  0.00    +0.008 C 
ATOM     12  C   UNL     1      37.356 -23.985 -14.848  0.00  0.00    -0.042 C 
ATOM     13  C   UNL     1      30.819 -23.803 -15.514  0.00  0.00    +0.150 C 
ATOM     14  C   UNL     1      36.933 -22.914 -15.826  0.00  0.00    +0.022 C 
ATOM     15  C   UNL     1      31.025 -23.160 -16.875  0.00  0.00    +0.064 C 
ATOM     16  C   UNL     1      36.789 -25.638 -13.018  0.00  0.00    +0.012 C 
ATOM     17  C   UNL     1      31.895 -22.424 -13.797  0.00  0.00    +0.007 C 
ATOM     18  C   UNL     1      36.448 -23.161 -12.676  0.00  0.00    +0.004 C 
ATOM     19  C   UNL     1      38.279 -25.745 -12.736  0.00  0.00    +0.069 C 
ATOM     20  C   UNL     1      38.553 -24.578 -15.001  0.00  0.00    +0.029 C 
ATOM     21  C   UNL     1      39.068 -25.543 -14.003  0.00  0.00    +0.173 C 
ENDROOT
TORSDOF 0
ENDMDL
MODEL 3
REMARK VINA RESULT:      -8.4     14.725     19.061
REMARK  Name = 6128
REMARK  0 active torsions:
REMARK  status: ('A' for Active; 'I' for Inactive)
REMARK                            x       y       z     vdW  Elec       q    Type
REMARK                         _______ _______ _______ _____ _____    ______ ____
ROOT
ATOM      1  O   UNL     1      30.561  -1.924 -27.107  0.00  0.00    -0.296 OA
ATOM      2  O   UNL     1      32.786 -11.457 -23.110  0.00  0.00    -0.291 OA
ATOM      3  C   UNL     1      33.230  -5.385 -25.006  0.00  0.00    +0.001 C 
ATOM      4  C   UNL     1      32.010  -6.232 -24.521  0.00  0.00    +0.003 C 
ATOM      5  C   UNL     1      32.748  -4.430 -26.102  0.00  0.00    +0.007 C 
ATOM      6  C   UNL     1      31.670  -3.458 -25.579  0.00  0.00    +0.052 C 
ATOM      7  C   UNL     1      32.400  -7.285 -23.412  0.00  0.00    +0.016 C 
ATOM      8  C   UNL     1      30.791  -5.342 -24.146  0.00  0.00    +0.001 C 
ATOM      9  C   UNL     1      30.442  -4.282 -25.207  0.00  0.00    +0.007 C 
ATOM     10  C   UNL     1      34.344  -6.309 -25.511  0.00  0.00    +0.004 C 
ATOM     11  C   UNL     1      33.747  -3.529 -26.820  0.00  0.00    +0.008 C 
ATOM     12  C   UNL     1      33.628  -8.080 -23.871  0.00  0.00    -0.042 C 
ATOM     13  C   UNL     1      31.551  -2.579 -26.811  0.00  0.00    +0.150 C 
ATOM     14  C   UNL     1      34.785  -7.282 -24.425  0.00  0.00    +0.022 C 
ATOM     15  C   UNL     1      32.837  -2.585 -27.621  0.00  0.00    +0.064 C 
ATOM     16  C   UNL     1      31.193  -8.245 -23.203  0.00  0.00    +0.012 C 
ATOM     17  C   UNL     1      32.099  -2.537 -24.422  0.00  0.00    +0.007 C 
ATOM     18  C   UNL     1      32.739  -6.606 -22.065  0.00  0.00    +0.004 C 
ATOM     19  C   UNL     1      31.548  -9.516 -22.450  0.00  0.00    +0.069 C 
ATOM     20  C   UNL     1      33.733  -9.416 -23.784  0.00  0.00    +0.029 C 
ATOM     21  C   UNL     1      32.681 -10.233 -23.136  0.00  0.00    +0.173 C 
ENDROOT
TORSDOF 0
ENDMDL
MODEL 4
REMARK VINA RESULT:      -8.2      6.337      9.773
REMARK  Name = 6128
REMARK  0 active torsions:
REMARK  status: ('A' for Active; 'I' for Inactive)
REMARK                            x       y       z     vdW  Elec       q    Type
REMARK                         _______ _______ _______ _____ _____    ______ ____
ROOT
ATOM      1  O   UNL     1      35.800 -19.114 -20.294  0.00  0.00    -0.296 OA
ATOM      2  O   UNL     1      34.427 -10.264 -25.916  0.00  0.00    -0.291 OA
ATOM      3  C   UNL     1      33.891 -16.211 -23.676  0.00  0.00    +0.001 C 
ATOM      4  C   UNL     1      34.327 -14.879 -22.985  0.00  0.00    +0.003 C 
ATOM      5  C   UNL     1      34.725 -17.354 -23.090  0.00  0.00    +0.007 C 
ATOM      6  C   UNL     1      34.496 -17.507 -21.572  0.00  0.00    +0.052 C 
ATOM      7  C   UNL     1      33.557 -13.621 -23.544  0.00  0.00    +0.016 C 
ATOM      8  C   UNL     1      34.313 -14.992 -21.435  0.00  0.00    +0.001 C 
ATOM      9  C   UNL     1      35.022 -16.247 -20.894  0.00  0.00    +0.007 C 
ATOM     10  C   UNL     1      34.073 -16.100 -25.195  0.00  0.00    +0.004 C 
ATOM     11  C   UNL     1      34.567 -18.769 -23.636  0.00  0.00    +0.008 C 
ATOM     12  C   UNL     1      33.606 -13.629 -25.076  0.00  0.00    -0.042 C 
ATOM     13  C   UNL     1      35.294 -18.780 -21.357  0.00  0.00    +0.150 C 
ATOM     14  C   UNL     1      33.272 -14.934 -25.760  0.00  0.00    +0.022 C 
ATOM     15  C   UNL     1      35.362 -19.612 -22.627  0.00  0.00    +0.064 C 
ATOM     16  C   UNL     1      34.251 -12.340 -22.996  0.00  0.00    +0.012 C 
ATOM     17  C   UNL     1      33.051 -17.817 -21.137  0.00  0.00    +0.007 C 
ATOM     18  C   UNL     1      32.073 -13.612 -23.109  0.00  0.00    +0.004 C 
ATOM     19  C   UNL     1      33.858 -11.070 -23.734  0.00  0.00    +0.069 C 
ATOM     20  C   UNL     1      33.902 -12.552 -25.824  0.00  0.00    +0.029 C 
ATOM     21  C   UNL     1      34.116 -11.221 -25.210  0.00  0.00    +0.173 C 
ENDROOT
TORSDOF 0
ENDMDL
MODEL 5
REMARK VINA RESULT:      -8.2      3.115      4.743
REMARK  Name = 6128
REMARK  0 active torsions:
REMARK  status: ('A' for Active; 'I' for Inactive)
REMARK                            x       y       z     vdW  Elec       q    Type
REMARK                         _______ _______ _______ _____ _____    ______ ____
ROOT
ATOM      1  O   UNL     1      37.969 -23.566 -12.849  0.00  0.00    -0.296 OA
ATOM      2  O   UNL     1      27.954 -21.847 -15.776  0.00  0.00    -0.291 OA
ATOM      3  C   UNL     1      34.083 -23.610 -15.749  0.00  0.00    +0.001 C 
ATOM      4  C   UNL     1      33.040 -23.471 -14.594  0.00  0.00    +0.003 C 
ATOM      5  C   UNL     1      35.454 -23.184 -15.215  0.00  0.00    +0.007 C 
ATOM      6  C   UNL     1      35.914 -24.079 -14.045  0.00  0.00    +0.052 C 
ATOM      7  C   UNL     1      31.576 -23.848 -15.044  0.00  0.00    +0.016 C 
ATOM      8  C   UNL     1      33.506 -24.187 -13.295  0.00  0.00    +0.001 C 
ATOM      9  C   UNL     1      34.953 -23.856 -12.883  0.00  0.00    +0.007 C 
ATOM     10  C   UNL     1      33.655 -22.759 -16.950  0.00  0.00    +0.004 C 
ATOM     11  C   UNL     1      36.656 -23.145 -16.151  0.00  0.00    +0.008 C 
ATOM     12  C   UNL     1      31.236 -23.114 -16.347  0.00  0.00    -0.042 C 
ATOM     13  C   UNL     1      37.317 -23.523 -13.883  0.00  0.00    +0.150 C 
ATOM     14  C   UNL     1      32.272 -23.164 -17.445  0.00  0.00    +0.022 C 
ATOM     15  C   UNL     1      37.831 -22.930 -15.185  0.00  0.00    +0.064 C 
ATOM     16  C   UNL     1      30.592 -23.416 -13.918  0.00  0.00    +0.012 C 
ATOM     17  C   UNL     1      36.070 -25.577 -14.365  0.00  0.00    +0.007 C 
ATOM     18  C   UNL     1      31.420 -25.366 -15.290  0.00  0.00    +0.004 C 
ATOM     19  C   UNL     1      29.138 -23.374 -14.362  0.00  0.00    +0.069 C 
ATOM     20  C   UNL     1      30.080 -22.463 -16.563  0.00  0.00    +0.029 C 
ATOM     21  C   UNL     1      28.983 -22.487 -15.568  0.00  0.00    +0.173 C 
ENDROOT
TORSDOF 0
ENDMDL
MODEL 6
REMARK VINA RESULT:      -8.0     15.406     19.783
REMARK  Name = 6128
REMARK  0 active torsions:
REMARK  status: ('A' for Active; 'I' for Inactive)
REMARK                            x       y       z     vdW  Elec       q    Type
REMARK                         _______ _______ _______ _____ _____    ______ ____
ROOT
ATOM      1  O   UNL     1      35.180  -3.047 -28.636  0.00  0.00    -0.296 OA
ATOM      2  O   UNL     1      32.450  -7.618 -19.501  0.00  0.00    -0.291 OA
ATOM      3  C   UNL     1      32.244  -4.515 -25.068  0.00  0.00    +0.001 C 
ATOM      4  C   UNL     1      33.208  -5.623 -24.534  0.00  0.00    +0.003 C 
ATOM      5  C   UNL     1      33.054  -3.547 -25.935  0.00  0.00    +0.007 C 
ATOM      6  C   UNL     1      33.683  -4.258 -27.151  0.00  0.00    +0.052 C 
ATOM      7  C   UNL     1      32.485  -6.660 -23.591  0.00  0.00    +0.016 C 
ATOM      8  C   UNL     1      34.037  -6.277 -25.676  0.00  0.00    +0.001 C 
ATOM      9  C   UNL     1      34.702  -5.263 -26.625  0.00  0.00    +0.007 C 
ATOM     10  C   UNL     1      31.569  -3.795 -23.895  0.00  0.00    +0.004 C 
ATOM     11  C   UNL     1      32.382  -2.314 -26.530  0.00  0.00    +0.008 C 
ATOM     12  C   UNL     1      31.675  -5.907 -22.529  0.00  0.00    -0.042 C 
ATOM     13  C   UNL     1      34.236  -3.035 -27.858  0.00  0.00    +0.150 C 
ATOM     14  C   UNL     1      30.802  -4.775 -23.016  0.00  0.00    +0.022 C 
ATOM     15  C   UNL     1      33.445  -1.786 -27.504  0.00  0.00    +0.064 C 
ATOM     16  C   UNL     1      33.572  -7.539 -22.907  0.00  0.00    +0.012 C 
ATOM     17  C   UNL     1      32.694  -4.921 -28.128  0.00  0.00    +0.007 C 
ATOM     18  C   UNL     1      31.519  -7.577 -24.375  0.00  0.00    +0.004 C 
ATOM     19  C   UNL     1      33.059  -8.320 -21.708  0.00  0.00    +0.069 C 
ATOM     20  C   UNL     1      31.684  -6.213 -21.220  0.00  0.00    +0.029 C 
ATOM     21  C   UNL     1      32.426  -7.389 -20.708  0.00  0.00    +0.173 C 
ENDROOT
TORSDOF 0
ENDMDL
MODEL 7
REMARK VINA RESULT:      -7.9     13.647     17.915
REMARK  Name = 6128
REMARK  0 active torsions:
REMARK  status: ('A' for Active; 'I' for Inactive)
REMARK                            x       y       z     vdW  Elec       q    Type
REMARK                         _______ _______ _______ _____ _____    ______ ____
ROOT
ATOM      1  O   UNL     1      30.072  -2.725 -25.546  0.00  0.00    -0.296 OA
ATOM      2  O   UNL     1      33.243 -12.597 -23.474  0.00  0.00    -0.291 OA
ATOM      3  C   UNL     1      33.145  -6.282 -24.357  0.00  0.00    +0.001 C 
ATOM      4  C   UNL     1      32.036  -7.281 -23.893  0.00  0.00    +0.003 C 
ATOM      5  C   UNL     1      32.489  -5.199 -25.218  0.00  0.00    +0.007 C 
ATOM      6  C   UNL     1      31.431  -4.403 -24.426  0.00  0.00    +0.052 C 
ATOM      7  C   UNL     1      32.608  -8.469 -23.026  0.00  0.00    +0.016 C 
ATOM      8  C   UNL     1      30.825  -6.552 -23.246  0.00  0.00    +0.001 C 
ATOM      9  C   UNL     1      30.300  -5.361 -24.070  0.00  0.00    +0.007 C 
ATOM     10  C   UNL     1      34.239  -7.031 -25.127  0.00  0.00    +0.004 C 
ATOM     11  C   UNL     1      33.348  -4.126 -25.876  0.00  0.00    +0.008 C 
ATOM     12  C   UNL     1      33.814  -9.090 -23.741  0.00  0.00    -0.042 C 
ATOM     13  C   UNL     1      31.123  -3.347 -25.472  0.00  0.00    +0.150 C 
ATOM     14  C   UNL     1      34.854  -8.134 -24.274  0.00  0.00    +0.022 C 
ATOM     15  C   UNL     1      32.304  -3.132 -26.405  0.00  0.00    +0.064 C 
ATOM     16  C   UNL     1      31.485  -9.533 -22.854  0.00  0.00    +0.012 C 
ATOM     17  C   UNL     1      31.944  -3.653 -23.183  0.00  0.00    +0.007 C 
ATOM     18  C   UNL     1      33.067  -7.994 -21.628  0.00  0.00    +0.004 C 
ATOM     19  C   UNL     1      31.992 -10.881 -22.368  0.00  0.00    +0.069 C 
ATOM     20  C   UNL     1      33.998 -10.412 -23.892  0.00  0.00    +0.029 C 
ATOM     21  C   UNL     1      33.072 -11.395 -23.282  0.00  0.00    +0.173 C 
ENDROOT
TORSDOF 0
ENDMDL
MODEL 8
REMARK VINA RESULT:      -7.5      9.311     13.642
REMARK  Name = 6128
REMARK  0 active torsions:
REMARK  status: ('A' for Active; 'I' for Inactive)
REMARK                            x       y       z     vdW  Elec       q    Type
REMARK                         _______ _______ _______ _____ _____    ______ ____
ROOT
ATOM      1  O   UNL     1      33.444  -6.286 -23.344  0.00  0.00    -0.296 OA
ATOM      2  O   UNL     1      34.542 -16.584 -21.208  0.00  0.00    -0.291 OA
ATOM      3  C   UNL     1      32.145 -10.707 -21.836  0.00  0.00    +0.001 C 
ATOM      4  C   UNL     1      33.257 -11.464 -22.632  0.00  0.00    +0.003 C 
ATOM      5  C   UNL     1      32.541  -9.231 -21.738  0.00  0.00    +0.007 C 
ATOM      6  C   UNL     1      32.658  -8.578 -23.131  0.00  0.00    +0.052 C 
ATOM      7  C   UNL     1      32.972 -13.010 -22.761  0.00  0.00    +0.016 C 
ATOM      8  C   UNL     1      33.587 -10.767 -23.982  0.00  0.00    +0.001 C 
ATOM      9  C   UNL     1      33.816  -9.249 -23.862  0.00  0.00    +0.007 C 
ATOM     10  C   UNL     1      31.969 -11.339 -20.450  0.00  0.00    +0.004 C 
ATOM     11  C   UNL     1      31.674  -8.262 -20.943  0.00  0.00    +0.008 C 
ATOM     12  C   UNL     1      32.627 -13.583 -21.382  0.00  0.00    -0.042 C 
ATOM     13  C   UNL     1      32.876  -7.145 -22.683  0.00  0.00    +0.150 C 
ATOM     14  C   UNL     1      31.617 -12.817 -20.560  0.00  0.00    +0.022 C 
ATOM     15  C   UNL     1      32.267  -6.895 -21.313  0.00  0.00    +0.064 C 
ATOM     16  C   UNL     1      34.252 -13.698 -23.319  0.00  0.00    +0.012 C 
ATOM     17  C   UNL     1      31.377  -8.581 -23.986  0.00  0.00    +0.007 C 
ATOM     18  C   UNL     1      31.791 -13.301 -23.714  0.00  0.00    +0.004 C 
ATOM     19  C   UNL     1      34.256 -15.208 -23.147  0.00  0.00    +0.069 C 
ATOM     20  C   UNL     1      33.149 -14.720 -20.889  0.00  0.00    +0.029 C 
ATOM     21  C   UNL     1      34.047 -15.572 -21.701  0.00  0.00    +0.173 C 
ENDROOT
TORSDOF 0
ENDMDL
MODEL 9
REMARK VINA RESULT:      -7.1      0.954      6.559
REMARK  Name = 6128
REMARK  0 active torsions:
REMARK  status: ('A' for Active; 'I' for Inactive)
REMARK                            x       y       z     vdW  Elec       q    Type
REMARK                         _______ _______ _______ _____ _____    ______ ____
ROOT
ATOM      1  O   UNL     1      35.566 -19.817 -20.844  0.00  0.00    -0.296 OA
ATOM      2  O   UNL     1      34.887 -24.064 -11.184  0.00  0.00    -0.291 OA
ATOM      3  C   UNL     1      34.030 -22.848 -17.386  0.00  0.00    +0.001 C 
ATOM      4  C   UNL     1      35.261 -22.633 -16.448  0.00  0.00    +0.003 C 
ATOM      5  C   UNL     1      33.978 -21.691 -18.388  0.00  0.00    +0.007 C 
ATOM      6  C   UNL     1      35.244 -21.641 -19.267  0.00  0.00    +0.052 C 
ATOM      7  C   UNL     1      35.391 -23.752 -15.344  0.00  0.00    +0.016 C 
ATOM      8  C   UNL     1      36.569 -22.380 -17.249  0.00  0.00    +0.001 C 
ATOM      9  C   UNL     1      36.428 -21.323 -18.360  0.00  0.00    +0.007 C 
ATOM     10  C   UNL     1      32.744 -22.935 -16.554  0.00  0.00    +0.004 C 
ATOM     11  C   UNL     1      32.827 -21.598 -19.384  0.00  0.00    +0.008 C 
ATOM     12  C   UNL     1      34.040 -23.939 -14.644  0.00  0.00    -0.042 C 
ATOM     13  C   UNL     1      34.805 -20.545 -20.221  0.00  0.00    +0.150 C 
ATOM     14  C   UNL     1      32.825 -24.062 -15.533  0.00  0.00    +0.022 C 
ATOM     15  C   UNL     1      33.291 -20.483 -20.333  0.00  0.00    +0.064 C 
ATOM     16  C   UNL     1      36.465 -23.299 -14.313  0.00  0.00    +0.012 C 
ATOM     17  C   UNL     1      35.516 -22.888 -20.128  0.00  0.00    +0.007 C 
ATOM     18  C   UNL     1      35.816 -25.111 -15.946  0.00  0.00    +0.004 C 
ATOM     19  C   UNL     1      36.433 -24.085 -13.013  0.00  0.00    +0.069 C 
ATOM     20  C   UNL     1      33.889 -24.022 -13.311  0.00  0.00    +0.029 C 
ATOM     21  C   UNL     1      35.059 -24.031 -12.401  0.00  0.00    +0.173 C 
ENDROOT
TORSDOF 0
ENDMDL
