MODEL 1
REMARK VINA RESULT:      -5.9      0.000      0.000
REMARK  Name = 25203300
REMARK  5 active torsions:
REMARK  status: ('A' for Active; 'I' for Inactive)
REMARK    1  A    between atoms: CA_1  and  N_2
REMARK    2  A    between atoms: CA_1  and  C_8
REMARK    3  A    between atoms: CA_1  and  C_9
REMARK    4  A    between atoms: C_9  and  C_10
REMARK    5  A    between atoms: C_10  and  C_13
REMARK                            x       y       z     vdW  Elec       q    Type
REMARK                         _______ _______ _______ _____ _____    ______ ____
ROOT
ATOM      1  CA  UNL     1      38.653 -25.537 -14.630  0.00  0.00    +0.041 C 
ENDROOT
BRANCH   1   2
ATOM      2  N   UNL     1      38.161 -26.927 -14.374  0.00  0.00    +0.389 N 
ATOM      3  H1  UNL     1      37.247 -27.051 -14.812  0.00  0.00    -0.088 HD
ATOM      4  H2  UNL     1      38.081 -27.081 -13.369  0.00  0.00    -0.088 HD
ATOM      5  H3  UNL     1      38.820 -27.598 -14.769  0.00  0.00    -0.088 HD
ENDBRANCH   1   2
BRANCH   1   8
ATOM      6  O   UNL     1      40.589 -26.104 -15.873  0.00  0.00    -0.248 OA
ATOM      7  OXT UNL     1      40.819 -24.731 -14.066  0.00  0.00    -0.248 OA
ATOM      8  C   UNL     1      40.167 -25.438 -14.884  0.00  0.00    +0.345 C 
ENDBRANCH   1   8
BRANCH   1   9
ATOM      9  C   UNL     1      38.110 -24.642 -13.507  0.00  0.00    -0.001 C 
BRANCH   9  10
ATOM     10  C   UNL     1      37.494 -25.405 -12.331  0.00  0.00    +0.083 C 
BRANCH  10  13
ATOM     11  O   UNL     1      35.512 -25.048 -10.985  0.00  0.00    -0.275 OA
ATOM     12  N   UNL     1      35.409 -24.670 -13.276  0.00  0.00    -0.303 N 
ATOM     13  C   UNL     1      36.041 -25.027 -12.094  0.00  0.00    +0.222 C 
ATOM     14  C   UNL     1      34.023 -24.270 -13.345  0.00  0.00    +0.111 C 
ATOM     15  H   UNL     1      35.933 -24.688 -14.110  0.00  0.00    +0.149 HD
ENDBRANCH  10  13
ENDBRANCH   9  10
ENDBRANCH   1   9
TORSDOF 5
ENDMDL
MODEL 2
REMARK VINA RESULT:      -5.8      6.705      9.264
REMARK  Name = 25203300
REMARK  5 active torsions:
REMARK  status: ('A' for Active; 'I' for Inactive)
REMARK    1  A    between atoms: CA_1  and  N_2
REMARK    2  A    between atoms: CA_1  and  C_8
REMARK    3  A    between atoms: CA_1  and  C_9
REMARK    4  A    between atoms: C_9  and  C_10
REMARK    5  A    between atoms: C_10  and  C_13
REMARK                            x       y       z     vdW  Elec       q    Type
REMARK                         _______ _______ _______ _____ _____    ______ ____
ROOT
ATOM      1  CA  UNL     1      29.532 -23.402 -16.074  0.00  0.00    +0.041 C 
ENDROOT
BRANCH   1   2
ATOM      2  N   UNL     1      29.827 -24.867 -15.975  0.00  0.00    +0.389 N 
ATOM      3  H1  UNL     1      29.305 -25.368 -16.694  0.00  0.00    -0.088 HD
ATOM      4  H2  UNL     1      29.552 -25.207 -15.053  0.00  0.00    -0.088 HD
ATOM      5  H3  UNL     1      30.825 -25.021 -16.110  0.00  0.00    -0.088 HD
ENDBRANCH   1   2
BRANCH   1   8
ATOM      6  O   UNL     1      27.746 -24.048 -17.490  0.00  0.00    -0.248 OA
ATOM      7  OXT UNL     1      27.972 -21.841 -16.961  0.00  0.00    -0.248 OA
ATOM      8  C   UNL     1      28.290 -23.062 -16.916  0.00  0.00    +0.345 C 
ENDBRANCH   1   8
BRANCH   1   9
ATOM      9  C   UNL     1      30.831 -22.698 -16.493  0.00  0.00    -0.001 C 
BRANCH   9  10
ATOM     10  C   UNL     1      32.099 -23.530 -16.279  0.00  0.00    +0.083 C 
BRANCH  10  13
ATOM     11  O   UNL     1      34.375 -23.489 -17.105  0.00  0.00    -0.275 OA
ATOM     12  N   UNL     1      32.707 -22.428 -18.328  0.00  0.00    -0.303 N 
ATOM     13  C   UNL     1      33.200 -23.165 -17.261  0.00  0.00    +0.222 C 
ATOM     14  C   UNL     1      33.536 -21.943 -19.407  0.00  0.00    +0.111 C 
ATOM     15  H   UNL     1      31.744 -22.226 -18.351  0.00  0.00    +0.149 HD
ENDBRANCH  10  13
ENDBRANCH   9  10
ENDBRANCH   1   9
TORSDOF 5
ENDMDL
MODEL 3
REMARK VINA RESULT:      -5.7      5.862      8.697
REMARK  Name = 25203300
REMARK  5 active torsions:
REMARK  status: ('A' for Active; 'I' for Inactive)
REMARK    1  A    between atoms: CA_1  and  N_2
REMARK    2  A    between atoms: CA_1  and  C_8
REMARK    3  A    between atoms: CA_1  and  C_9
REMARK    4  A    between atoms: C_9  and  C_10
REMARK    5  A    between atoms: C_10  and  C_13
REMARK                            x       y       z     vdW  Elec       q    Type
REMARK                         _______ _______ _______ _____ _____    ______ ____
ROOT
ATOM      1  CA  UNL     1      29.185 -23.495 -15.585  0.00  0.00    +0.041 C 
ENDROOT
BRANCH   1   2
ATOM      2  N   UNL     1      28.942 -24.863 -15.028  0.00  0.00    +0.389 N 
ATOM      3  H1  UNL     1      29.693 -25.488 -15.322  0.00  0.00    -0.088 HD
ATOM      4  H2  UNL     1      28.050 -25.217 -15.372  0.00  0.00    -0.088 HD
ATOM      5  H3  UNL     1      28.920 -24.815 -14.010  0.00  0.00    -0.088 HD
ENDBRANCH   1   2
BRANCH   1   8
ATOM      6  O   UNL     1      27.818 -24.150 -17.406  0.00  0.00    -0.248 OA
ATOM      7  OXT UNL     1      28.269 -21.932 -17.127  0.00  0.00    -0.248 OA
ATOM      8  C   UNL     1      28.334 -23.155 -16.821  0.00  0.00    +0.345 C 
ENDBRANCH   1   8
BRANCH   1   9
ATOM      9  C   UNL     1      30.702 -23.330 -15.759  0.00  0.00    -0.001 C 
BRANCH   9  10
ATOM     10  C   UNL     1      31.419 -22.749 -14.537  0.00  0.00    +0.083 C 
BRANCH  10  13
ATOM     11  O   UNL     1      31.734 -24.825 -13.331  0.00  0.00    -0.275 OA
ATOM     12  N   UNL     1      33.563 -23.437 -13.692  0.00  0.00    -0.303 N 
ATOM     13  C   UNL     1      32.227 -23.797 -13.789  0.00  0.00    +0.222 C 
ATOM     14  C   UNL     1      34.556 -24.247 -13.026  0.00  0.00    +0.111 C 
ATOM     15  H   UNL     1      33.848 -22.586 -14.098  0.00  0.00    +0.149 HD
ENDBRANCH  10  13
ENDBRANCH   9  10
ENDBRANCH   1   9
TORSDOF 5
ENDMDL
MODEL 4
REMARK VINA RESULT:      -5.7      2.122      4.443
REMARK  Name = 25203300
REMARK  5 active torsions:
REMARK  status: ('A' for Active; 'I' for Inactive)
REMARK    1  A    between atoms: CA_1  and  N_2
REMARK    2  A    between atoms: CA_1  and  C_8
REMARK    3  A    between atoms: CA_1  and  C_9
REMARK    4  A    between atoms: C_9  and  C_10
REMARK    5  A    between atoms: C_10  and  C_13
REMARK                            x       y       z     vdW  Elec       q    Type
REMARK                         _______ _______ _______ _____ _____    ______ ____
ROOT
ATOM      1  CA  UNL     1      36.425 -24.057 -12.681  0.00  0.00    +0.041 C 
ENDROOT
BRANCH   1   2
ATOM      2  N   UNL     1      35.078 -23.543 -12.276  0.00  0.00    +0.389 N 
ATOM      3  H1  UNL     1      34.461 -24.329 -12.074  0.00  0.00    -0.088 HD
ATOM      4  H2  UNL     1      34.684 -22.987 -13.036  0.00  0.00    -0.088 HD
ATOM      5  H3  UNL     1      35.173 -22.962 -11.444  0.00  0.00    -0.088 HD
ENDBRANCH   1   2
BRANCH   1   8
ATOM      6  O   UNL     1      37.284 -22.454 -11.163  0.00  0.00    -0.248 OA
ATOM      7  OXT UNL     1      38.749 -23.844 -12.221  0.00  0.00    -0.248 OA
ATOM      8  C   UNL     1      37.602 -23.395 -11.944  0.00  0.00    +0.345 C 
ENDBRANCH   1   8
BRANCH   1   9
ATOM      9  C   UNL     1      36.494 -24.014 -14.214  0.00  0.00    -0.001 C 
BRANCH   9  10
ATOM     10  C   UNL     1      36.516 -25.390 -14.886  0.00  0.00    +0.083 C 
BRANCH  10  13
ATOM     11  O   UNL     1      38.060 -27.233 -14.603  0.00  0.00    -0.275 OA
ATOM     12  N   UNL     1      38.898 -25.113 -15.053  0.00  0.00    -0.303 N 
ATOM     13  C   UNL     1      37.890 -26.038 -14.828  0.00  0.00    +0.222 C 
ATOM     14  C   UNL     1      40.302 -25.454 -15.049  0.00  0.00    +0.111 C 
ATOM     15  H   UNL     1      38.645 -24.177 -15.224  0.00  0.00    +0.149 HD
ENDBRANCH  10  13
ENDBRANCH   9  10
ENDBRANCH   1   9
TORSDOF 5
ENDMDL
MODEL 5
REMARK VINA RESULT:      -5.5      2.583      2.867
REMARK  Name = 25203300
REMARK  5 active torsions:
REMARK  status: ('A' for Active; 'I' for Inactive)
REMARK    1  A    between atoms: CA_1  and  N_2
REMARK    2  A    between atoms: CA_1  and  C_8
REMARK    3  A    between atoms: CA_1  and  C_9
REMARK    4  A    between atoms: C_9  and  C_10
REMARK    5  A    between atoms: C_10  and  C_13
REMARK                            x       y       z     vdW  Elec       q    Type
REMARK                         _______ _______ _______ _____ _____    ______ ____
ROOT
ATOM      1  CA  UNL     1      38.219 -25.950 -14.796  0.00  0.00    +0.041 C 
ENDROOT
BRANCH   1   2
ATOM      2  N   UNL     1      38.767 -24.686 -15.381  0.00  0.00    +0.389 N 
ATOM      3  H1  UNL     1      38.848 -24.786 -16.393  0.00  0.00    -0.088 HD
ATOM      4  H2  UNL     1      39.687 -24.498 -14.982  0.00  0.00    -0.088 HD
ATOM      5  H3  UNL     1      38.139 -23.913 -15.165  0.00  0.00    -0.088 HD
ENDBRANCH   1   2
BRANCH   1   8
ATOM      6  O   UNL     1      36.696 -27.234 -16.079  0.00  0.00    -0.248 OA
ATOM      7  OXT UNL     1      35.872 -25.566 -14.759  0.00  0.00    -0.248 OA
ATOM      8  C   UNL     1      36.787 -26.287 -15.247  0.00  0.00    +0.345 C 
ENDBRANCH   1   8
BRANCH   1   9
ATOM      9  C   UNL     1      38.439 -25.890 -13.278  0.00  0.00    -0.001 C 
BRANCH   9  10
ATOM     10  C   UNL     1      38.799 -24.500 -12.745  0.00  0.00    +0.083 C 
BRANCH  10  13
ATOM     11  O   UNL     1      37.788 -22.818 -11.327  0.00  0.00    -0.275 OA
ATOM     12  N   UNL     1      36.590 -24.744 -11.830  0.00  0.00    -0.303 N 
ATOM     13  C   UNL     1      37.692 -23.905 -11.890  0.00  0.00    +0.222 C 
ATOM     14  C   UNL     1      35.394 -24.431 -11.081  0.00  0.00    +0.111 C 
ATOM     15  H   UNL     1      36.623 -25.596 -12.323  0.00  0.00    +0.149 HD
ENDBRANCH  10  13
ENDBRANCH   9  10
ENDBRANCH   1   9
TORSDOF 5
ENDMDL
MODEL 6
REMARK VINA RESULT:      -5.5      1.761      4.874
REMARK  Name = 25203300
REMARK  5 active torsions:
REMARK  status: ('A' for Active; 'I' for Inactive)
REMARK    1  A    between atoms: CA_1  and  N_2
REMARK    2  A    between atoms: CA_1  and  C_8
REMARK    3  A    between atoms: CA_1  and  C_9
REMARK    4  A    between atoms: C_9  and  C_10
REMARK    5  A    between atoms: C_10  and  C_13
REMARK                            x       y       z     vdW  Elec       q    Type
REMARK                         _______ _______ _______ _____ _____    ______ ____
ROOT
ATOM      1  CA  UNL     1      35.676 -24.226 -12.275  0.00  0.00    +0.041 C 
ENDROOT
BRANCH   1   2
ATOM      2  N   UNL     1      36.068 -23.041 -13.102  0.00  0.00    +0.389 N 
ATOM      3  H1  UNL     1      35.293 -22.379 -13.135  0.00  0.00    -0.088 HD
ATOM      4  H2  UNL     1      36.298 -23.346 -14.048  0.00  0.00    -0.088 HD
ATOM      5  H3  UNL     1      36.882 -22.590 -12.683  0.00  0.00    -0.088 HD
ENDBRANCH   1   2
BRANCH   1   8
ATOM      6  O   UNL     1      35.331 -24.819 -10.008  0.00  0.00    -0.248 OA
ATOM      7  OXT UNL     1      36.934 -23.273 -10.495  0.00  0.00    -0.248 OA
ATOM      8  C   UNL     1      36.022 -24.098 -10.781  0.00  0.00    +0.345 C 
ENDBRANCH   1   8
BRANCH   1   9
ATOM      9  C   UNL     1      36.221 -25.478 -12.977  0.00  0.00    -0.001 C 
BRANCH   9  10
ATOM     10  C   UNL     1      37.566 -25.972 -12.436  0.00  0.00    +0.083 C 
BRANCH  10  13
ATOM     11  O   UNL     1      39.134 -24.178 -12.865  0.00  0.00    -0.275 OA
ATOM     12  N   UNL     1      39.304 -26.147 -14.088  0.00  0.00    -0.303 N 
ATOM     13  C   UNL     1      38.746 -25.313 -13.131  0.00  0.00    +0.222 C 
ATOM     14  C   UNL     1      40.435 -25.772 -14.905  0.00  0.00    +0.111 C 
ATOM     15  H   UNL     1      38.910 -27.040 -14.217  0.00  0.00    +0.149 HD
ENDBRANCH  10  13
ENDBRANCH   9  10
ENDBRANCH   1   9
TORSDOF 5
ENDMDL
MODEL 7
REMARK VINA RESULT:      -5.5      2.771      4.548
REMARK  Name = 25203300
REMARK  5 active torsions:
REMARK  status: ('A' for Active; 'I' for Inactive)
REMARK    1  A    between atoms: CA_1  and  N_2
REMARK    2  A    between atoms: CA_1  and  C_8
REMARK    3  A    between atoms: CA_1  and  C_9
REMARK    4  A    between atoms: C_9  and  C_10
REMARK    5  A    between atoms: C_10  and  C_13
REMARK                            x       y       z     vdW  Elec       q    Type
REMARK                         _______ _______ _______ _____ _____    ______ ____
ROOT
ATOM      1  CA  UNL     1      36.840 -24.567 -12.254  0.00  0.00    +0.041 C 
ENDROOT
BRANCH   1   2
ATOM      2  N   UNL     1      37.897 -23.965 -11.382  0.00  0.00    +0.389 N 
ATOM      3  H1  UNL     1      37.517 -23.802 -10.449  0.00  0.00    -0.088 HD
ATOM      4  H2  UNL     1      38.207 -23.080 -11.784  0.00  0.00    -0.088 HD
ATOM      5  H3  UNL     1      38.689 -24.604 -11.319  0.00  0.00    -0.088 HD
ENDBRANCH   1   2
BRANCH   1   8
ATOM      6  O   UNL     1      34.495 -24.243 -12.347  0.00  0.00    -0.248 OA
ATOM      7  OXT UNL     1      35.409 -25.024 -10.409  0.00  0.00    -0.248 OA
ATOM      8  C   UNL     1      35.445 -24.626 -11.607  0.00  0.00    +0.345 C 
ENDBRANCH   1   8
BRANCH   1   9
ATOM      9  C   UNL     1      37.383 -25.902 -12.782  0.00  0.00    -0.001 C 
BRANCH   9  10
ATOM     10  C   UNL     1      37.920 -25.844 -14.215  0.00  0.00    +0.083 C 
BRANCH  10  13
ATOM     11  O   UNL     1      35.988 -25.106 -15.475  0.00  0.00    -0.275 OA
ATOM     12  N   UNL     1      37.870 -23.745 -15.386  0.00  0.00    -0.303 N 
ATOM     13  C   UNL     1      37.132 -24.881 -15.088  0.00  0.00    +0.222 C 
ATOM     14  C   UNL     1      37.368 -22.665 -16.204  0.00  0.00    +0.111 C 
ATOM     15  H   UNL     1      38.781 -23.670 -15.020  0.00  0.00    +0.149 HD
ENDBRANCH  10  13
ENDBRANCH   9  10
ENDBRANCH   1   9
TORSDOF 5
ENDMDL
MODEL 8
REMARK VINA RESULT:      -5.5     11.633     12.550
REMARK  Name = 25203300
REMARK  5 active torsions:
REMARK  status: ('A' for Active; 'I' for Inactive)
REMARK    1  A    between atoms: CA_1  and  N_2
REMARK    2  A    between atoms: CA_1  and  C_8
REMARK    3  A    between atoms: CA_1  and  C_9
REMARK    4  A    between atoms: C_9  and  C_10
REMARK    5  A    between atoms: C_10  and  C_13
REMARK                            x       y       z     vdW  Elec       q    Type
REMARK                         _______ _______ _______ _____ _____    ______ ____
ROOT
ATOM      1  CA  UNL     1      34.242 -18.967 -21.413  0.00  0.00    +0.041 C 
ENDROOT
BRANCH   1   2
ATOM      2  N   UNL     1      35.372 -18.194 -20.807  0.00  0.00    +0.389 N 
ATOM      3  H1  UNL     1      35.641 -17.436 -21.435  0.00  0.00    -0.088 HD
ATOM      4  H2  UNL     1      36.169 -18.814 -20.661  0.00  0.00    -0.088 HD
ATOM      5  H3  UNL     1      35.076 -17.805 -19.913  0.00  0.00    -0.088 HD
ENDBRANCH   1   2
BRANCH   1   8
ATOM      6  O   UNL     1      34.685 -20.760 -19.929  0.00  0.00    -0.248 OA
ATOM      7  OXT UNL     1      32.541 -20.435 -20.633  0.00  0.00    -0.248 OA
ATOM      8  C   UNL     1      33.773 -20.165 -20.570  0.00  0.00    +0.345 C 
ENDBRANCH   1   8
BRANCH   1   9
ATOM      9  C   UNL     1      34.628 -19.287 -22.864  0.00  0.00    -0.001 C 
BRANCH   9  10
ATOM     10  C   UNL     1      35.529 -18.240 -23.526  0.00  0.00    +0.083 C 
BRANCH  10  13
ATOM     11  O   UNL     1      34.544 -17.618 -25.648  0.00  0.00    -0.275 OA
ATOM     12  N   UNL     1      34.352 -16.167 -23.842  0.00  0.00    -0.303 N 
ATOM     13  C   UNL     1      34.760 -17.333 -24.473  0.00  0.00    +0.222 C 
ATOM     14  C   UNL     1      33.608 -15.124 -24.509  0.00  0.00    +0.111 C 
ATOM     15  H   UNL     1      34.582 -16.045 -22.893  0.00  0.00    +0.149 HD
ENDBRANCH  10  13
ENDBRANCH   9  10
ENDBRANCH   1   9
TORSDOF 5
ENDMDL
MODEL 9
REMARK VINA RESULT:      -5.4      9.527     10.483
REMARK  Name = 25203300
REMARK  5 active torsions:
REMARK  status: ('A' for Active; 'I' for Inactive)
REMARK    1  A    between atoms: CA_1  and  N_2
REMARK    2  A    between atoms: CA_1  and  C_8
REMARK    3  A    between atoms: CA_1  and  C_9
REMARK    4  A    between atoms: C_9  and  C_10
REMARK    5  A    between atoms: C_10  and  C_13
REMARK                            x       y       z     vdW  Elec       q    Type
REMARK                         _______ _______ _______ _____ _____    ______ ____
ROOT
ATOM      1  CA  UNL     1      33.669 -21.116 -20.212  0.00  0.00    +0.041 C 
ENDROOT
BRANCH   1   2
ATOM      2  N   UNL     1      32.515 -20.168 -20.099  0.00  0.00    +0.389 N 
ATOM      3  H1  UNL     1      31.973 -20.391 -19.264  0.00  0.00    -0.088 HD
ATOM      4  H2  UNL     1      31.922 -20.254 -20.924  0.00  0.00    -0.088 HD
ATOM      5  H3  UNL     1      32.867 -19.214 -20.031  0.00  0.00    -0.088 HD
ENDBRANCH   1   2
BRANCH   1   8
ATOM      6  O   UNL     1      32.667 -22.379 -18.476  0.00  0.00    -0.248 OA
ATOM      7  OXT UNL     1      34.906 -22.615 -18.840  0.00  0.00    -0.248 OA
ATOM      8  C   UNL     1      33.757 -22.144 -19.071  0.00  0.00    +0.345 C 
ENDBRANCH   1   8
BRANCH   1   9
ATOM      9  C   UNL     1      34.933 -20.278 -20.449  0.00  0.00    -0.001 C 
BRANCH   9  10
ATOM     10  C   UNL     1      34.987 -19.587 -21.815  0.00  0.00    +0.083 C 
BRANCH  10  13
ATOM     11  O   UNL     1      35.349 -17.505 -20.632  0.00  0.00    -0.275 OA
ATOM     12  N   UNL     1      34.898 -17.449 -22.911  0.00  0.00    -0.303 N 
ATOM     13  C   UNL     1      35.105 -18.076 -21.692  0.00  0.00    +0.222 C 
ATOM     14  C   UNL     1      34.946 -16.015 -23.084  0.00  0.00    +0.111 C 
ATOM     15  H   UNL     1      34.709 -18.009 -23.699  0.00  0.00    +0.149 HD
ENDBRANCH  10  13
ENDBRANCH   9  10
ENDBRANCH   1   9
TORSDOF 5
ENDMDL
