MODEL 1
REMARK VINA RESULT:      -8.6      0.000      0.000
REMARK  Name = 447594
REMARK  5 active torsions:
REMARK  status: ('A' for Active; 'I' for Inactive)
REMARK    1  A    between atoms: C_2  and  N_18
REMARK    2  A    between atoms: C_3  and  N_6
REMARK    3  A    between atoms: C_4  and  O_22
REMARK    4  A    between atoms: C_5  and  C_24
REMARK    5  A    between atoms: C_24  and  O_25
REMARK                            x       y       z     vdW  Elec       q    Type
REMARK                         _______ _______ _______ _____ _____    ______ ____
ROOT
ATOM      1  O   UNL     1      34.856 -17.188 -20.693  0.00  0.00    -0.337 OA
ATOM      2  C   UNL     1      34.176 -17.927 -22.844  0.00  0.00    +0.012 C 
ATOM      3  C   UNL     1      34.887 -18.342 -21.557  0.00  0.00    +0.177 C 
ATOM      4  C   UNL     1      34.579 -16.464 -22.945  0.00  0.00    +0.124 C 
ATOM      5  C   UNL     1      34.559 -16.016 -21.486  0.00  0.00    +0.171 C 
ENDROOT
BRANCH   3   6
ATOM      6  N   UNL     1      34.291 -19.482 -20.868  0.00  0.00    -0.251 N 
ATOM      7  N   UNL     1      32.731 -20.926 -20.186  0.00  0.00    -0.242 NA
ATOM      8  N   UNL     1      36.233 -20.406 -19.738  0.00  0.00    -0.228 NA
ATOM      9  N   UNL     1      35.645 -22.385 -18.437  0.00  0.00    -0.229 NA
ATOM     10  C   UNL     1      34.932 -20.382 -20.063  0.00  0.00    +0.152 C 
ATOM     11  C   UNL     1      32.971 -19.852 -20.910  0.00  0.00    +0.223 C 
ATOM     12  C   UNL     1      33.948 -21.267 -19.651  0.00  0.00    +0.140 C 
ATOM     13  C   UNL     1      34.344 -22.300 -18.808  0.00  0.00    +0.143 C 
ATOM     14  C   UNL     1      36.496 -21.447 -18.918  0.00  0.00    +0.253 C 
ATOM     15  N   UNL     1      33.413 -23.244 -18.342  0.00  0.00    -0.342 N 
ATOM     16  H   UNL     1      33.705 -23.971 -17.745  0.00  0.00    +0.144 HD
ATOM     17  H   UNL     1      32.470 -23.180 -18.614  0.00  0.00    +0.144 HD
ENDBRANCH   3   6
BRANCH   2  18
ATOM     18  N   UNL     1      34.557 -18.728 -23.996  0.00  0.00    +0.386 N 
ATOM     19  H   UNL     1      35.121 -19.519 -23.689  0.00  0.00    -0.089 HD
ATOM     20  H   UNL     1      35.097 -18.155 -24.644  0.00  0.00    -0.089 HD
ATOM     21  H   UNL     1      33.717 -19.070 -24.464  0.00  0.00    -0.089 HD
ENDBRANCH   2  18
BRANCH   4  22
ATOM     22  O   UNL     1      35.916 -16.355 -23.433  0.00  0.00    -0.384 OA
ATOM     23  H   UNL     1      36.035 -15.492 -23.860  0.00  0.00    +0.210 HD
ENDBRANCH   4  22
BRANCH   5  24
ATOM     24  C   UNL     1      33.206 -15.471 -21.049  0.00  0.00    +0.169 C 
BRANCH  24  25
ATOM     25  O   UNL     1      32.634 -14.759 -22.132  0.00  0.00    -0.379 OA
ATOM     26  H   UNL     1      33.310 -14.603 -22.810  0.00  0.00    +0.211 HD
ENDBRANCH  24  25
ENDBRANCH   5  24
TORSDOF 5
ENDMDL
MODEL 2
REMARK VINA RESULT:      -8.4      6.080      9.394
REMARK  Name = 447594
REMARK  5 active torsions:
REMARK  status: ('A' for Active; 'I' for Inactive)
REMARK    1  A    between atoms: C_2  and  N_18
REMARK    2  A    between atoms: C_3  and  N_6
REMARK    3  A    between atoms: C_4  and  O_22
REMARK    4  A    between atoms: C_5  and  C_24
REMARK    5  A    between atoms: C_24  and  O_25
REMARK                            x       y       z     vdW  Elec       q    Type
REMARK                         _______ _______ _______ _____ _____    ______ ____
ROOT
ATOM      1  O   UNL     1      38.040 -23.868 -13.924  0.00  0.00    -0.337 OA
ATOM      2  C   UNL     1      36.871 -25.672 -14.932  0.00  0.00    +0.012 C 
ATOM      3  C   UNL     1      36.810 -24.181 -14.608  0.00  0.00    +0.177 C 
ATOM      4  C   UNL     1      37.626 -26.206 -13.724  0.00  0.00    +0.124 C 
ATOM      5  C   UNL     1      38.640 -25.097 -13.455  0.00  0.00    +0.171 C 
ENDROOT
BRANCH   3   6
ATOM      6  N   UNL     1      36.663 -23.308 -15.768  0.00  0.00    -0.251 N 
ATOM      7  N   UNL     1      37.198 -21.807 -17.331  0.00  0.00    -0.242 NA
ATOM      8  N   UNL     1      34.375 -23.792 -16.426  0.00  0.00    -0.228 NA
ATOM      9  N   UNL     1      33.721 -22.496 -18.388  0.00  0.00    -0.229 NA
ATOM     10  C   UNL     1      35.553 -23.165 -16.555  0.00  0.00    +0.152 C 
ATOM     11  C   UNL     1      37.623 -22.471 -16.277  0.00  0.00    +0.223 C 
ATOM     12  C   UNL     1      35.906 -22.231 -17.516  0.00  0.00    +0.140 C 
ATOM     13  C   UNL     1      34.937 -21.901 -18.458  0.00  0.00    +0.143 C 
ATOM     14  C   UNL     1      33.519 -23.391 -17.391  0.00  0.00    +0.253 C 
ATOM     15  N   UNL     1      35.209 -20.964 -19.470  0.00  0.00    -0.342 N 
ATOM     16  H   UNL     1      34.515 -20.739 -20.131  0.00  0.00    +0.144 HD
ATOM     17  H   UNL     1      36.093 -20.535 -19.518  0.00  0.00    +0.144 HD
ENDBRANCH   3   6
BRANCH   2  18
ATOM     18  N   UNL     1      35.562 -26.275 -15.127  0.00  0.00    +0.386 N 
ATOM     19  H   UNL     1      35.140 -26.471 -14.221  0.00  0.00    -0.089 HD
ATOM     20  H   UNL     1      35.664 -27.144 -15.652  0.00  0.00    -0.089 HD
ATOM     21  H   UNL     1      34.966 -25.631 -15.648  0.00  0.00    -0.089 HD
ENDBRANCH   2  18
BRANCH   4  22
ATOM     22  O   UNL     1      36.750 -26.300 -12.600  0.00  0.00    -0.384 OA
ATOM     23  H   UNL     1      36.189 -25.509 -12.560  0.00  0.00    +0.210 HD
ENDBRANCH   4  22
BRANCH   5  24
ATOM     24  C   UNL     1      39.955 -25.301 -14.194  0.00  0.00    +0.169 C 
BRANCH  24  25
ATOM     25  O   UNL     1      40.070 -26.669 -14.546  0.00  0.00    -0.379 OA
ATOM     26  H   UNL     1      39.275 -26.946 -15.028  0.00  0.00    +0.211 HD
ENDBRANCH  24  25
ENDBRANCH   5  24
TORSDOF 5
ENDMDL
MODEL 3
REMARK VINA RESULT:      -8.4      8.192     10.109
REMARK  Name = 447594
REMARK  5 active torsions:
REMARK  status: ('A' for Active; 'I' for Inactive)
REMARK    1  A    between atoms: C_2  and  N_18
REMARK    2  A    between atoms: C_3  and  N_6
REMARK    3  A    between atoms: C_4  and  O_22
REMARK    4  A    between atoms: C_5  and  C_24
REMARK    5  A    between atoms: C_24  and  O_25
REMARK                            x       y       z     vdW  Elec       q    Type
REMARK                         _______ _______ _______ _____ _____    ______ ____
ROOT
ATOM      1  O   UNL     1      35.138 -24.034 -12.104  0.00  0.00    -0.337 OA
ATOM      2  C   UNL     1      36.395 -25.221 -13.731  0.00  0.00    +0.012 C 
ATOM      3  C   UNL     1      34.983 -24.906 -13.243  0.00  0.00    +0.177 C 
ATOM      4  C   UNL     1      37.162 -25.250 -12.417  0.00  0.00    +0.124 C 
ATOM      5  C   UNL     1      36.498 -24.127 -11.625  0.00  0.00    +0.171 C 
ENDROOT
BRANCH   3   6
ATOM      6  N   UNL     1      34.122 -24.266 -14.232  0.00  0.00    -0.251 N 
ATOM      7  N   UNL     1      33.529 -23.083 -16.030  0.00  0.00    -0.242 NA
ATOM      8  N   UNL     1      31.924 -24.871 -13.392  0.00  0.00    -0.228 NA
ATOM      9  N   UNL     1      30.152 -23.967 -14.807  0.00  0.00    -0.229 NA
ATOM     10  C   UNL     1      32.754 -24.276 -14.261  0.00  0.00    +0.152 C 
ATOM     11  C   UNL     1      34.539 -23.537 -15.316  0.00  0.00    +0.223 C 
ATOM     12  C   UNL     1      32.409 -23.538 -15.381  0.00  0.00    +0.140 C 
ATOM     13  C   UNL     1      31.050 -23.393 -15.644  0.00  0.00    +0.143 C 
ATOM     14  C   UNL     1      30.638 -24.660 -13.749  0.00  0.00    +0.253 C 
ATOM     15  N   UNL     1      30.609 -22.661 -16.760  0.00  0.00    -0.342 N 
ATOM     16  H   UNL     1      29.645 -22.566 -16.936  0.00  0.00    +0.144 HD
ATOM     17  H   UNL     1      31.263 -22.247 -17.366  0.00  0.00    +0.144 HD
ENDBRANCH   3   6
BRANCH   2  18
ATOM     18  N   UNL     1      36.480 -26.456 -14.494  0.00  0.00    +0.386 N 
ATOM     19  H   UNL     1      36.731 -26.243 -15.458  0.00  0.00    -0.089 HD
ATOM     20  H   UNL     1      35.576 -26.929 -14.474  0.00  0.00    -0.089 HD
ATOM     21  H   UNL     1      37.190 -27.062 -14.083  0.00  0.00    -0.089 HD
ENDBRANCH   2  18
BRANCH   4  22
ATOM     22  O   UNL     1      36.925 -26.484 -11.737  0.00  0.00    -0.384 OA
ATOM     23  H   UNL     1      35.969 -26.635 -11.667  0.00  0.00    +0.210 HD
ENDBRANCH   4  22
BRANCH   5  24
ATOM     24  C   UNL     1      37.171 -22.777 -11.829  0.00  0.00    +0.169 C 
BRANCH  24  25
ATOM     25  O   UNL     1      38.562 -22.925 -11.600  0.00  0.00    -0.379 OA
ATOM     26  H   UNL     1      38.814 -22.424 -10.809  0.00  0.00    +0.211 HD
ENDBRANCH  24  25
ENDBRANCH   5  24
TORSDOF 5
ENDMDL
MODEL 4
REMARK VINA RESULT:      -8.2      6.837      9.178
REMARK  Name = 447594
REMARK  5 active torsions:
REMARK  status: ('A' for Active; 'I' for Inactive)
REMARK    1  A    between atoms: C_2  and  N_18
REMARK    2  A    between atoms: C_3  and  N_6
REMARK    3  A    between atoms: C_4  and  O_22
REMARK    4  A    between atoms: C_5  and  C_24
REMARK    5  A    between atoms: C_24  and  O_25
REMARK                            x       y       z     vdW  Elec       q    Type
REMARK                         _______ _______ _______ _____ _____    ______ ____
ROOT
ATOM      1  O   UNL     1      35.681 -25.169 -13.224  0.00  0.00    -0.337 OA
ATOM      2  C   UNL     1      36.569 -23.172 -14.151  0.00  0.00    +0.012 C 
ATOM      3  C   UNL     1      35.671 -24.376 -14.429  0.00  0.00    +0.177 C 
ATOM      4  C   UNL     1      37.625 -23.792 -13.250  0.00  0.00    +0.124 C 
ATOM      5  C   UNL     1      36.807 -24.770 -12.410  0.00  0.00    +0.171 C 
ENDROOT
BRANCH   3   6
ATOM      6  N   UNL     1      34.295 -24.045 -14.782  0.00  0.00    -0.251 N 
ATOM      7  N   UNL     1      32.087 -23.795 -14.565  0.00  0.00    -0.242 NA
ATOM      8  N   UNL     1      34.577 -23.266 -17.065  0.00  0.00    -0.228 NA
ATOM      9  N   UNL     1      32.444 -22.596 -18.046  0.00  0.00    -0.229 NA
ATOM     10  C   UNL     1      33.848 -23.549 -15.975  0.00  0.00    +0.152 C 
ATOM     11  C   UNL     1      33.198 -24.175 -13.968  0.00  0.00    +0.223 C 
ATOM     12  C   UNL     1      32.479 -23.402 -15.820  0.00  0.00    +0.140 C 
ATOM     13  C   UNL     1      31.773 -22.904 -16.910  0.00  0.00    +0.143 C 
ATOM     14  C   UNL     1      33.785 -22.793 -18.053  0.00  0.00    +0.253 C 
ATOM     15  N   UNL     1      30.381 -22.721 -16.840  0.00  0.00    -0.342 N 
ATOM     16  H   UNL     1      29.891 -22.368 -17.618  0.00  0.00    +0.144 HD
ATOM     17  H   UNL     1      29.896 -22.945 -16.013  0.00  0.00    +0.144 HD
ENDBRANCH   3   6
BRANCH   2  18
ATOM     18  N   UNL     1      37.103 -22.561 -15.357  0.00  0.00    +0.386 N 
ATOM     19  H   UNL     1      36.800 -21.589 -15.409  0.00  0.00    -0.089 HD
ATOM     20  H   UNL     1      36.763 -23.069 -16.174  0.00  0.00    -0.089 HD
ATOM     21  H   UNL     1      38.123 -22.599 -15.335  0.00  0.00    -0.089 HD
ENDBRANCH   2  18
BRANCH   4  22
ATOM     22  O   UNL     1      38.559 -24.540 -14.030  0.00  0.00    -0.384 OA
ATOM     23  H   UNL     1      38.239 -25.450 -14.132  0.00  0.00    +0.210 HD
ENDBRANCH   4  22
BRANCH   5  24
ATOM     24  C   UNL     1      36.273 -24.149 -11.126  0.00  0.00    +0.169 C 
BRANCH  24  25
ATOM     25  O   UNL     1      35.306 -25.022 -10.568  0.00  0.00    -0.379 OA
ATOM     26  H   UNL     1      35.252 -24.875  -9.611  0.00  0.00    +0.211 HD
ENDBRANCH  24  25
ENDBRANCH   5  24
TORSDOF 5
ENDMDL
MODEL 5
REMARK VINA RESULT:      -8.2      6.390      9.238
REMARK  Name = 447594
REMARK  5 active torsions:
REMARK  status: ('A' for Active; 'I' for Inactive)
REMARK    1  A    between atoms: C_2  and  N_18
REMARK    2  A    between atoms: C_3  and  N_6
REMARK    3  A    between atoms: C_4  and  O_22
REMARK    4  A    between atoms: C_5  and  C_24
REMARK    5  A    between atoms: C_24  and  O_25
REMARK                            x       y       z     vdW  Elec       q    Type
REMARK                         _______ _______ _______ _____ _____    ______ ____
ROOT
ATOM      1  O   UNL     1      36.631 -24.710 -15.484  0.00  0.00    -0.337 OA
ATOM      2  C   UNL     1      36.277 -24.509 -13.145  0.00  0.00    +0.012 C 
ATOM      3  C   UNL     1      36.008 -23.859 -14.500  0.00  0.00    +0.177 C 
ATOM      4  C   UNL     1      37.659 -25.102 -13.371  0.00  0.00    +0.124 C 
ATOM      5  C   UNL     1      37.581 -25.575 -14.820  0.00  0.00    +0.171 C 
ENDROOT
BRANCH   3   6
ATOM      6  N   UNL     1      34.596 -23.690 -14.829  0.00  0.00    -0.251 N 
ATOM      7  N   UNL     1      32.381 -23.655 -14.561  0.00  0.00    -0.242 NA
ATOM      8  N   UNL     1      34.743 -23.004 -17.155  0.00  0.00    -0.228 NA
ATOM      9  N   UNL     1      32.530 -22.607 -18.105  0.00  0.00    -0.229 NA
ATOM     10  C   UNL     1      34.073 -23.303 -16.032  0.00  0.00    +0.152 C 
ATOM     11  C   UNL     1      33.539 -23.888 -13.979  0.00  0.00    +0.223 C 
ATOM     12  C   UNL     1      32.700 -23.289 -15.845  0.00  0.00    +0.140 C 
ATOM     13  C   UNL     1      31.920 -22.923 -16.937  0.00  0.00    +0.143 C 
ATOM     14  C   UNL     1      33.883 -22.666 -18.141  0.00  0.00    +0.253 C 
ATOM     15  N   UNL     1      30.519 -22.880 -16.836  0.00  0.00    -0.342 N 
ATOM     16  H   UNL     1      29.978 -22.619 -17.616  0.00  0.00    +0.144 HD
ATOM     17  H   UNL     1      30.080 -23.109 -15.986  0.00  0.00    +0.144 HD
ENDBRANCH   3   6
BRANCH   2  18
ATOM     18  N   UNL     1      36.207 -23.575 -12.033  0.00  0.00    +0.386 N 
ATOM     19  H   UNL     1      36.194 -22.621 -12.391  0.00  0.00    -0.089 HD
ATOM     20  H   UNL     1      37.021 -23.702 -11.431  0.00  0.00    -0.089 HD
ATOM     21  H   UNL     1      35.357 -23.749 -11.496  0.00  0.00    -0.089 HD
ENDBRANCH   2  18
BRANCH   4  22
ATOM     22  O   UNL     1      38.653 -24.080 -13.282  0.00  0.00    -0.384 OA
ATOM     23  H   UNL     1      38.604 -23.513 -14.068  0.00  0.00    +0.210 HD
ENDBRANCH   4  22
BRANCH   5  24
ATOM     24  C   UNL     1      37.094 -27.012 -14.952  0.00  0.00    +0.169 C 
BRANCH  24  25
ATOM     25  O   UNL     1      36.748 -27.250 -16.305  0.00  0.00    -0.379 OA
ATOM     26  H   UNL     1      36.090 -27.961 -16.349  0.00  0.00    +0.211 HD
ENDBRANCH  24  25
ENDBRANCH   5  24
TORSDOF 5
ENDMDL
MODEL 6
REMARK VINA RESULT:      -8.1      6.082      9.120
REMARK  Name = 447594
REMARK  5 active torsions:
REMARK  status: ('A' for Active; 'I' for Inactive)
REMARK    1  A    between atoms: C_2  and  N_18
REMARK    2  A    between atoms: C_3  and  N_6
REMARK    3  A    between atoms: C_4  and  O_22
REMARK    4  A    between atoms: C_5  and  C_24
REMARK    5  A    between atoms: C_24  and  O_25
REMARK                            x       y       z     vdW  Elec       q    Type
REMARK                         _______ _______ _______ _____ _____    ______ ____
ROOT
ATOM      1  O   UNL     1      38.041 -23.880 -14.707  0.00  0.00    -0.337 OA
ATOM      2  C   UNL     1      36.527 -24.049 -12.887  0.00  0.00    +0.012 C 
ATOM      3  C   UNL     1      36.865 -23.259 -14.149  0.00  0.00    +0.177 C 
ATOM      4  C   UNL     1      37.915 -24.422 -12.391  0.00  0.00    +0.124 C 
ATOM      5  C   UNL     1      38.665 -24.698 -13.692  0.00  0.00    +0.171 C 
ENDROOT
BRANCH   3   6
ATOM      6  N   UNL     1      35.808 -23.230 -15.155  0.00  0.00    -0.251 N 
ATOM      7  N   UNL     1      33.815 -23.576 -16.099  0.00  0.00    -0.242 NA
ATOM      8  N   UNL     1      36.921 -22.045 -16.961  0.00  0.00    -0.228 NA
ATOM      9  N   UNL     1      35.447 -21.778 -18.889  0.00  0.00    -0.229 NA
ATOM     10  C   UNL     1      35.875 -22.673 -16.403  0.00  0.00    +0.152 C 
ATOM     11  C   UNL     1      34.550 -23.758 -15.021  0.00  0.00    +0.223 C 
ATOM     12  C   UNL     1      34.631 -22.900 -16.970  0.00  0.00    +0.140 C 
ATOM     13  C   UNL     1      34.434 -22.424 -18.262  0.00  0.00    +0.143 C 
ATOM     14  C   UNL     1      36.610 -21.631 -18.209  0.00  0.00    +0.253 C 
ATOM     15  N   UNL     1      33.202 -22.608 -18.914  0.00  0.00    -0.342 N 
ATOM     16  H   UNL     1      33.074 -22.266 -19.829  0.00  0.00    +0.144 HD
ATOM     17  H   UNL     1      32.468 -23.076 -18.456  0.00  0.00    +0.144 HD
ENDBRANCH   3   6
BRANCH   2  18
ATOM     18  N   UNL     1      35.738 -23.293 -11.928  0.00  0.00    +0.386 N 
ATOM     19  H   UNL     1      36.356 -22.873 -11.234  0.00  0.00    -0.089 HD
ATOM     20  H   UNL     1      35.079 -23.917 -11.463  0.00  0.00    -0.089 HD
ATOM     21  H   UNL     1      35.224 -22.558 -12.414  0.00  0.00    -0.089 HD
ENDBRANCH   2  18
BRANCH   4  22
ATOM     22  O   UNL     1      38.525 -23.302 -11.747  0.00  0.00    -0.384 OA
ATOM     23  H   UNL     1      39.488 -23.419 -11.738  0.00  0.00    +0.210 HD
ENDBRANCH   4  22
BRANCH   5  24
ATOM     24  C   UNL     1      38.581 -26.154 -14.130  0.00  0.00    +0.169 C 
BRANCH  24  25
ATOM     25  O   UNL     1      38.219 -26.194 -15.499  0.00  0.00    -0.379 OA
ATOM     26  H   UNL     1      37.297 -26.484 -15.581  0.00  0.00    +0.211 HD
ENDBRANCH  24  25
ENDBRANCH   5  24
TORSDOF 5
ENDMDL
MODEL 7
REMARK VINA RESULT:      -8.1      5.901      8.454
REMARK  Name = 447594
REMARK  5 active torsions:
REMARK  status: ('A' for Active; 'I' for Inactive)
REMARK    1  A    between atoms: C_2  and  N_18
REMARK    2  A    between atoms: C_3  and  N_6
REMARK    3  A    between atoms: C_4  and  O_22
REMARK    4  A    between atoms: C_5  and  C_24
REMARK    5  A    between atoms: C_24  and  O_25
REMARK                            x       y       z     vdW  Elec       q    Type
REMARK                         _______ _______ _______ _____ _____    ______ ____
ROOT
ATOM      1  O   UNL     1      36.273 -23.138 -14.270  0.00  0.00    -0.337 OA
ATOM      2  C   UNL     1      36.214 -25.320 -15.202  0.00  0.00    +0.012 C 
ATOM      3  C   UNL     1      35.494 -24.352 -14.266  0.00  0.00    +0.177 C 
ATOM      4  C   UNL     1      37.667 -24.943 -14.957  0.00  0.00    +0.124 C 
ATOM      5  C   UNL     1      37.589 -23.427 -14.792  0.00  0.00    +0.171 C 
ENDROOT
BRANCH   3   6
ATOM      6  N   UNL     1      34.117 -24.047 -14.641  0.00  0.00    -0.251 N 
ATOM      7  N   UNL     1      31.902 -23.838 -14.460  0.00  0.00    -0.242 NA
ATOM      8  N   UNL     1      34.421 -23.263 -16.921  0.00  0.00    -0.228 NA
ATOM      9  N   UNL     1      32.292 -22.633 -17.935  0.00  0.00    -0.229 NA
ATOM     10  C   UNL     1      33.681 -23.559 -15.842  0.00  0.00    +0.152 C 
ATOM     11  C   UNL     1      33.011 -24.197 -13.846  0.00  0.00    +0.223 C 
ATOM     12  C   UNL     1      32.307 -23.438 -15.709  0.00  0.00    +0.140 C 
ATOM     13  C   UNL     1      31.608 -22.953 -16.810  0.00  0.00    +0.143 C 
ATOM     14  C   UNL     1      33.636 -22.805 -17.921  0.00  0.00    +0.253 C 
ATOM     15  N   UNL     1      30.212 -22.797 -16.762  0.00  0.00    -0.342 N 
ATOM     16  H   UNL     1      29.729 -22.453 -17.548  0.00  0.00    +0.144 HD
ATOM     17  H   UNL     1      29.719 -23.029 -15.943  0.00  0.00    +0.144 HD
ENDBRANCH   3   6
BRANCH   2  18
ATOM     18  N   UNL     1      35.910 -26.716 -14.933  0.00  0.00    +0.386 N 
ATOM     19  H   UNL     1      35.370 -27.102 -15.706  0.00  0.00    -0.089 HD
ATOM     20  H   UNL     1      35.369 -26.785 -14.071  0.00  0.00    -0.089 HD
ATOM     21  H   UNL     1      36.780 -27.240 -14.830  0.00  0.00    -0.089 HD
ENDBRANCH   2  18
BRANCH   4  22
ATOM     22  O   UNL     1      38.120 -25.508 -13.726  0.00  0.00    -0.384 OA
ATOM     23  H   UNL     1      37.938 -24.891 -13.000  0.00  0.00    +0.210 HD
ENDBRANCH   4  22
BRANCH   5  24
ATOM     24  C   UNL     1      37.760 -22.676 -16.105  0.00  0.00    +0.169 C 
BRANCH  24  25
ATOM     25  O   UNL     1      36.918 -21.536 -16.087  0.00  0.00    -0.379 OA
ATOM     26  H   UNL     1      37.284 -20.874 -15.481  0.00  0.00    +0.211 HD
ENDBRANCH  24  25
ENDBRANCH   5  24
TORSDOF 5
ENDMDL
MODEL 8
REMARK VINA RESULT:      -7.9      6.940      9.710
REMARK  Name = 447594
REMARK  5 active torsions:
REMARK  status: ('A' for Active; 'I' for Inactive)
REMARK    1  A    between atoms: C_2  and  N_18
REMARK    2  A    between atoms: C_3  and  N_6
REMARK    3  A    between atoms: C_4  and  O_22
REMARK    4  A    between atoms: C_5  and  C_24
REMARK    5  A    between atoms: C_24  and  O_25
REMARK                            x       y       z     vdW  Elec       q    Type
REMARK                         _______ _______ _______ _____ _____    ______ ____
ROOT
ATOM      1  O   UNL     1      38.286 -23.631 -14.206  0.00  0.00    -0.337 OA
ATOM      2  C   UNL     1      36.627 -25.068 -13.301  0.00  0.00    +0.012 C 
ATOM      3  C   UNL     1      36.881 -23.680 -13.885  0.00  0.00    +0.177 C 
ATOM      4  C   UNL     1      37.934 -25.322 -12.566  0.00  0.00    +0.124 C 
ATOM      5  C   UNL     1      38.965 -24.695 -13.502  0.00  0.00    +0.171 C 
ENDROOT
BRANCH   3   6
ATOM      6  N   UNL     1      36.099 -23.365 -15.076  0.00  0.00    -0.251 N 
ATOM      7  N   UNL     1      35.646 -22.720 -17.165  0.00  0.00    -0.242 NA
ATOM      8  N   UNL     1      33.850 -23.849 -14.295  0.00  0.00    -0.228 NA
ATOM      9  N   UNL     1      32.196 -23.439 -16.042  0.00  0.00    -0.229 NA
ATOM     10  C   UNL     1      34.742 -23.456 -15.217  0.00  0.00    +0.152 C 
ATOM     11  C   UNL     1      36.596 -22.919 -16.274  0.00  0.00    +0.223 C 
ATOM     12  C   UNL     1      34.483 -23.052 -16.517  0.00  0.00    +0.140 C 
ATOM     13  C   UNL     1      33.152 -23.053 -16.922  0.00  0.00    +0.143 C 
ATOM     14  C   UNL     1      32.598 -23.807 -14.802  0.00  0.00    +0.253 C 
ATOM     15  N   UNL     1      32.797 -22.659 -18.224  0.00  0.00    -0.342 N 
ATOM     16  H   UNL     1      31.852 -22.665 -18.499  0.00  0.00    +0.144 HD
ATOM     17  H   UNL     1      33.494 -22.381 -18.860  0.00  0.00    +0.144 HD
ENDBRANCH   3   6
BRANCH   2  18
ATOM     18  N   UNL     1      35.448 -25.130 -12.453  0.00  0.00    +0.386 N 
ATOM     19  H   UNL     1      35.683 -24.798 -11.519  0.00  0.00    -0.089 HD
ATOM     20  H   UNL     1      35.120 -26.094 -12.399  0.00  0.00    -0.089 HD
ATOM     21  H   UNL     1      34.714 -24.542 -12.848  0.00  0.00    -0.089 HD
ENDBRANCH   2  18
BRANCH   4  22
ATOM     22  O   UNL     1      37.951 -24.606 -11.331  0.00  0.00    -0.384 OA
ATOM     23  H   UNL     1      38.783 -24.113 -11.254  0.00  0.00    +0.210 HD
ENDBRANCH   4  22
BRANCH   5  24
ATOM     24  C   UNL     1      39.511 -25.678 -14.529  0.00  0.00    +0.169 C 
BRANCH  24  25
ATOM     25  O   UNL     1      40.925 -25.695 -14.431  0.00  0.00    -0.379 OA
ATOM     26  H   UNL     1      41.184 -26.029 -13.558  0.00  0.00    +0.211 HD
ENDBRANCH  24  25
ENDBRANCH   5  24
TORSDOF 5
ENDMDL
MODEL 9
REMARK VINA RESULT:      -7.9      5.035      7.616
REMARK  Name = 447594
REMARK  5 active torsions:
REMARK  status: ('A' for Active; 'I' for Inactive)
REMARK    1  A    between atoms: C_2  and  N_18
REMARK    2  A    between atoms: C_3  and  N_6
REMARK    3  A    between atoms: C_4  and  O_22
REMARK    4  A    between atoms: C_5  and  C_24
REMARK    5  A    between atoms: C_24  and  O_25
REMARK                            x       y       z     vdW  Elec       q    Type
REMARK                         _______ _______ _______ _____ _____    ______ ____
ROOT
ATOM      1  O   UNL     1      34.992 -24.503 -15.771  0.00  0.00    -0.337 OA
ATOM      2  C   UNL     1      36.196 -22.479 -15.474  0.00  0.00    +0.012 C 
ATOM      3  C   UNL     1      35.625 -23.441 -16.514  0.00  0.00    +0.177 C 
ATOM      4  C   UNL     1      36.599 -23.443 -14.369  0.00  0.00    +0.124 C 
ATOM      5  C   UNL     1      35.477 -24.477 -14.410  0.00  0.00    +0.171 C 
ENDROOT
BRANCH   3   6
ATOM      6  N   UNL     1      34.660 -22.848 -17.433  0.00  0.00    -0.251 N 
ATOM      7  N   UNL     1      32.690 -22.364 -18.365  0.00  0.00    -0.242 NA
ATOM      8  N   UNL     1      36.129 -21.560 -18.878  0.00  0.00    -0.228 NA
ATOM      9  N   UNL     1      34.867 -20.381 -20.603  0.00  0.00    -0.229 NA
ATOM     10  C   UNL     1      34.929 -22.009 -18.480  0.00  0.00    +0.152 C 
ATOM     11  C   UNL     1      33.301 -23.029 -17.407  0.00  0.00    +0.223 C 
ATOM     12  C   UNL     1      33.696 -21.722 -19.043  0.00  0.00    +0.140 C 
ATOM     13  C   UNL     1      33.691 -20.873 -20.145  0.00  0.00    +0.143 C 
ATOM     14  C   UNL     1      35.996 -20.750 -19.951  0.00  0.00    +0.253 C 
ATOM     15  N   UNL     1      32.485 -20.526 -20.778  0.00  0.00    -0.342 N 
ATOM     16  H   UNL     1      32.493 -19.924 -21.557  0.00  0.00    +0.144 HD
ATOM     17  H   UNL     1      31.632 -20.884 -20.442  0.00  0.00    +0.144 HD
ENDBRANCH   3   6
BRANCH   2  18
ATOM     18  N   UNL     1      37.289 -21.665 -15.980  0.00  0.00    +0.386 N 
ATOM     19  H   UNL     1      37.076 -20.680 -15.834  0.00  0.00    -0.089 HD
ATOM     20  H   UNL     1      37.411 -21.844 -16.977  0.00  0.00    -0.089 HD
ATOM     21  H   UNL     1      38.149 -21.904 -15.485  0.00  0.00    -0.089 HD
ENDBRANCH   2  18
BRANCH   4  22
ATOM     22  O   UNL     1      37.825 -24.092 -14.707  0.00  0.00    -0.384 OA
ATOM     23  H   UNL     1      38.571 -23.526 -14.456  0.00  0.00    +0.210 HD
ENDBRANCH   4  22
BRANCH   5  24
ATOM     24  C   UNL     1      34.313 -24.129 -13.493  0.00  0.00    +0.169 C 
BRANCH  24  25
ATOM     25  O   UNL     1      34.420 -24.903 -12.311  0.00  0.00    -0.379 OA
ATOM     26  H   UNL     1      35.165 -24.580 -11.779  0.00  0.00    +0.211 HD
ENDBRANCH  24  25
ENDBRANCH   5  24
TORSDOF 5
ENDMDL
