MODEL 1
REMARK VINA RESULT:      -6.9      0.000      0.000
REMARK  Name = 1694
REMARK  0 active torsions:
REMARK  status: ('A' for Active; 'I' for Inactive)
REMARK                            x       y       z     vdW  Elec       q    Type
REMARK                         _______ _______ _______ _____ _____    ______ ____
ROOT
ATOM      1 BR   UNL     1      35.397 -10.325 -25.705  0.00  0.00    -0.047 Br
ATOM      2 BR   UNL     1      30.837 -11.090 -20.787  0.00  0.00    -0.047 Br
ATOM      3 BR   UNL     1      34.408  -7.648 -23.860  0.00  0.00    -0.048 Br
ATOM      4 BR   UNL     1      32.156  -8.025 -21.435  0.00  0.00    -0.048 Br
ATOM      5  N   UNL     1      33.763 -12.907 -24.571  0.00  0.00    -0.154 NA
ATOM      6  N   UNL     1      32.206 -13.168 -22.892  0.00  0.00    -0.154 NA
ATOM      7  N   UNL     1      32.947 -13.697 -23.869  0.00  0.00    -0.196 N 
ATOM      8  C   UNL     1      33.552 -11.707 -24.007  0.00  0.00    +0.129 A 
ATOM      9  C   UNL     1      32.559 -11.874 -22.936  0.00  0.00    +0.129 A 
ATOM     10  C   UNL     1      34.126 -10.458 -24.311  0.00  0.00    +0.062 A 
ATOM     11  C   UNL     1      32.119 -10.794 -22.147  0.00  0.00    +0.062 A 
ATOM     12  C   UNL     1      33.668  -9.398 -23.507  0.00  0.00    +0.049 A 
ATOM     13  C   UNL     1      32.708  -9.558 -22.472  0.00  0.00    +0.049 A 
ATOM     14  H   UNL     1      32.892 -14.658 -24.069  0.00  0.00    +0.213 HD
ENDROOT
TORSDOF 0
ENDMDL
MODEL 2
REMARK VINA RESULT:      -6.9      0.046      3.396
REMARK  Name = 1694
REMARK  0 active torsions:
REMARK  status: ('A' for Active; 'I' for Inactive)
REMARK                            x       y       z     vdW  Elec       q    Type
REMARK                         _______ _______ _______ _____ _____    ______ ____
ROOT
ATOM      1 BR   UNL     1      30.891 -11.139 -20.736  0.00  0.00    -0.047 Br
ATOM      2 BR   UNL     1      35.355 -10.331 -25.733  0.00  0.00    -0.047 Br
ATOM      3 BR   UNL     1      32.189  -8.066 -21.388  0.00  0.00    -0.048 Br
ATOM      4 BR   UNL     1      34.394  -7.668 -23.853  0.00  0.00    -0.048 Br
ATOM      5  N   UNL     1      32.223 -13.199 -22.880  0.00  0.00    -0.154 NA
ATOM      6  N   UNL     1      33.748 -12.924 -24.587  0.00  0.00    -0.154 NA
ATOM      7  N   UNL     1      32.946 -13.720 -23.874  0.00  0.00    -0.196 N 
ATOM      8  C   UNL     1      32.573 -11.904 -22.922  0.00  0.00    +0.129 A 
ATOM      9  C   UNL     1      33.545 -11.728 -24.011  0.00  0.00    +0.129 A 
ATOM     10  C   UNL     1      32.145 -10.831 -22.118  0.00  0.00    +0.062 A 
ATOM     11  C   UNL     1      34.110 -10.476 -24.317  0.00  0.00    +0.062 A 
ATOM     12  C   UNL     1      32.725  -9.592 -22.446  0.00  0.00    +0.049 A 
ATOM     13  C   UNL     1      33.665  -9.422 -23.498  0.00  0.00    +0.049 A 
ATOM     14  H   UNL     1      32.890 -14.681 -24.080  0.00  0.00    +0.213 HD
ENDROOT
TORSDOF 0
ENDMDL
MODEL 3
REMARK VINA RESULT:      -6.8      4.524      5.683
REMARK  Name = 1694
REMARK  0 active torsions:
REMARK  status: ('A' for Active; 'I' for Inactive)
REMARK                            x       y       z     vdW  Elec       q    Type
REMARK                         _______ _______ _______ _____ _____    ______ ____
ROOT
ATOM      1 BR   UNL     1      34.925 -18.393 -24.694  0.00  0.00    -0.047 Br
ATOM      2 BR   UNL     1      32.351 -12.484 -22.689  0.00  0.00    -0.047 Br
ATOM      3 BR   UNL     1      34.646 -17.686 -21.382  0.00  0.00    -0.048 Br
ATOM      4 BR   UNL     1      33.378 -14.769 -20.392  0.00  0.00    -0.048 Br
ATOM      5  N   UNL     1      33.773 -15.807 -26.310  0.00  0.00    -0.154 NA
ATOM      6  N   UNL     1      32.894 -13.789 -25.625  0.00  0.00    -0.154 NA
ATOM      7  N   UNL     1      33.247 -14.618 -26.611  0.00  0.00    -0.196 N 
ATOM      8  C   UNL     1      33.776 -15.784 -24.967  0.00  0.00    +0.129 A 
ATOM      9  C   UNL     1      33.216 -14.497 -24.531  0.00  0.00    +0.129 A 
ATOM     10  C   UNL     1      34.214 -16.761 -24.053  0.00  0.00    +0.062 A 
ATOM     11  C   UNL     1      33.082 -14.161 -23.171  0.00  0.00    +0.062 A 
ATOM     12  C   UNL     1      34.069 -16.398 -22.702  0.00  0.00    +0.049 A 
ATOM     13  C   UNL     1      33.527 -15.154 -22.279  0.00  0.00    +0.049 A 
ATOM     14  H   UNL     1      33.122 -14.353 -27.551  0.00  0.00    +0.213 HD
ENDROOT
TORSDOF 0
ENDMDL
MODEL 4
REMARK VINA RESULT:      -6.8      4.569      6.100
REMARK  Name = 1694
REMARK  0 active torsions:
REMARK  status: ('A' for Active; 'I' for Inactive)
REMARK                            x       y       z     vdW  Elec       q    Type
REMARK                         _______ _______ _______ _____ _____    ______ ____
ROOT
ATOM      1 BR   UNL     1      32.329 -12.565 -22.653  0.00  0.00    -0.047 Br
ATOM      2 BR   UNL     1      34.994 -18.433 -24.660  0.00  0.00    -0.047 Br
ATOM      3 BR   UNL     1      33.394 -14.833 -20.357  0.00  0.00    -0.048 Br
ATOM      4 BR   UNL     1      34.707 -17.730 -21.347  0.00  0.00    -0.048 Br
ATOM      5  N   UNL     1      32.892 -13.862 -25.590  0.00  0.00    -0.154 NA
ATOM      6  N   UNL     1      33.801 -15.866 -26.275  0.00  0.00    -0.154 NA
ATOM      7  N   UNL     1      33.257 -14.684 -26.576  0.00  0.00    -0.196 N 
ATOM      8  C   UNL     1      33.226 -14.565 -24.495  0.00  0.00    +0.129 A 
ATOM      9  C   UNL     1      33.806 -15.843 -24.933  0.00  0.00    +0.129 A 
ATOM     10  C   UNL     1      33.087 -14.230 -23.135  0.00  0.00    +0.062 A 
ATOM     11  C   UNL     1      34.259 -16.812 -24.019  0.00  0.00    +0.062 A 
ATOM     12  C   UNL     1      33.548 -15.217 -22.245  0.00  0.00    +0.049 A 
ATOM     13  C   UNL     1      34.109 -16.452 -22.667  0.00  0.00    +0.049 A 
ATOM     14  H   UNL     1      33.127 -14.422 -27.516  0.00  0.00    +0.213 HD
ENDROOT
TORSDOF 0
ENDMDL
MODEL 5
REMARK VINA RESULT:      -6.6      5.371      6.567
REMARK  Name = 1694
REMARK  0 active torsions:
REMARK  status: ('A' for Active; 'I' for Inactive)
REMARK                            x       y       z     vdW  Elec       q    Type
REMARK                         _______ _______ _______ _____ _____    ______ ____
ROOT
ATOM      1 BR   UNL     1      35.508 -18.112 -20.846  0.00  0.00    -0.047 Br
ATOM      2 BR   UNL     1      33.115 -14.800 -26.219  0.00  0.00    -0.047 Br
ATOM      3 BR   UNL     1      34.477 -14.888 -20.547  0.00  0.00    -0.048 Br
ATOM      4 BR   UNL     1      33.298 -13.252 -23.198  0.00  0.00    -0.048 Br
ATOM      5  N   UNL     1      35.062 -18.958 -23.962  0.00  0.00    -0.154 NA
ATOM      6  N   UNL     1      34.246 -17.827 -25.797  0.00  0.00    -0.154 NA
ATOM      7  N   UNL     1      34.751 -18.941 -25.260  0.00  0.00    -0.196 N 
ATOM      8  C   UNL     1      34.731 -17.716 -23.573  0.00  0.00    +0.129 A 
ATOM      9  C   UNL     1      34.210 -16.996 -24.744  0.00  0.00    +0.129 A 
ATOM     10  C   UNL     1      34.825 -17.117 -22.303  0.00  0.00    +0.062 A 
ATOM     11  C   UNL     1      33.773 -15.660 -24.667  0.00  0.00    +0.062 A 
ATOM     12  C   UNL     1      34.381 -15.783 -22.256  0.00  0.00    +0.049 A 
ATOM     13  C   UNL     1      33.878 -15.085 -23.387  0.00  0.00    +0.049 A 
ATOM     14  H   UNL     1      34.893 -19.740 -25.816  0.00  0.00    +0.213 HD
ENDROOT
TORSDOF 0
ENDMDL
MODEL 6
REMARK VINA RESULT:      -6.6      1.779      3.561
REMARK  Name = 1694
REMARK  0 active torsions:
REMARK  status: ('A' for Active; 'I' for Inactive)
REMARK                            x       y       z     vdW  Elec       q    Type
REMARK                         _______ _______ _______ _____ _____    ______ ____
ROOT
ATOM      1 BR   UNL     1      32.333  -7.240 -21.393  0.00  0.00    -0.047 Br
ATOM      2 BR   UNL     1      33.602 -13.118 -24.458  0.00  0.00    -0.047 Br
ATOM      3 BR   UNL     1      34.559  -7.385 -23.957  0.00  0.00    -0.048 Br
ATOM      4 BR   UNL     1      35.187 -10.286 -25.468  0.00  0.00    -0.048 Br
ATOM      5  N   UNL     1      31.204 -10.265 -20.952  0.00  0.00    -0.154 NA
ATOM      6  N   UNL     1      31.638 -12.273 -21.999  0.00  0.00    -0.154 NA
ATOM      7  N   UNL     1      30.984 -11.577 -21.065  0.00  0.00    -0.196 N 
ATOM      8  C   UNL     1      32.111 -10.045 -21.918  0.00  0.00    +0.129 A 
ATOM      9  C   UNL     1      32.387 -11.326 -22.585  0.00  0.00    +0.129 A 
ATOM     10  C   UNL     1      32.742  -8.847 -22.302  0.00  0.00    +0.062 A 
ATOM     11  C   UNL     1      33.301 -11.434 -23.651  0.00  0.00    +0.062 A 
ATOM     12  C   UNL     1      33.650  -8.985 -23.368  0.00  0.00    +0.049 A 
ATOM     13  C   UNL     1      33.917 -10.222 -24.014  0.00  0.00    +0.049 A 
ATOM     14  H   UNL     1      30.345 -12.027 -20.467  0.00  0.00    +0.213 HD
ENDROOT
TORSDOF 0
ENDMDL
MODEL 7
REMARK VINA RESULT:      -6.6      1.829      2.979
REMARK  Name = 1694
REMARK  0 active torsions:
REMARK  status: ('A' for Active; 'I' for Inactive)
REMARK                            x       y       z     vdW  Elec       q    Type
REMARK                         _______ _______ _______ _____ _____    ______ ____
ROOT
ATOM      1 BR   UNL     1      33.522 -13.146 -24.361  0.00  0.00    -0.047 Br
ATOM      2 BR   UNL     1      32.320  -7.191 -21.421  0.00  0.00    -0.047 Br
ATOM      3 BR   UNL     1      35.159 -10.360 -25.413  0.00  0.00    -0.048 Br
ATOM      4 BR   UNL     1      34.564  -7.420 -23.964  0.00  0.00    -0.048 Br
ATOM      5  N   UNL     1      31.553 -12.223 -21.934  0.00  0.00    -0.154 NA
ATOM      6  N   UNL     1      31.142 -10.189 -20.930  0.00  0.00    -0.154 NA
ATOM      7  N   UNL     1      30.902 -11.500 -21.020  0.00  0.00    -0.196 N 
ATOM      8  C   UNL     1      32.321 -11.299 -22.533  0.00  0.00    +0.129 A 
ATOM      9  C   UNL     1      32.059 -10.002 -21.893  0.00  0.00    +0.129 A 
ATOM     10  C   UNL     1      33.241 -11.443 -23.589  0.00  0.00    +0.062 A 
ATOM     11  C   UNL     1      32.712  -8.822 -22.295  0.00  0.00    +0.062 A 
ATOM     12  C   UNL     1      33.879 -10.248 -23.970  0.00  0.00    +0.049 A 
ATOM     13  C   UNL     1      33.626  -8.994 -23.351  0.00  0.00    +0.049 A 
ATOM     14  H   UNL     1      30.253 -11.928 -20.417  0.00  0.00    +0.213 HD
ENDROOT
TORSDOF 0
ENDMDL
MODEL 8
REMARK VINA RESULT:      -6.5     13.812     14.910
REMARK  Name = 1694
REMARK  0 active torsions:
REMARK  status: ('A' for Active; 'I' for Inactive)
REMARK                            x       y       z     vdW  Elec       q    Type
REMARK                         _______ _______ _______ _____ _____    ______ ____
ROOT
ATOM      1 BR   UNL     1      30.068 -23.139 -16.489  0.00  0.00    -0.047 Br
ATOM      2 BR   UNL     1      36.742 -23.438 -15.522  0.00  0.00    -0.047 Br
ATOM      3 BR   UNL     1      31.318 -24.082 -13.472  0.00  0.00    -0.048 Br
ATOM      4 BR   UNL     1      34.611 -24.232 -12.996  0.00  0.00    -0.048 Br
ATOM      5  N   UNL     1      32.623 -22.532 -18.419  0.00  0.00    -0.154 NA
ATOM      6  N   UNL     1      34.902 -22.634 -18.089  0.00  0.00    -0.154 NA
ATOM      7  N   UNL     1      33.863 -22.383 -18.890  0.00  0.00    -0.196 N 
ATOM      8  C   UNL     1      32.845 -22.928 -17.155  0.00  0.00    +0.129 A 
ATOM      9  C   UNL     1      34.298 -22.993 -16.945  0.00  0.00    +0.129 A 
ATOM     10  C   UNL     1      31.924 -23.247 -16.139  0.00  0.00    +0.062 A 
ATOM     11  C   UNL     1      34.861 -23.378 -15.714  0.00  0.00    +0.062 A 
ATOM     12  C   UNL     1      32.514 -23.628 -14.921  0.00  0.00    +0.049 A 
ATOM     13  C   UNL     1      33.919 -23.692 -14.717  0.00  0.00    +0.049 A 
ATOM     14  H   UNL     1      34.011 -22.092 -19.819  0.00  0.00    +0.213 HD
ENDROOT
TORSDOF 0
ENDMDL
MODEL 9
REMARK VINA RESULT:      -6.5     13.793     14.711
REMARK  Name = 1694
REMARK  0 active torsions:
REMARK  status: ('A' for Active; 'I' for Inactive)
REMARK                            x       y       z     vdW  Elec       q    Type
REMARK                         _______ _______ _______ _____ _____    ______ ____
ROOT
ATOM      1 BR   UNL     1      36.670 -23.529 -15.460  0.00  0.00    -0.047 Br
ATOM      2 BR   UNL     1      30.018 -23.058 -16.500  0.00  0.00    -0.047 Br
ATOM      3 BR   UNL     1      34.492 -24.276 -12.960  0.00  0.00    -0.048 Br
ATOM      4 BR   UNL     1      31.210 -24.041 -13.473  0.00  0.00    -0.048 Br
ATOM      5  N   UNL     1      34.880 -22.672 -18.045  0.00  0.00    -0.154 NA
ATOM      6  N   UNL     1      32.608 -22.511 -18.400  0.00  0.00    -0.154 NA
ATOM      7  N   UNL     1      33.858 -22.393 -18.857  0.00  0.00    -0.196 N 
ATOM      8  C   UNL     1      34.254 -23.019 -16.909  0.00  0.00    +0.129 A 
ATOM      9  C   UNL     1      32.805 -22.916 -17.136  0.00  0.00    +0.129 A 
ATOM     10  C   UNL     1      34.794 -23.422 -15.673  0.00  0.00    +0.062 A 
ATOM     11  C   UNL     1      31.866 -23.214 -16.130  0.00  0.00    +0.062 A 
ATOM     12  C   UNL     1      33.833 -23.714 -14.687  0.00  0.00    +0.049 A 
ATOM     13  C   UNL     1      32.432 -23.614 -14.906  0.00  0.00    +0.049 A 
ATOM     14  H   UNL     1      34.022 -22.104 -19.783  0.00  0.00    +0.213 HD
ENDROOT
TORSDOF 0
ENDMDL
