MODEL 1
REMARK VINA RESULT:      -6.3      0.000      0.000
REMARK  Name = 58049682
REMARK  2 active torsions:
REMARK  status: ('A' for Active; 'I' for Inactive)
REMARK    1  A    between atoms: C_2  and  C_4
REMARK    2  A    between atoms: C_2  and  N_10
REMARK                            x       y       z     vdW  Elec       q    Type
REMARK                         _______ _______ _______ _____ _____    ______ ____
ROOT
ATOM      1  N   UNL     1      33.792 -23.505 -18.732  0.00  0.00    -0.287 NA
ATOM      2  C   UNL     1      34.555 -22.443 -18.699  0.00  0.00    +0.101 C 
ATOM      3  H   UNL     1      33.947 -24.242 -18.099  0.00  0.00    +0.188 HD
ENDROOT
BRANCH   2   4
ATOM      4  C   UNL     1      34.382 -21.316 -19.603  0.00  0.00    +0.029 C 
ATOM      5  C   UNL     1      33.102 -20.847 -19.894  0.00  0.00    +0.003 C 
ATOM      6  C   UNL     1      35.497 -20.707 -20.179  0.00  0.00    +0.003 C 
ATOM      7  C   UNL     1      32.935 -19.768 -20.762  0.00  0.00    +0.000 C 
ATOM      8  C   UNL     1      35.330 -19.628 -21.047  0.00  0.00    +0.000 C 
ATOM      9  C   UNL     1      34.049 -19.158 -21.338  0.00  0.00    +0.000 C 
ENDBRANCH   2   4
BRANCH   2  10
ATOM     10  N   UNL     1      35.617 -22.443 -17.679  0.00  0.00    -0.402 NA
ATOM     11  H   UNL     1      35.393 -22.293 -16.733  0.00  0.00    +0.122 HD
ATOM     12  H   UNL     1      36.554 -22.595 -17.944  0.00  0.00    +0.122 HD
ATOM     13  H   UNL     1      35.306 -21.668 -17.159  0.00  0.00    +0.122 HD
ENDBRANCH   2  10
TORSDOF 2
ENDMDL
MODEL 2
REMARK VINA RESULT:      -6.3      0.029      1.611
REMARK  Name = 58049682
REMARK  2 active torsions:
REMARK  status: ('A' for Active; 'I' for Inactive)
REMARK    1  A    between atoms: C_2  and  C_4
REMARK    2  A    between atoms: C_2  and  N_10
REMARK                            x       y       z     vdW  Elec       q    Type
REMARK                         _______ _______ _______ _____ _____    ______ ____
ROOT
ATOM      1  N   UNL     1      33.802 -23.526 -18.725  0.00  0.00    -0.287 NA
ATOM      2  C   UNL     1      34.552 -22.455 -18.688  0.00  0.00    +0.101 C 
ATOM      3  H   UNL     1      33.964 -24.262 -18.092  0.00  0.00    +0.188 HD
ENDROOT
BRANCH   2   4
ATOM      4  C   UNL     1      34.371 -21.330 -19.591  0.00  0.00    +0.029 C 
ATOM      5  C   UNL     1      35.479 -20.730 -20.187  0.00  0.00    +0.003 C 
ATOM      6  C   UNL     1      33.089 -20.850 -19.860  0.00  0.00    +0.003 C 
ATOM      7  C   UNL     1      35.307 -19.650 -21.053  0.00  0.00    +0.000 C 
ATOM      8  C   UNL     1      32.915 -19.770 -20.725  0.00  0.00    +0.000 C 
ATOM      9  C   UNL     1      34.025 -19.170 -21.322  0.00  0.00    +0.000 C 
ENDBRANCH   2   4
BRANCH   2  10
ATOM     10  N   UNL     1      35.612 -22.445 -17.664  0.00  0.00    -0.402 NA
ATOM     11  H   UNL     1      36.537 -22.226 -17.915  0.00  0.00    +0.122 HD
ATOM     12  H   UNL     1      35.392 -22.657 -16.727  0.00  0.00    +0.122 HD
ATOM     13  H   UNL     1      36.310 -22.900 -18.187  0.00  0.00    +0.122 HD
ENDBRANCH   2  10
TORSDOF 2
ENDMDL
MODEL 3
REMARK VINA RESULT:      -6.1      3.423      4.449
REMARK  Name = 58049682
REMARK  2 active torsions:
REMARK  status: ('A' for Active; 'I' for Inactive)
REMARK    1  A    between atoms: C_2  and  C_4
REMARK    2  A    between atoms: C_2  and  N_10
REMARK                            x       y       z     vdW  Elec       q    Type
REMARK                         _______ _______ _______ _____ _____    ______ ____
ROOT
ATOM      1  N   UNL     1      35.011 -16.770 -21.568  0.00  0.00    -0.287 NA
ATOM      2  C   UNL     1      35.281 -18.004 -21.907  0.00  0.00    +0.101 C 
ATOM      3  H   UNL     1      35.344 -16.025 -22.119  0.00  0.00    +0.188 HD
ENDROOT
BRANCH   2   4
ATOM      4  C   UNL     1      34.822 -19.153 -21.141  0.00  0.00    +0.029 C 
ATOM      5  C   UNL     1      35.748 -20.054 -20.617  0.00  0.00    +0.003 C 
ATOM      6  C   UNL     1      33.458 -19.354 -20.933  0.00  0.00    +0.003 C 
ATOM      7  C   UNL     1      35.310 -21.157 -19.884  0.00  0.00    +0.000 C 
ATOM      8  C   UNL     1      33.019 -20.456 -20.201  0.00  0.00    +0.000 C 
ATOM      9  C   UNL     1      33.945 -21.358 -19.676  0.00  0.00    +0.000 C 
ENDBRANCH   2   4
BRANCH   2  10
ATOM     10  N   UNL     1      36.088 -18.177 -23.127  0.00  0.00    -0.402 NA
ATOM     11  H   UNL     1      35.953 -17.578 -23.896  0.00  0.00    +0.122 HD
ATOM     12  H   UNL     1      36.765 -18.892 -23.172  0.00  0.00    +0.122 HD
ATOM     13  H   UNL     1      35.367 -18.053 -23.784  0.00  0.00    +0.122 HD
ENDBRANCH   2  10
TORSDOF 2
ENDMDL
MODEL 4
REMARK VINA RESULT:      -6.1      3.414      4.175
REMARK  Name = 58049682
REMARK  2 active torsions:
REMARK  status: ('A' for Active; 'I' for Inactive)
REMARK    1  A    between atoms: C_2  and  C_4
REMARK    2  A    between atoms: C_2  and  N_10
REMARK                            x       y       z     vdW  Elec       q    Type
REMARK                         _______ _______ _______ _____ _____    ______ ____
ROOT
ATOM      1  N   UNL     1      34.971 -16.803 -21.615  0.00  0.00    -0.287 NA
ATOM      2  C   UNL     1      35.272 -18.035 -21.935  0.00  0.00    +0.101 C 
ATOM      3  H   UNL     1      35.278 -16.059 -22.182  0.00  0.00    +0.188 HD
ENDROOT
BRANCH   2   4
ATOM      4  C   UNL     1      34.853 -19.182 -21.145  0.00  0.00    +0.029 C 
ATOM      5  C   UNL     1      33.496 -19.418 -20.927  0.00  0.00    +0.003 C 
ATOM      6  C   UNL     1      35.806 -20.045 -20.606  0.00  0.00    +0.003 C 
ATOM      7  C   UNL     1      33.091 -20.517 -20.169  0.00  0.00    +0.000 C 
ATOM      8  C   UNL     1      35.403 -21.144 -19.848  0.00  0.00    +0.000 C 
ATOM      9  C   UNL     1      34.045 -21.380 -19.629  0.00  0.00    +0.000 C 
ENDBRANCH   2   4
BRANCH   2  10
ATOM     10  N   UNL     1      36.073 -18.207 -23.159  0.00  0.00    -0.402 NA
ATOM     11  H   UNL     1      35.713 -17.918 -24.028  0.00  0.00    +0.122 HD
ATOM     12  H   UNL     1      36.970 -18.611 -23.108  0.00  0.00    +0.122 HD
ATOM     13  H   UNL     1      35.353 -18.528 -23.748  0.00  0.00    +0.122 HD
ENDBRANCH   2  10
TORSDOF 2
ENDMDL
MODEL 5
REMARK VINA RESULT:      -5.8      4.020      5.066
REMARK  Name = 58049682
REMARK  2 active torsions:
REMARK  status: ('A' for Active; 'I' for Inactive)
REMARK    1  A    between atoms: C_2  and  C_4
REMARK    2  A    between atoms: C_2  and  N_10
REMARK                            x       y       z     vdW  Elec       q    Type
REMARK                         _______ _______ _______ _____ _____    ______ ____
ROOT
ATOM      1  N   UNL     1      35.957 -18.689 -20.589  0.00  0.00    -0.287 NA
ATOM      2  C   UNL     1      35.382 -17.693 -21.212  0.00  0.00    +0.101 C 
ATOM      3  H   UNL     1      36.156 -18.619 -19.627  0.00  0.00    +0.188 HD
ENDROOT
BRANCH   2   4
ATOM      4  C   UNL     1      35.060 -17.728 -22.629  0.00  0.00    +0.029 C 
ATOM      5  C   UNL     1      34.810 -18.948 -23.257  0.00  0.00    +0.003 C 
ATOM      6  C   UNL     1      35.001 -16.542 -23.362  0.00  0.00    +0.003 C 
ATOM      7  C   UNL     1      34.502 -18.983 -24.617  0.00  0.00    +0.000 C 
ATOM      8  C   UNL     1      34.693 -16.576 -24.721  0.00  0.00    +0.000 C 
ATOM      9  C   UNL     1      34.443 -17.798 -25.349  0.00  0.00    +0.000 C 
ENDBRANCH   2   4
BRANCH   2  10
ATOM     10  N   UNL     1      35.070 -16.511 -20.390  0.00  0.00    -0.402 NA
ATOM     11  H   UNL     1      35.237 -16.528 -19.420  0.00  0.00    +0.122 HD
ATOM     12  H   UNL     1      34.696 -15.704 -20.812  0.00  0.00    +0.122 HD
ATOM     13  H   UNL     1      34.660 -16.981 -19.628  0.00  0.00    +0.122 HD
ENDBRANCH   2  10
TORSDOF 2
ENDMDL
MODEL 6
REMARK VINA RESULT:      -5.8      7.083      7.976
REMARK  Name = 58049682
REMARK  2 active torsions:
REMARK  status: ('A' for Active; 'I' for Inactive)
REMARK    1  A    between atoms: C_2  and  C_4
REMARK    2  A    between atoms: C_2  and  N_10
REMARK                            x       y       z     vdW  Elec       q    Type
REMARK                         _______ _______ _______ _____ _____    ______ ____
ROOT
ATOM      1  N   UNL     1      27.744 -23.235 -17.721  0.00  0.00    -0.287 NA
ATOM      2  C   UNL     1      27.829 -23.049 -16.429  0.00  0.00    +0.101 C 
ATOM      3  H   UNL     1      26.958 -22.908 -18.215  0.00  0.00    +0.188 HD
ENDROOT
BRANCH   2   4
ATOM      4  C   UNL     1      28.961 -23.503 -15.637  0.00  0.00    +0.029 C 
ATOM      5  C   UNL     1      29.079 -24.852 -15.301  0.00  0.00    +0.003 C 
ATOM      6  C   UNL     1      29.927 -22.591 -15.212  0.00  0.00    +0.003 C 
ATOM      7  C   UNL     1      30.163 -25.289 -14.540  0.00  0.00    +0.000 C 
ATOM      8  C   UNL     1      31.011 -23.028 -14.451  0.00  0.00    +0.000 C 
ATOM      9  C   UNL     1      31.129 -24.377 -14.115  0.00  0.00    +0.000 C 
ENDBRANCH   2   4
BRANCH   2  10
ATOM     10  N   UNL     1      26.698 -22.342 -15.804  0.00  0.00    -0.402 NA
ATOM     11  H   UNL     1      26.117 -22.811 -15.164  0.00  0.00    +0.122 HD
ATOM     12  H   UNL     1      26.524 -21.398 -16.026  0.00  0.00    +0.122 HD
ATOM     13  H   UNL     1      26.031 -23.062 -15.878  0.00  0.00    +0.122 HD
ENDBRANCH   2  10
TORSDOF 2
ENDMDL
MODEL 7
REMARK VINA RESULT:      -5.6      3.397      4.600
REMARK  Name = 58049682
REMARK  2 active torsions:
REMARK  status: ('A' for Active; 'I' for Inactive)
REMARK    1  A    between atoms: C_2  and  C_4
REMARK    2  A    between atoms: C_2  and  N_10
REMARK                            x       y       z     vdW  Elec       q    Type
REMARK                         _______ _______ _______ _____ _____    ______ ____
ROOT
ATOM      1  N   UNL     1      36.127 -19.015 -20.602  0.00  0.00    -0.287 NA
ATOM      2  C   UNL     1      35.041 -19.042 -21.330  0.00  0.00    +0.101 C 
ATOM      3  H   UNL     1      36.165 -19.517 -19.755  0.00  0.00    +0.188 HD
ENDROOT
BRANCH   2   4
ATOM      4  C   UNL     1      34.916 -18.326 -22.590  0.00  0.00    +0.029 C 
ATOM      5  C   UNL     1      35.057 -16.939 -22.619  0.00  0.00    +0.003 C 
ATOM      6  C   UNL     1      34.655 -19.026 -23.768  0.00  0.00    +0.003 C 
ATOM      7  C   UNL     1      34.936 -16.250 -23.827  0.00  0.00    +0.000 C 
ATOM      8  C   UNL     1      34.533 -18.338 -24.975  0.00  0.00    +0.000 C 
ATOM      9  C   UNL     1      34.674 -16.950 -25.005  0.00  0.00    +0.000 C 
ENDBRANCH   2   4
BRANCH   2  10
ATOM     10  N   UNL     1      33.929 -19.849 -20.801  0.00  0.00    -0.402 NA
ATOM     11  H   UNL     1      33.509 -20.538 -21.364  0.00  0.00    +0.122 HD
ATOM     12  H   UNL     1      33.605 -19.699 -19.882  0.00  0.00    +0.122 HD
ATOM     13  H   UNL     1      33.356 -19.831 -21.601  0.00  0.00    +0.122 HD
ENDBRANCH   2  10
TORSDOF 2
ENDMDL
MODEL 8
REMARK VINA RESULT:      -5.6      4.947      6.164
REMARK  Name = 58049682
REMARK  2 active torsions:
REMARK  status: ('A' for Active; 'I' for Inactive)
REMARK    1  A    between atoms: C_2  and  C_4
REMARK    2  A    between atoms: C_2  and  N_10
REMARK                            x       y       z     vdW  Elec       q    Type
REMARK                         _______ _______ _______ _____ _____    ______ ____
ROOT
ATOM      1  N   UNL     1      34.687 -14.254 -22.566  0.00  0.00    -0.287 NA
ATOM      2  C   UNL     1      34.728 -15.457 -22.053  0.00  0.00    +0.101 C 
ATOM      3  H   UNL     1      34.698 -13.466 -21.976  0.00  0.00    +0.188 HD
ENDROOT
BRANCH   2   4
ATOM      4  C   UNL     1      34.715 -16.664 -22.863  0.00  0.00    +0.029 C 
ATOM      5  C   UNL     1      34.581 -16.570 -24.248  0.00  0.00    +0.003 C 
ATOM      6  C   UNL     1      34.835 -17.914 -22.257  0.00  0.00    +0.003 C 
ATOM      7  C   UNL     1      34.567 -17.728 -25.028  0.00  0.00    +0.000 C 
ATOM      8  C   UNL     1      34.821 -19.071 -23.035  0.00  0.00    +0.000 C 
ATOM      9  C   UNL     1      34.687 -18.978 -24.421  0.00  0.00    +0.000 C 
ENDBRANCH   2   4
BRANCH   2  10
ATOM     10  N   UNL     1      34.790 -15.529 -20.582  0.00  0.00    -0.402 NA
ATOM     11  H   UNL     1      35.659 -15.484 -20.123  0.00  0.00    +0.122 HD
ATOM     12  H   UNL     1      33.961 -15.621 -20.059  0.00  0.00    +0.122 HD
ATOM     13  H   UNL     1      35.563 -16.134 -20.510  0.00  0.00    +0.122 HD
ENDBRANCH   2  10
TORSDOF 2
ENDMDL
MODEL 9
REMARK VINA RESULT:      -5.6      5.777      6.977
REMARK  Name = 58049682
REMARK  2 active torsions:
REMARK  status: ('A' for Active; 'I' for Inactive)
REMARK    1  A    between atoms: C_2  and  C_4
REMARK    2  A    between atoms: C_2  and  N_10
REMARK                            x       y       z     vdW  Elec       q    Type
REMARK                         _______ _______ _______ _____ _____    ______ ____
ROOT
ATOM      1  N   UNL     1      34.540 -17.844 -25.486  0.00  0.00    -0.287 NA
ATOM      2  C   UNL     1      34.260 -16.633 -25.079  0.00  0.00    +0.101 C 
ATOM      3  H   UNL     1      34.440 -18.079 -26.437  0.00  0.00    +0.188 HD
ENDROOT
BRANCH   2   4
ATOM      4  C   UNL     1      34.384 -16.217 -23.691  0.00  0.00    +0.029 C 
ATOM      5  C   UNL     1      34.160 -14.886 -23.341  0.00  0.00    +0.003 C 
ATOM      6  C   UNL     1      34.730 -17.147 -22.710  0.00  0.00    +0.003 C 
ATOM      7  C   UNL     1      34.281 -14.484 -22.010  0.00  0.00    +0.000 C 
ATOM      8  C   UNL     1      34.850 -16.747 -21.380  0.00  0.00    +0.000 C 
ATOM      9  C   UNL     1      34.626 -15.415 -21.030  0.00  0.00    +0.000 C 
ENDBRANCH   2   4
BRANCH   2  10
ATOM     10  N   UNL     1      33.803 -15.693 -26.117  0.00  0.00    -0.402 NA
ATOM     11  H   UNL     1      34.445 -15.328 -26.767  0.00  0.00    +0.122 HD
ATOM     12  H   UNL     1      32.855 -15.429 -26.159  0.00  0.00    +0.122 HD
ATOM     13  H   UNL     1      34.554 -15.059 -26.063  0.00  0.00    +0.122 HD
ENDBRANCH   2  10
TORSDOF 2
ENDMDL
