MODEL 1
REMARK VINA RESULT:      -9.3      0.000      0.000
REMARK  Name = 448768
REMARK  4 active torsions:
REMARK  status: ('A' for Active; 'I' for Inactive)
REMARK    1  A    between atoms: C_4  and  S_13
REMARK    2  A    between atoms: C_5  and  C_12
REMARK    3  A    between atoms: S_13  and  C_14
REMARK    4  A    between atoms: C_14  and  C_22
REMARK                            x       y       z     vdW  Elec       q    Type
REMARK                         _______ _______ _______ _____ _____    ______ ____
ROOT
ATOM      1  O   UNL     1      33.461 -15.623 -26.682  0.00  0.00    -0.209 OA
ATOM      2  N   UNL     1      34.497 -16.520 -22.947  0.00  0.00    -0.279 N 
ATOM      3  N   UNL     1      33.675 -14.928 -24.495  0.00  0.00    -0.311 NA
ATOM      4  C   UNL     1      34.028 -15.281 -23.295  0.00  0.00    +0.224 C 
ATOM      5  C   UNL     1      34.622 -17.498 -23.902  0.00  0.00    +0.135 C 
ATOM      6  C   UNL     1      34.281 -17.230 -25.174  0.00  0.00    +0.125 C 
ATOM      7  C   UNL     1      33.771 -15.862 -25.518  0.00  0.00    +0.208 C 
ATOM      8  H   UNL     1      34.745 -16.708 -22.013  0.00  0.00    +0.155 HD
ENDROOT
BRANCH   5  12
ATOM      9  F   UNL     1      34.361 -19.365 -22.504  0.00  0.00    -0.165 F 
ATOM     10  F   UNL     1      35.167 -19.701 -24.502  0.00  0.00    -0.165 F 
ATOM     11  F   UNL     1      36.394 -18.735 -22.981  0.00  0.00    -0.165 F 
ATOM     12  C   UNL     1      35.140 -18.834 -23.470  0.00  0.00    +0.432 C 
ENDBRANCH   5  12
BRANCH   4  13
ATOM     13  S   UNL     1      33.905 -14.104 -22.018  0.00  0.00    -0.056 S 
BRANCH  13  14
ATOM     14  C   UNL     1      32.277 -13.436 -22.385  0.00  0.00    +0.151 C 
BRANCH  14  22
ATOM     15  O   UNL     1      33.110 -11.631 -23.674  0.00  0.00    -0.274 OA
ATOM     16  N   UNL     1      31.813 -11.074 -21.828  0.00  0.00    -0.279 N 
ATOM     17  C   UNL     1      31.586  -9.255 -19.591  0.00  0.00    +0.004 C 
ATOM     18  C   UNL     1      32.443  -8.919 -20.811  0.00  0.00    +0.022 C 
ATOM     19  C   UNL     1      31.470 -10.767 -19.406  0.00  0.00    +0.022 C 
ATOM     20  C   UNL     1      31.930  -9.633 -22.059  0.00  0.00    +0.093 C 
ATOM     21  C   UNL     1      30.976 -11.446 -20.681  0.00  0.00    +0.093 C 
ATOM     22  C   UNL     1      32.441 -11.969 -22.694  0.00  0.00    +0.237 C 
ENDBRANCH  14  22
ENDBRANCH  13  14
ENDBRANCH   4  13
TORSDOF 4
ENDMDL
MODEL 2
REMARK VINA RESULT:      -9.1      1.987      2.595
REMARK  Name = 448768
REMARK  4 active torsions:
REMARK  status: ('A' for Active; 'I' for Inactive)
REMARK    1  A    between atoms: C_4  and  S_13
REMARK    2  A    between atoms: C_5  and  C_12
REMARK    3  A    between atoms: S_13  and  C_14
REMARK    4  A    between atoms: C_14  and  C_22
REMARK                            x       y       z     vdW  Elec       q    Type
REMARK                         _______ _______ _______ _____ _____    ______ ____
ROOT
ATOM      1  O   UNL     1      34.874 -15.237 -20.069  0.00  0.00    -0.209 OA
ATOM      2  N   UNL     1      34.233 -16.003 -23.920  0.00  0.00    -0.279 N 
ATOM      3  N   UNL     1      34.204 -14.453 -22.130  0.00  0.00    -0.311 NA
ATOM      4  C   UNL     1      34.014 -14.766 -23.377  0.00  0.00    +0.224 C 
ATOM      5  C   UNL     1      34.687 -17.028 -23.126  0.00  0.00    +0.135 C 
ATOM      6  C   UNL     1      34.915 -16.804 -21.821  0.00  0.00    +0.125 C 
ATOM      7  C   UNL     1      34.664 -15.435 -21.262  0.00  0.00    +0.208 C 
ATOM      8  H   UNL     1      34.063 -16.159 -24.877  0.00  0.00    +0.155 HD
ENDROOT
BRANCH   5  12
ATOM      9  F   UNL     1      34.177 -19.319 -23.160  0.00  0.00    -0.165 F 
ATOM     10  F   UNL     1      34.560 -18.338 -25.069  0.00  0.00    -0.165 F 
ATOM     11  F   UNL     1      36.207 -18.727 -23.695  0.00  0.00    -0.165 F 
ATOM     12  C   UNL     1      34.909 -18.362 -23.767  0.00  0.00    +0.432 C 
ENDBRANCH   5  12
BRANCH   4  13
ATOM     13  S   UNL     1      33.436 -13.529 -24.458  0.00  0.00    -0.056 S 
BRANCH  13  14
ATOM     14  C   UNL     1      32.991 -12.268 -23.257  0.00  0.00    +0.151 C 
BRANCH  14  22
ATOM     15  O   UNL     1      34.334 -10.918 -24.667  0.00  0.00    -0.274 OA
ATOM     16  N   UNL     1      32.891  -9.799 -23.230  0.00  0.00    -0.279 N 
ATOM     17  C   UNL     1      32.658  -7.540 -21.439  0.00  0.00    +0.004 C 
ATOM     18  C   UNL     1      33.741  -7.599 -22.515  0.00  0.00    +0.022 C 
ATOM     19  C   UNL     1      32.237  -8.945 -21.011  0.00  0.00    +0.022 C 
ATOM     20  C   UNL     1      33.306  -8.472 -23.689  0.00  0.00    +0.093 C 
ATOM     21  C   UNL     1      31.831  -9.793 -22.214  0.00  0.00    +0.093 C 
ATOM     22  C   UNL     1      33.470 -10.940 -23.787  0.00  0.00    +0.237 C 
ENDBRANCH  14  22
ENDBRANCH  13  14
ENDBRANCH   4  13
TORSDOF 4
ENDMDL
MODEL 3
REMARK VINA RESULT:      -8.9      4.817      8.172
REMARK  Name = 448768
REMARK  4 active torsions:
REMARK  status: ('A' for Active; 'I' for Inactive)
REMARK    1  A    between atoms: C_4  and  S_13
REMARK    2  A    between atoms: C_5  and  C_12
REMARK    3  A    between atoms: S_13  and  C_14
REMARK    4  A    between atoms: C_14  and  C_22
REMARK                            x       y       z     vdW  Elec       q    Type
REMARK                         _______ _______ _______ _____ _____    ______ ____
ROOT
ATOM      1  O   UNL     1      30.843 -10.975 -21.020  0.00  0.00    -0.209 OA
ATOM      2  N   UNL     1      33.598  -9.937 -23.695  0.00  0.00    -0.279 N 
ATOM      3  N   UNL     1      32.234 -11.620 -22.740  0.00  0.00    -0.311 NA
ATOM      4  C   UNL     1      33.131 -11.220 -23.592  0.00  0.00    +0.224 C 
ATOM      5  C   UNL     1      33.114  -8.962 -22.858  0.00  0.00    +0.135 C 
ATOM      6  C   UNL     1      32.182  -9.278 -21.942  0.00  0.00    +0.125 C 
ATOM      7  C   UNL     1      31.694 -10.694 -21.859  0.00  0.00    +0.208 C 
ATOM      8  H   UNL     1      34.280  -9.714 -24.368  0.00  0.00    +0.155 HD
ENDROOT
BRANCH   5  12
ATOM      9  F   UNL     1      34.998  -7.563 -22.856  0.00  0.00    -0.165 F 
ATOM     10  F   UNL     1      33.378  -7.078 -24.232  0.00  0.00    -0.165 F 
ATOM     11  F   UNL     1      33.128  -6.741 -22.093  0.00  0.00    -0.165 F 
ATOM     12  C   UNL     1      33.658  -7.576 -23.011  0.00  0.00    +0.432 C 
ENDBRANCH   5  12
BRANCH   4  13
ATOM     13  S   UNL     1      33.803 -12.388 -24.694  0.00  0.00    -0.056 S 
BRANCH  13  14
ATOM     14  C   UNL     1      33.077 -13.887 -24.017  0.00  0.00    +0.151 C 
BRANCH  14  22
ATOM     15  O   UNL     1      32.962 -15.076 -26.064  0.00  0.00    -0.274 OA
ATOM     16  N   UNL     1      34.329 -15.979 -24.416  0.00  0.00    -0.279 N 
ATOM     17  C   UNL     1      35.133 -18.444 -23.135  0.00  0.00    +0.004 C 
ATOM     18  C   UNL     1      34.477 -18.437 -24.515  0.00  0.00    +0.022 C 
ATOM     19  C   UNL     1      34.704 -17.223 -22.321  0.00  0.00    +0.022 C 
ATOM     20  C   UNL     1      34.733 -17.120 -25.241  0.00  0.00    +0.093 C 
ATOM     21  C   UNL     1      34.956 -15.928 -23.090  0.00  0.00    +0.093 C 
ATOM     22  C   UNL     1      33.446 -15.029 -24.930  0.00  0.00    +0.237 C 
ENDBRANCH  14  22
ENDBRANCH  13  14
ENDBRANCH   4  13
TORSDOF 4
ENDMDL
MODEL 4
REMARK VINA RESULT:      -8.8     12.661     14.301
REMARK  Name = 448768
REMARK  4 active torsions:
REMARK  status: ('A' for Active; 'I' for Inactive)
REMARK    1  A    between atoms: C_4  and  S_13
REMARK    2  A    between atoms: C_5  and  C_12
REMARK    3  A    between atoms: S_13  and  C_14
REMARK    4  A    between atoms: C_14  and  C_22
REMARK                            x       y       z     vdW  Elec       q    Type
REMARK                         _______ _______ _______ _____ _____    ______ ____
ROOT
ATOM      1  O   UNL     1      35.324 -24.747 -10.422  0.00  0.00    -0.209 OA
ATOM      2  N   UNL     1      36.082 -24.647 -14.327  0.00  0.00    -0.279 N 
ATOM      3  N   UNL     1      34.590 -24.212 -12.540  0.00  0.00    -0.311 NA
ATOM      4  C   UNL     1      34.896 -24.205 -13.804  0.00  0.00    +0.224 C 
ATOM      5  C   UNL     1      37.054 -25.145 -13.494  0.00  0.00    +0.135 C 
ATOM      6  C   UNL     1      36.832 -25.193 -12.170  0.00  0.00    +0.125 C 
ATOM      7  C   UNL     1      35.521 -24.700 -11.634  0.00  0.00    +0.208 C 
ATOM      8  H   UNL     1      36.237 -24.608 -15.298  0.00  0.00    +0.155 HD
ENDROOT
BRANCH   5  12
ATOM      9  F   UNL     1      38.163 -26.807 -14.726  0.00  0.00    -0.165 F 
ATOM     10  F   UNL     1      38.774 -24.738 -15.039  0.00  0.00    -0.165 F 
ATOM     11  F   UNL     1      39.301 -25.761 -13.188  0.00  0.00    -0.165 F 
ATOM     12  C   UNL     1      38.332 -25.616 -14.116  0.00  0.00    +0.432 C 
ENDBRANCH   5  12
BRANCH   4  13
ATOM     13  S   UNL     1      33.723 -23.592 -14.934  0.00  0.00    -0.056 S 
BRANCH  13  14
ATOM     14  C   UNL     1      32.334 -23.347 -13.819  0.00  0.00    +0.151 C 
BRANCH  14  22
ATOM     15  O   UNL     1      31.575 -25.591 -13.889  0.00  0.00    -0.274 OA
ATOM     16  N   UNL     1      30.099 -23.972 -14.666  0.00  0.00    -0.279 N 
ATOM     17  C   UNL     1      28.187 -23.355 -16.746  0.00  0.00    +0.004 C 
ATOM     18  C   UNL     1      28.602 -24.794 -16.443  0.00  0.00    +0.022 C 
ATOM     19  C   UNL     1      29.297 -22.376 -16.365  0.00  0.00    +0.022 C 
ATOM     20  C   UNL     1      29.054 -24.944 -14.993  0.00  0.00    +0.093 C 
ATOM     21  C   UNL     1      29.736 -22.572 -14.916  0.00  0.00    +0.093 C 
ATOM     22  C   UNL     1      31.308 -24.409 -14.124  0.00  0.00    +0.237 C 
ENDBRANCH  14  22
ENDBRANCH  13  14
ENDBRANCH   4  13
TORSDOF 4
ENDMDL
MODEL 5
REMARK VINA RESULT:      -8.8      3.839      7.518
REMARK  Name = 448768
REMARK  4 active torsions:
REMARK  status: ('A' for Active; 'I' for Inactive)
REMARK    1  A    between atoms: C_4  and  S_13
REMARK    2  A    between atoms: C_5  and  C_12
REMARK    3  A    between atoms: S_13  and  C_14
REMARK    4  A    between atoms: C_14  and  C_22
REMARK                            x       y       z     vdW  Elec       q    Type
REMARK                         _______ _______ _______ _____ _____    ______ ____
ROOT
ATOM      1  O   UNL     1      32.841  -7.548 -23.134  0.00  0.00    -0.209 OA
ATOM      2  N   UNL     1      32.374 -11.446 -22.491  0.00  0.00    -0.279 N 
ATOM      3  N   UNL     1      33.276  -9.705 -23.819  0.00  0.00    -0.311 NA
ATOM      4  C   UNL     1      33.088 -10.964 -23.555  0.00  0.00    +0.224 C 
ATOM      5  C   UNL     1      31.791 -10.573 -21.606  0.00  0.00    +0.135 C 
ATOM      6  C   UNL     1      31.929  -9.249 -21.793  0.00  0.00    +0.125 C 
ATOM      7  C   UNL     1      32.719  -8.759 -22.970  0.00  0.00    +0.208 C 
ATOM      8  H   UNL     1      32.277 -12.417 -22.361  0.00  0.00    +0.155 HD
ENDROOT
BRANCH   5  12
ATOM      9  F   UNL     1      29.777 -11.506 -20.844  0.00  0.00    -0.165 F 
ATOM     10  F   UNL     1      31.631 -12.248 -19.969  0.00  0.00    -0.165 F 
ATOM     11  F   UNL     1      30.903 -10.259 -19.453  0.00  0.00    -0.165 F 
ATOM     12  C   UNL     1      31.021 -11.151 -20.460  0.00  0.00    +0.432 C 
ENDBRANCH   5  12
BRANCH   4  13
ATOM     13  S   UNL     1      33.789 -12.145 -24.626  0.00  0.00    -0.056 S 
BRANCH  13  14
ATOM     14  C   UNL     1      33.081 -13.641 -23.924  0.00  0.00    +0.151 C 
BRANCH  14  22
ATOM     15  O   UNL     1      32.819 -14.799 -25.975  0.00  0.00    -0.274 OA
ATOM     16  N   UNL     1      34.271 -15.747 -24.428  0.00  0.00    -0.279 N 
ATOM     17  C   UNL     1      35.111 -18.242 -23.231  0.00  0.00    +0.004 C 
ATOM     18  C   UNL     1      34.371 -18.206 -24.567  0.00  0.00    +0.022 C 
ATOM     19  C   UNL     1      34.755 -17.026 -22.376  0.00  0.00    +0.022 C 
ATOM     20  C   UNL     1      34.604 -16.882 -25.291  0.00  0.00    +0.093 C 
ATOM     21  C   UNL     1      34.980 -15.724 -23.143  0.00  0.00    +0.093 C 
ATOM     22  C   UNL     1      33.374 -14.776 -24.873  0.00  0.00    +0.237 C 
ENDBRANCH  14  22
ENDBRANCH  13  14
ENDBRANCH   4  13
TORSDOF 4
ENDMDL
MODEL 6
REMARK VINA RESULT:      -8.7      4.766      7.962
REMARK  Name = 448768
REMARK  4 active torsions:
REMARK  status: ('A' for Active; 'I' for Inactive)
REMARK    1  A    between atoms: C_4  and  S_13
REMARK    2  A    between atoms: C_5  and  C_12
REMARK    3  A    between atoms: S_13  and  C_14
REMARK    4  A    between atoms: C_14  and  C_22
REMARK                            x       y       z     vdW  Elec       q    Type
REMARK                         _______ _______ _______ _____ _____    ______ ____
ROOT
ATOM      1  O   UNL     1      35.502 -10.348 -25.631  0.00  0.00    -0.209 OA
ATOM      2  N   UNL     1      32.705 -10.572 -22.811  0.00  0.00    -0.279 N 
ATOM      3  N   UNL     1      34.045 -11.667 -24.428  0.00  0.00    -0.311 NA
ATOM      4  C   UNL     1      33.136 -11.675 -23.498  0.00  0.00    +0.224 C 
ATOM      5  C   UNL     1      33.241  -9.339 -23.090  0.00  0.00    +0.135 C 
ATOM      6  C   UNL     1      34.188  -9.227 -24.036  0.00  0.00    +0.125 C 
ATOM      7  C   UNL     1      34.636 -10.458 -24.767  0.00  0.00    +0.208 C 
ATOM      8  H   UNL     1      32.010 -10.663 -22.120  0.00  0.00    +0.155 HD
ENDROOT
BRANCH   5  12
ATOM      9  F   UNL     1      31.402  -8.018 -22.470  0.00  0.00    -0.165 F 
ATOM     10  F   UNL     1      32.979  -8.314 -20.994  0.00  0.00    -0.165 F 
ATOM     11  F   UNL     1      33.326  -7.021 -22.714  0.00  0.00    -0.165 F 
ATOM     12  C   UNL     1      32.734  -8.165 -22.312  0.00  0.00    +0.432 C 
ENDBRANCH   5  12
BRANCH   4  13
ATOM     13  S   UNL     1      32.399 -13.196 -23.079  0.00  0.00    -0.056 S 
BRANCH  13  14
ATOM     14  C   UNL     1      33.868 -14.230 -23.010  0.00  0.00    +0.151 C 
BRANCH  14  22
ATOM     15  O   UNL     1      33.191 -14.816 -25.204  0.00  0.00    -0.274 OA
ATOM     16  N   UNL     1      34.570 -16.330 -24.106  0.00  0.00    -0.279 N 
ATOM     17  C   UNL     1      35.016 -19.141 -23.590  0.00  0.00    +0.004 C 
ATOM     18  C   UNL     1      34.174 -18.669 -24.775  0.00  0.00    +0.022 C 
ATOM     19  C   UNL     1      34.986 -18.115 -22.457  0.00  0.00    +0.022 C 
ATOM     20  C   UNL     1      34.591 -17.272 -25.226  0.00  0.00    +0.093 C 
ATOM     21  C   UNL     1      35.388 -16.728 -22.953  0.00  0.00    +0.093 C 
ATOM     22  C   UNL     1      33.842 -15.145 -24.208  0.00  0.00    +0.237 C 
ENDBRANCH  14  22
ENDBRANCH  13  14
ENDBRANCH   4  13
TORSDOF 4
ENDMDL
MODEL 7
REMARK VINA RESULT:      -8.7      2.214      2.758
REMARK  Name = 448768
REMARK  4 active torsions:
REMARK  status: ('A' for Active; 'I' for Inactive)
REMARK    1  A    between atoms: C_4  and  S_13
REMARK    2  A    between atoms: C_5  and  C_12
REMARK    3  A    between atoms: S_13  and  C_14
REMARK    4  A    between atoms: C_14  and  C_22
REMARK                            x       y       z     vdW  Elec       q    Type
REMARK                         _______ _______ _______ _____ _____    ______ ____
ROOT
ATOM      1  O   UNL     1      34.598 -17.896 -25.722  0.00  0.00    -0.209 OA
ATOM      2  N   UNL     1      33.883 -14.882 -23.226  0.00  0.00    -0.279 N 
ATOM      3  N   UNL     1      33.916 -15.712 -25.444  0.00  0.00    -0.311 NA
ATOM      4  C   UNL     1      33.701 -14.766 -24.578  0.00  0.00    +0.224 C 
ATOM      5  C   UNL     1      34.327 -16.067 -22.694  0.00  0.00    +0.135 C 
ATOM      6  C   UNL     1      34.579 -17.106 -23.508  0.00  0.00    +0.125 C 
ATOM      7  C   UNL     1      34.366 -16.942 -24.984  0.00  0.00    +0.208 C 
ATOM      8  H   UNL     1      33.697 -14.116 -22.636  0.00  0.00    +0.155 HD
ENDROOT
BRANCH   5  12
ATOM      9  F   UNL     1      35.363 -17.133 -20.877  0.00  0.00    -0.165 F 
ATOM     10  F   UNL     1      35.012 -14.986 -20.726  0.00  0.00    -0.165 F 
ATOM     11  F   UNL     1      33.339 -16.377 -20.585  0.00  0.00    -0.165 F 
ATOM     12  C   UNL     1      34.511 -16.141 -21.210  0.00  0.00    +0.432 C 
ENDBRANCH   5  12
BRANCH   4  13
ATOM     13  S   UNL     1      33.137 -13.226 -25.163  0.00  0.00    -0.056 S 
BRANCH  13  14
ATOM     14  C   UNL     1      33.224 -12.278 -23.637  0.00  0.00    +0.151 C 
BRANCH  14  22
ATOM     15  O   UNL     1      34.614 -10.735 -24.777  0.00  0.00    -0.274 OA
ATOM     16  N   UNL     1      32.992  -9.832 -23.380  0.00  0.00    -0.279 N 
ATOM     17  C   UNL     1      32.482  -7.778 -21.409  0.00  0.00    +0.004 C 
ATOM     18  C   UNL     1      33.659  -7.680 -22.379  0.00  0.00    +0.022 C 
ATOM     19  C   UNL     1      32.099  -9.236 -21.160  0.00  0.00    +0.022 C 
ATOM     20  C   UNL     1      33.376  -8.448 -23.667  0.00  0.00    +0.093 C 
ATOM     21  C   UNL     1      31.847  -9.975 -22.473  0.00  0.00    +0.093 C 
ATOM     22  C   UNL     1      33.678 -10.884 -23.989  0.00  0.00    +0.237 C 
ENDBRANCH  14  22
ENDBRANCH  13  14
ENDBRANCH   4  13
TORSDOF 4
ENDMDL
MODEL 8
REMARK VINA RESULT:      -8.6      8.579     11.785
REMARK  Name = 448768
REMARK  4 active torsions:
REMARK  status: ('A' for Active; 'I' for Inactive)
REMARK    1  A    between atoms: C_4  and  S_13
REMARK    2  A    between atoms: C_5  and  C_12
REMARK    3  A    between atoms: S_13  and  C_14
REMARK    4  A    between atoms: C_14  and  C_22
REMARK                            x       y       z     vdW  Elec       q    Type
REMARK                         _______ _______ _______ _____ _____    ______ ____
ROOT
ATOM      1  O   UNL     1      32.791 -21.996 -19.816  0.00  0.00    -0.209 OA
ATOM      2  N   UNL     1      36.411 -20.366 -19.550  0.00  0.00    -0.279 N 
ATOM      3  N   UNL     1      34.832 -21.939 -18.747  0.00  0.00    -0.311 NA
ATOM      4  C   UNL     1      35.999 -21.367 -18.711  0.00  0.00    +0.224 C 
ATOM      5  C   UNL     1      35.561 -19.894 -20.520  0.00  0.00    +0.135 C 
ATOM      6  C   UNL     1      34.331 -20.422 -20.639  0.00  0.00    +0.125 C 
ATOM      7  C   UNL     1      33.916 -21.518 -19.702  0.00  0.00    +0.208 C 
ATOM      8  H   UNL     1      37.313 -19.985 -19.456  0.00  0.00    +0.155 HD
ENDROOT
BRANCH   5  12
ATOM      9  F   UNL     1      37.406 -18.805 -21.479  0.00  0.00    -0.165 F 
ATOM     10  F   UNL     1      35.581 -18.937 -22.664  0.00  0.00    -0.165 F 
ATOM     11  F   UNL     1      35.675 -17.588 -20.954  0.00  0.00    -0.165 F 
ATOM     12  C   UNL     1      36.059 -18.799 -21.411  0.00  0.00    +0.432 C 
ENDBRANCH   5  12
BRANCH   4  13
ATOM     13  S   UNL     1      37.142 -21.901 -17.511  0.00  0.00    -0.056 S 
BRANCH  13  14
ATOM     14  C   UNL     1      36.018 -22.724 -16.374  0.00  0.00    +0.151 C 
BRANCH  14  22
ATOM     15  O   UNL     1      37.486 -22.116 -14.616  0.00  0.00    -0.274 OA
ATOM     16  N   UNL     1      36.618 -24.271 -14.544  0.00  0.00    -0.279 N 
ATOM     17  C   UNL     1      37.267 -27.038 -14.008  0.00  0.00    +0.004 C 
ATOM     18  C   UNL     1      38.137 -25.896 -13.484  0.00  0.00    +0.022 C 
ATOM     19  C   UNL     1      36.530 -26.622 -15.281  0.00  0.00    +0.022 C 
ATOM     20  C   UNL     1      37.323 -24.618 -13.308  0.00  0.00    +0.093 C 
ATOM     21  C   UNL     1      35.747 -25.328 -15.071  0.00  0.00    +0.093 C 
ATOM     22  C   UNL     1      36.775 -23.001 -15.100  0.00  0.00    +0.237 C 
ENDBRANCH  14  22
ENDBRANCH  13  14
ENDBRANCH   4  13
TORSDOF 4
ENDMDL
MODEL 9
REMARK VINA RESULT:      -8.6      4.275      7.859
REMARK  Name = 448768
REMARK  4 active torsions:
REMARK  status: ('A' for Active; 'I' for Inactive)
REMARK    1  A    between atoms: C_4  and  S_13
REMARK    2  A    between atoms: C_5  and  C_12
REMARK    3  A    between atoms: S_13  and  C_14
REMARK    4  A    between atoms: C_14  and  C_22
REMARK                            x       y       z     vdW  Elec       q    Type
REMARK                         _______ _______ _______ _____ _____    ______ ____
ROOT
ATOM      1  O   UNL     1      31.187 -10.798 -18.743  0.00  0.00    -0.209 OA
ATOM      2  N   UNL     1      32.317 -11.764 -22.433  0.00  0.00    -0.279 N 
ATOM      3  N   UNL     1      31.789 -12.453 -20.230  0.00  0.00    -0.311 NA
ATOM      4  C   UNL     1      32.155 -12.705 -21.451  0.00  0.00    +0.224 C 
ATOM      5  C   UNL     1      32.088 -10.438 -22.155  0.00  0.00    +0.135 C 
ATOM      6  C   UNL     1      31.705 -10.077 -20.919  0.00  0.00    +0.125 C 
ATOM      7  C   UNL     1      31.537 -11.136 -19.870  0.00  0.00    +0.208 C 
ATOM      8  H   UNL     1      32.599 -12.037 -23.336  0.00  0.00    +0.155 HD
ENDROOT
BRANCH   5  12
ATOM      9  F   UNL     1      33.149  -8.482 -22.902  0.00  0.00    -0.165 F 
ATOM     10  F   UNL     1      32.767 -10.049 -24.368  0.00  0.00    -0.165 F 
ATOM     11  F   UNL     1      31.115  -8.856 -23.594  0.00  0.00    -0.165 F 
ATOM     12  C   UNL     1      32.281  -9.450 -23.263  0.00  0.00    +0.432 C 
ENDBRANCH   5  12
BRANCH   4  13
ATOM     13  S   UNL     1      32.469 -14.359 -21.894  0.00  0.00    -0.056 S 
BRANCH  13  14
ATOM     14  C   UNL     1      34.088 -14.163 -22.650  0.00  0.00    +0.151 C 
BRANCH  14  22
ATOM     15  O   UNL     1      33.535 -14.425 -24.940  0.00  0.00    -0.274 OA
ATOM     16  N   UNL     1      34.706 -16.171 -23.950  0.00  0.00    -0.279 N 
ATOM     17  C   UNL     1      34.893 -19.051 -23.758  0.00  0.00    +0.004 C 
ATOM     18  C   UNL     1      34.181 -18.372 -24.928  0.00  0.00    +0.022 C 
ATOM     19  C   UNL     1      34.858 -18.168 -22.511  0.00  0.00    +0.022 C 
ATOM     20  C   UNL     1      34.738 -16.973 -25.175  0.00  0.00    +0.093 C 
ATOM     21  C   UNL     1      35.401 -16.772 -22.805  0.00  0.00    +0.093 C 
ATOM     22  C   UNL     1      34.081 -14.924 -23.952  0.00  0.00    +0.237 C 
ENDBRANCH  14  22
ENDBRANCH  13  14
ENDBRANCH   4  13
TORSDOF 4
ENDMDL
