MODEL 1
REMARK VINA RESULT:      -9.6      0.000      0.000
REMARK  Name = 4614
REMARK  6 active torsions:
REMARK  status: ('A' for Active; 'I' for Inactive)
REMARK    1  A    between atoms: C_3  and  C_6
REMARK    2  A    between atoms: C_4  and  C_12
REMARK    3  A    between atoms: C_5  and  C_18
REMARK    4  A    between atoms: C_18  and  C_19
REMARK    5  A    between atoms: C_19  and  C_21
REMARK    6  A    between atoms: C_21  and  O_22
REMARK                            x       y       z     vdW  Elec       q    Type
REMARK                         _______ _______ _______ _____ _____    ______ ____
ROOT
ATOM      1  O   UNL     1      35.456 -23.671 -14.012  0.00  0.00    -0.447 OA
ATOM      2  N   UNL     1      33.693 -24.276 -12.731  0.00  0.00    -0.372 NA
ATOM      3  C   UNL     1      34.327 -23.558 -14.764  0.00  0.00    +0.242 C 
ATOM      4  C   UNL     1      33.265 -23.926 -13.982  0.00  0.00    +0.156 C 
ATOM      5  C   UNL     1      34.994 -24.106 -12.808  0.00  0.00    +0.253 C 
ENDROOT
BRANCH   3   6
ATOM      6  C   UNL     1      34.516 -23.108 -16.113  0.00  0.00    +0.024 C 
ATOM      7  C   UNL     1      33.498 -23.264 -17.059  0.00  0.00    -0.000 C 
ATOM      8  C   UNL     1      35.722 -22.507 -16.493  0.00  0.00    -0.000 C 
ATOM      9  C   UNL     1      33.683 -22.825 -18.371  0.00  0.00    -0.000 C 
ATOM     10  C   UNL     1      35.907 -22.069 -17.805  0.00  0.00    -0.000 C 
ATOM     11  C   UNL     1      34.887 -22.228 -18.743  0.00  0.00    -0.000 C 
ENDBRANCH   3   6
BRANCH   4  12
ATOM     12  C   UNL     1      31.889 -23.949 -14.393  0.00  0.00    +0.029 C 
ATOM     13  C   UNL     1      31.211 -22.753 -14.626  0.00  0.00    +0.002 C 
ATOM     14  C   UNL     1      31.231 -25.168 -14.558  0.00  0.00    +0.002 C 
ATOM     15  C   UNL     1      29.874 -22.776 -15.024  0.00  0.00    +0.000 C 
ATOM     16  C   UNL     1      29.895 -25.190 -14.956  0.00  0.00    +0.000 C 
ATOM     17  C   UNL     1      29.216 -23.994 -15.189  0.00  0.00    +0.000 C 
ENDBRANCH   4  12
BRANCH   5  18
ATOM     18  C   UNL     1      36.009 -24.324 -11.767  0.00  0.00    +0.111 C 
BRANCH  18  19
ATOM     19  C   UNL     1      37.196 -25.172 -12.259  0.00  0.00    +0.120 C 
BRANCH  19  21
ATOM     20  O   UNL     1      39.342 -24.625 -13.218  0.00  0.00    -0.250 OA
ATOM     21  C   UNL     1      38.446 -24.350 -12.432  0.00  0.00    +0.314 C 
BRANCH  21  22
ATOM     22  O   UNL     1      38.464 -23.256 -11.629  0.00  0.00    -0.480 OA
ATOM     23  H   UNL     1      37.965 -23.249 -10.837  0.00  0.00    +0.295 HD
ENDBRANCH  21  22
ENDBRANCH  19  21
ENDBRANCH  18  19
ENDBRANCH   5  18
TORSDOF 6
ENDMDL
MODEL 2
REMARK VINA RESULT:      -9.5      2.745      6.010
REMARK  Name = 4614
REMARK  6 active torsions:
REMARK  status: ('A' for Active; 'I' for Inactive)
REMARK    1  A    between atoms: C_3  and  C_6
REMARK    2  A    between atoms: C_4  and  C_12
REMARK    3  A    between atoms: C_5  and  C_18
REMARK    4  A    between atoms: C_18  and  C_19
REMARK    5  A    between atoms: C_19  and  C_21
REMARK    6  A    between atoms: C_21  and  O_22
REMARK                            x       y       z     vdW  Elec       q    Type
REMARK                         _______ _______ _______ _____ _____    ______ ____
ROOT
ATOM      1  O   UNL     1      32.381 -23.165 -16.133  0.00  0.00    -0.447 OA
ATOM      2  N   UNL     1      32.793 -24.422 -14.298  0.00  0.00    -0.372 NA
ATOM      3  C   UNL     1      33.724 -23.378 -16.057  0.00  0.00    +0.242 C 
ATOM      4  C   UNL     1      33.964 -24.137 -14.944  0.00  0.00    +0.156 C 
ATOM      5  C   UNL     1      31.894 -23.822 -15.045  0.00  0.00    +0.253 C 
ENDROOT
BRANCH   3   6
ATOM      6  C   UNL     1      34.511 -22.786 -17.100  0.00  0.00    +0.024 C 
ATOM      7  C   UNL     1      33.969 -22.604 -18.377  0.00  0.00    -0.000 C 
ATOM      8  C   UNL     1      35.828 -22.385 -16.849  0.00  0.00    -0.000 C 
ATOM      9  C   UNL     1      34.734 -22.028 -19.390  0.00  0.00    -0.000 C 
ATOM     10  C   UNL     1      36.594 -21.810 -17.864  0.00  0.00    -0.000 C 
ATOM     11  C   UNL     1      36.046 -21.631 -19.134  0.00  0.00    -0.000 C 
ENDBRANCH   3   6
BRANCH   4  12
ATOM     12  C   UNL     1      35.253 -24.587 -14.497  0.00  0.00    +0.029 C 
ATOM     13  C   UNL     1      35.870 -25.669 -15.124  0.00  0.00    +0.002 C 
ATOM     14  C   UNL     1      35.888 -23.941 -13.437  0.00  0.00    +0.002 C 
ATOM     15  C   UNL     1      37.121 -26.106 -14.690  0.00  0.00    +0.000 C 
ATOM     16  C   UNL     1      37.139 -24.378 -13.003  0.00  0.00    +0.000 C 
ATOM     17  C   UNL     1      37.756 -25.461 -13.629  0.00  0.00    +0.000 C 
ENDBRANCH   4  12
BRANCH   5  18
ATOM     18  C   UNL     1      30.436 -23.768 -14.858  0.00  0.00    +0.111 C 
BRANCH  18  19
ATOM     19  C   UNL     1      29.667 -24.553 -15.936  0.00  0.00    +0.120 C 
BRANCH  19  21
ATOM     20  O   UNL     1      27.785 -23.961 -17.328  0.00  0.00    -0.250 OA
ATOM     21  C   UNL     1      28.855 -23.647 -16.825  0.00  0.00    +0.314 C 
BRANCH  21  22
ATOM     22  O   UNL     1      29.433 -22.430 -16.994  0.00  0.00    -0.480 OA
ATOM     23  H   UNL     1      29.646 -21.906 -16.248  0.00  0.00    +0.295 HD
ENDBRANCH  21  22
ENDBRANCH  19  21
ENDBRANCH  18  19
ENDBRANCH   5  18
TORSDOF 6
ENDMDL
MODEL 3
REMARK VINA RESULT:      -9.4      2.559      5.885
REMARK  Name = 4614
REMARK  6 active torsions:
REMARK  status: ('A' for Active; 'I' for Inactive)
REMARK    1  A    between atoms: C_3  and  C_6
REMARK    2  A    between atoms: C_4  and  C_12
REMARK    3  A    between atoms: C_5  and  C_18
REMARK    4  A    between atoms: C_18  and  C_19
REMARK    5  A    between atoms: C_19  and  C_21
REMARK    6  A    between atoms: C_21  and  O_22
REMARK                            x       y       z     vdW  Elec       q    Type
REMARK                         _______ _______ _______ _____ _____    ______ ____
ROOT
ATOM      1  O   UNL     1      32.685 -23.076 -15.604  0.00  0.00    -0.447 OA
ATOM      2  N   UNL     1      33.176 -24.489 -13.907  0.00  0.00    -0.372 NA
ATOM      3  C   UNL     1      34.002 -23.410 -15.697  0.00  0.00    +0.242 C 
ATOM      4  C   UNL     1      34.291 -24.264 -14.666  0.00  0.00    +0.156 C 
ATOM      5  C   UNL     1      32.261 -23.762 -14.508  0.00  0.00    +0.253 C 
ENDROOT
BRANCH   3   6
ATOM      6  C   UNL     1      34.722 -22.818 -16.788  0.00  0.00    +0.024 C 
ATOM      7  C   UNL     1      36.040 -22.383 -16.611  0.00  0.00    -0.000 C 
ATOM      8  C   UNL     1      34.112 -22.673 -18.039  0.00  0.00    -0.000 C 
ATOM      9  C   UNL     1      36.738 -21.808 -17.673  0.00  0.00    -0.000 C 
ATOM     10  C   UNL     1      34.811 -22.097 -19.100  0.00  0.00    -0.000 C 
ATOM     11  C   UNL     1      36.125 -21.666 -18.917  0.00  0.00    -0.000 C 
ENDBRANCH   3   6
BRANCH   4  12
ATOM     12  C   UNL     1      35.572 -24.854 -14.400  0.00  0.00    +0.029 C 
ATOM     13  C   UNL     1      36.360 -24.369 -13.356  0.00  0.00    +0.002 C 
ATOM     14  C   UNL     1      36.029 -25.912 -15.185  0.00  0.00    +0.002 C 
ATOM     15  C   UNL     1      37.606 -24.942 -13.098  0.00  0.00    +0.000 C 
ATOM     16  C   UNL     1      37.274 -26.486 -14.927  0.00  0.00    +0.000 C 
ATOM     17  C   UNL     1      38.063 -26.001 -13.883  0.00  0.00    +0.000 C 
ENDBRANCH   4  12
BRANCH   5  18
ATOM     18  C   UNL     1      30.844 -23.594 -14.150  0.00  0.00    +0.111 C 
BRANCH  18  19
ATOM     19  C   UNL     1      29.890 -23.961 -15.301  0.00  0.00    +0.120 C 
BRANCH  19  21
ATOM     20  O   UNL     1      28.363 -22.105 -15.526  0.00  0.00    -0.250 OA
ATOM     21  C   UNL     1      29.311 -22.740 -15.967  0.00  0.00    +0.314 C 
BRANCH  21  22
ATOM     22  O   UNL     1      29.968 -22.408 -17.107  0.00  0.00    -0.480 OA
ATOM     23  H   UNL     1      30.090 -23.048 -17.780  0.00  0.00    +0.295 HD
ENDBRANCH  21  22
ENDBRANCH  19  21
ENDBRANCH  18  19
ENDBRANCH   5  18
TORSDOF 6
ENDMDL
MODEL 4
REMARK VINA RESULT:      -9.3      0.729      4.144
REMARK  Name = 4614
REMARK  6 active torsions:
REMARK  status: ('A' for Active; 'I' for Inactive)
REMARK    1  A    between atoms: C_3  and  C_6
REMARK    2  A    between atoms: C_4  and  C_12
REMARK    3  A    between atoms: C_5  and  C_18
REMARK    4  A    between atoms: C_18  and  C_19
REMARK    5  A    between atoms: C_19  and  C_21
REMARK    6  A    between atoms: C_21  and  O_22
REMARK                            x       y       z     vdW  Elec       q    Type
REMARK                         _______ _______ _______ _____ _____    ______ ____
ROOT
ATOM      1  O   UNL     1      33.728 -24.266 -12.949  0.00  0.00    -0.447 OA
ATOM      2  N   UNL     1      35.605 -23.720 -14.086  0.00  0.00    -0.372 NA
ATOM      3  C   UNL     1      33.367 -23.886 -14.206  0.00  0.00    +0.242 C 
ATOM      4  C   UNL     1      34.509 -23.557 -14.887  0.00  0.00    +0.156 C 
ATOM      5  C   UNL     1      35.083 -24.139 -12.956  0.00  0.00    +0.253 C 
ENDROOT
BRANCH   3   6
ATOM      6  C   UNL     1      31.962 -23.922 -14.491  0.00  0.00    +0.024 C 
ATOM      7  C   UNL     1      31.253 -22.734 -14.698  0.00  0.00    -0.000 C 
ATOM      8  C   UNL     1      31.288 -25.146 -14.566  0.00  0.00    -0.000 C 
ATOM      9  C   UNL     1      29.886 -22.769 -14.976  0.00  0.00    -0.000 C 
ATOM     10  C   UNL     1      29.921 -25.181 -14.843  0.00  0.00    -0.000 C 
ATOM     11  C   UNL     1      29.220 -23.992 -15.049  0.00  0.00    -0.000 C 
ENDBRANCH   3   6
BRANCH   4  12
ATOM     12  C   UNL     1      34.572 -23.105 -16.248  0.00  0.00    +0.029 C 
ATOM     13  C   UNL     1      35.708 -22.440 -16.709  0.00  0.00    +0.002 C 
ATOM     14  C   UNL     1      33.499 -23.331 -17.109  0.00  0.00    +0.002 C 
ATOM     15  C   UNL     1      35.769 -22.000 -18.032  0.00  0.00    +0.000 C 
ATOM     16  C   UNL     1      33.560 -22.892 -18.431  0.00  0.00    +0.000 C 
ATOM     17  C   UNL     1      34.696 -22.226 -18.893  0.00  0.00    +0.000 C 
ENDBRANCH   4  12
BRANCH   5  18
ATOM     18  C   UNL     1      35.769 -24.487 -11.703  0.00  0.00    +0.111 C 
BRANCH  18  19
ATOM     19  C   UNL     1      37.138 -25.151 -11.936  0.00  0.00    +0.120 C 
BRANCH  19  21
ATOM     20  O   UNL     1      38.592 -23.259 -11.569  0.00  0.00    -0.250 OA
ATOM     21  C   UNL     1      38.198 -24.148 -12.311  0.00  0.00    +0.314 C 
BRANCH  21  22
ATOM     22  O   UNL     1      38.683 -24.347 -13.563  0.00  0.00    -0.480 OA
ATOM     23  H   UNL     1      38.404 -25.091 -14.060  0.00  0.00    +0.295 HD
ENDBRANCH  21  22
ENDBRANCH  19  21
ENDBRANCH  18  19
ENDBRANCH   5  18
TORSDOF 6
ENDMDL
MODEL 5
REMARK VINA RESULT:      -9.0      3.317      5.699
REMARK  Name = 4614
REMARK  6 active torsions:
REMARK  status: ('A' for Active; 'I' for Inactive)
REMARK    1  A    between atoms: C_3  and  C_6
REMARK    2  A    between atoms: C_4  and  C_12
REMARK    3  A    between atoms: C_5  and  C_18
REMARK    4  A    between atoms: C_18  and  C_19
REMARK    5  A    between atoms: C_19  and  C_21
REMARK    6  A    between atoms: C_21  and  O_22
REMARK                            x       y       z     vdW  Elec       q    Type
REMARK                         _______ _______ _______ _____ _____    ______ ____
ROOT
ATOM      1  O   UNL     1      34.593 -22.669 -17.865  0.00  0.00    -0.447 OA
ATOM      2  N   UNL     1      32.333 -22.584 -17.881  0.00  0.00    -0.372 NA
ATOM      3  C   UNL     1      34.141 -23.174 -16.683  0.00  0.00    +0.242 C 
ATOM      4  C   UNL     1      32.773 -23.118 -16.702  0.00  0.00    +0.156 C 
ATOM      5  C   UNL     1      33.451 -22.339 -18.527  0.00  0.00    +0.253 C 
ENDROOT
BRANCH   3   6
ATOM      6  C   UNL     1      35.150 -23.614 -15.763  0.00  0.00    +0.024 C 
ATOM      7  C   UNL     1      35.158 -24.934 -15.302  0.00  0.00    -0.000 C 
ATOM      8  C   UNL     1      36.136 -22.725 -15.321  0.00  0.00    -0.000 C 
ATOM      9  C   UNL     1      36.140 -25.360 -14.408  0.00  0.00    -0.000 C 
ATOM     10  C   UNL     1      37.118 -23.152 -14.427  0.00  0.00    -0.000 C 
ATOM     11  C   UNL     1      37.120 -24.470 -13.970  0.00  0.00    -0.000 C 
ENDBRANCH   3   6
BRANCH   4  12
ATOM     12  C   UNL     1      31.902 -23.553 -15.646  0.00  0.00    +0.029 C 
ATOM     13  C   UNL     1      30.918 -24.508 -15.903  0.00  0.00    +0.002 C 
ATOM     14  C   UNL     1      32.039 -23.021 -14.365  0.00  0.00    +0.002 C 
ATOM     15  C   UNL     1      30.071 -24.930 -14.878  0.00  0.00    +0.000 C 
ATOM     16  C   UNL     1      31.192 -23.443 -13.340  0.00  0.00    +0.000 C 
ATOM     17  C   UNL     1      30.208 -24.397 -13.596  0.00  0.00    +0.000 C 
ENDBRANCH   4  12
BRANCH   5  18
ATOM     18  C   UNL     1      33.627 -21.755 -19.865  0.00  0.00    +0.111 C 
BRANCH  18  19
ATOM     19  C   UNL     1      34.922 -20.934 -19.993  0.00  0.00    +0.120 C 
BRANCH  19  21
ATOM     20  O   UNL     1      33.805 -19.549 -21.624  0.00  0.00    -0.250 OA
ATOM     21  C   UNL     1      34.731 -19.702 -20.839  0.00  0.00    +0.314 C 
BRANCH  21  22
ATOM     22  O   UNL     1      35.691 -18.768 -20.623  0.00  0.00    -0.480 OA
ATOM     23  H   UNL     1      36.563 -18.914 -20.931  0.00  0.00    +0.295 HD
ENDBRANCH  21  22
ENDBRANCH  19  21
ENDBRANCH  18  19
ENDBRANCH   5  18
TORSDOF 6
ENDMDL
MODEL 6
REMARK VINA RESULT:      -9.0      1.856      4.488
REMARK  Name = 4614
REMARK  6 active torsions:
REMARK  status: ('A' for Active; 'I' for Inactive)
REMARK    1  A    between atoms: C_3  and  C_6
REMARK    2  A    between atoms: C_4  and  C_12
REMARK    3  A    between atoms: C_5  and  C_18
REMARK    4  A    between atoms: C_18  and  C_19
REMARK    5  A    between atoms: C_19  and  C_21
REMARK    6  A    between atoms: C_21  and  O_22
REMARK                            x       y       z     vdW  Elec       q    Type
REMARK                         _______ _______ _______ _____ _____    ______ ____
ROOT
ATOM      1  O   UNL     1      34.388 -24.321 -14.258  0.00  0.00    -0.447 OA
ATOM      2  N   UNL     1      36.156 -23.912 -15.608  0.00  0.00    -0.372 NA
ATOM      3  C   UNL     1      33.945 -23.617 -15.336  0.00  0.00    +0.242 C 
ATOM      4  C   UNL     1      35.020 -23.373 -16.147  0.00  0.00    +0.156 C 
ATOM      5  C   UNL     1      35.721 -24.458 -14.495  0.00  0.00    +0.253 C 
ENDROOT
BRANCH   3   6
ATOM      6  C   UNL     1      32.541 -23.320 -15.355  0.00  0.00    +0.024 C 
ATOM      7  C   UNL     1      31.798 -23.495 -16.527  0.00  0.00    -0.000 C 
ATOM      8  C   UNL     1      31.904 -22.853 -14.199  0.00  0.00    -0.000 C 
ATOM      9  C   UNL     1      30.433 -23.206 -16.543  0.00  0.00    -0.000 C 
ATOM     10  C   UNL     1      30.539 -22.564 -14.217  0.00  0.00    -0.000 C 
ATOM     11  C   UNL     1      29.804 -22.741 -15.389  0.00  0.00    -0.000 C 
ENDBRANCH   3   6
BRANCH   4  12
ATOM     12  C   UNL     1      34.987 -22.658 -17.391  0.00  0.00    +0.029 C 
ATOM     13  C   UNL     1      36.109 -21.948 -17.818  0.00  0.00    +0.002 C 
ATOM     14  C   UNL     1      33.832 -22.672 -18.174  0.00  0.00    +0.002 C 
ATOM     15  C   UNL     1      36.077 -21.252 -19.027  0.00  0.00    +0.000 C 
ATOM     16  C   UNL     1      33.800 -21.977 -19.382  0.00  0.00    +0.000 C 
ATOM     17  C   UNL     1      34.922 -21.267 -19.809  0.00  0.00    +0.000 C 
ENDBRANCH   4  12
BRANCH   5  18
ATOM     18  C   UNL     1      36.485 -25.194 -13.476  0.00  0.00    +0.111 C 
BRANCH  18  19
ATOM     19  C   UNL     1      36.912 -24.306 -12.293  0.00  0.00    +0.120 C 
BRANCH  19  21
ATOM     20  O   UNL     1      36.258 -24.066  -9.982  0.00  0.00    -0.250 OA
ATOM     21  C   UNL     1      35.992 -24.459 -11.110  0.00  0.00    +0.314 C 
BRANCH  21  22
ATOM     22  O   UNL     1      34.823 -25.067 -11.435  0.00  0.00    -0.480 OA
ATOM     23  H   UNL     1      34.067 -24.943 -10.897  0.00  0.00    +0.295 HD
ENDBRANCH  21  22
ENDBRANCH  19  21
ENDBRANCH  18  19
ENDBRANCH   5  18
TORSDOF 6
ENDMDL
MODEL 7
REMARK VINA RESULT:      -9.0     11.385     14.018
REMARK  Name = 4614
REMARK  6 active torsions:
REMARK  status: ('A' for Active; 'I' for Inactive)
REMARK    1  A    between atoms: C_3  and  C_6
REMARK    2  A    between atoms: C_4  and  C_12
REMARK    3  A    between atoms: C_5  and  C_18
REMARK    4  A    between atoms: C_18  and  C_19
REMARK    5  A    between atoms: C_19  and  C_21
REMARK    6  A    between atoms: C_21  and  O_22
REMARK                            x       y       z     vdW  Elec       q    Type
REMARK                         _______ _______ _______ _____ _____    ______ ____
ROOT
ATOM      1  O   UNL     1      31.966 -12.048 -22.519  0.00  0.00    -0.447 OA
ATOM      2  N   UNL     1      32.347 -13.452 -20.788  0.00  0.00    -0.372 NA
ATOM      3  C   UNL     1      32.689 -13.106 -22.982  0.00  0.00    +0.242 C 
ATOM      4  C   UNL     1      32.916 -13.949 -21.928  0.00  0.00    +0.156 C 
ATOM      5  C   UNL     1      31.801 -12.330 -21.198  0.00  0.00    +0.253 C 
ENDROOT
BRANCH   3   6
ATOM      6  C   UNL     1      33.018 -13.077 -24.378  0.00  0.00    +0.024 C 
ATOM      7  C   UNL     1      32.629 -14.126 -25.217  0.00  0.00    -0.000 C 
ATOM      8  C   UNL     1      33.729 -11.997 -24.912  0.00  0.00    -0.000 C 
ATOM      9  C   UNL     1      32.948 -14.096 -26.574  0.00  0.00    -0.000 C 
ATOM     10  C   UNL     1      34.049 -11.968 -26.270  0.00  0.00    -0.000 C 
ATOM     11  C   UNL     1      33.658 -13.018 -27.101  0.00  0.00    -0.000 C 
ENDBRANCH   3   6
BRANCH   4  12
ATOM     12  C   UNL     1      33.643 -15.187 -21.985  0.00  0.00    +0.029 C 
ATOM     13  C   UNL     1      34.667 -15.351 -22.916  0.00  0.00    +0.002 C 
ATOM     14  C   UNL     1      33.323 -16.224 -21.109  0.00  0.00    +0.002 C 
ATOM     15  C   UNL     1      35.373 -16.553 -22.972  0.00  0.00    +0.000 C 
ATOM     16  C   UNL     1      34.028 -17.426 -21.165  0.00  0.00    +0.000 C 
ATOM     17  C   UNL     1      35.053 -17.591 -22.097  0.00  0.00    +0.000 C 
ENDBRANCH   4  12
BRANCH   5  18
ATOM     18  C   UNL     1      31.040 -11.342 -20.418  0.00  0.00    +0.111 C 
BRANCH  18  19
ATOM     19  C   UNL     1      31.945 -10.384 -19.623  0.00  0.00    +0.120 C 
BRANCH  19  21
ATOM     20  O   UNL     1      31.764  -8.847 -21.476  0.00  0.00    -0.250 OA
ATOM     21  C   UNL     1      32.142  -9.071 -20.334  0.00  0.00    +0.314 C 
BRANCH  21  22
ATOM     22  O   UNL     1      32.773  -8.150 -19.562  0.00  0.00    -0.480 OA
ATOM     23  H   UNL     1      33.665  -7.925 -19.738  0.00  0.00    +0.295 HD
ENDBRANCH  21  22
ENDBRANCH  19  21
ENDBRANCH  18  19
ENDBRANCH   5  18
TORSDOF 6
ENDMDL
MODEL 8
REMARK VINA RESULT:      -8.9     11.132     14.044
REMARK  Name = 4614
REMARK  6 active torsions:
REMARK  status: ('A' for Active; 'I' for Inactive)
REMARK    1  A    between atoms: C_3  and  C_6
REMARK    2  A    between atoms: C_4  and  C_12
REMARK    3  A    between atoms: C_5  and  C_18
REMARK    4  A    between atoms: C_18  and  C_19
REMARK    5  A    between atoms: C_19  and  C_21
REMARK    6  A    between atoms: C_21  and  O_22
REMARK                            x       y       z     vdW  Elec       q    Type
REMARK                         _______ _______ _______ _____ _____    ______ ____
ROOT
ATOM      1  O   UNL     1      32.921 -13.791 -20.866  0.00  0.00    -0.447 OA
ATOM      2  N   UNL     1      32.159 -12.257 -22.343  0.00  0.00    -0.372 NA
ATOM      3  C   UNL     1      33.336 -14.157 -22.110  0.00  0.00    +0.242 C 
ATOM      4  C   UNL     1      32.871 -13.224 -22.997  0.00  0.00    +0.156 C 
ATOM      5  C   UNL     1      32.222 -12.644 -21.089  0.00  0.00    +0.253 C 
ENDROOT
BRANCH   3   6
ATOM      6  C   UNL     1      34.114 -15.360 -22.181  0.00  0.00    +0.024 C 
ATOM      7  C   UNL     1      34.656 -15.780 -23.400  0.00  0.00    -0.000 C 
ATOM      8  C   UNL     1      34.338 -16.124 -21.030  0.00  0.00    -0.000 C 
ATOM      9  C   UNL     1      35.412 -16.950 -23.468  0.00  0.00    -0.000 C 
ATOM     10  C   UNL     1      35.094 -17.295 -21.098  0.00  0.00    -0.000 C 
ATOM     11  C   UNL     1      35.632 -17.707 -22.317  0.00  0.00    -0.000 C 
ENDBRANCH   3   6
BRANCH   4  12
ATOM     12  C   UNL     1      33.086 -13.235 -24.417  0.00  0.00    +0.029 C 
ATOM     13  C   UNL     1      32.635 -14.310 -25.182  0.00  0.00    +0.002 C 
ATOM     14  C   UNL     1      33.748 -12.172 -25.030  0.00  0.00    +0.002 C 
ATOM     15  C   UNL     1      32.845 -14.322 -26.561  0.00  0.00    +0.000 C 
ATOM     16  C   UNL     1      33.958 -12.183 -26.409  0.00  0.00    +0.000 C 
ATOM     17  C   UNL     1      33.507 -13.258 -27.174  0.00  0.00    +0.000 C 
ENDBRANCH   4  12
BRANCH   5  18
ATOM     18  C   UNL     1      31.639 -12.003 -19.901  0.00  0.00    +0.111 C 
BRANCH  18  19
ATOM     19  C   UNL     1      30.974 -10.652 -20.218  0.00  0.00    +0.120 C 
BRANCH  19  21
ATOM     20  O   UNL     1      32.109  -8.719 -21.114  0.00  0.00    -0.250 OA
ATOM     21  C   UNL     1      31.963  -9.515 -20.197  0.00  0.00    +0.314 C 
BRANCH  21  22
ATOM     22  O   UNL     1      32.666  -9.459 -19.038  0.00  0.00    -0.480 OA
ATOM     23  H   UNL     1      33.451  -8.950 -18.992  0.00  0.00    +0.295 HD
ENDBRANCH  21  22
ENDBRANCH  19  21
ENDBRANCH  18  19
ENDBRANCH   5  18
TORSDOF 6
ENDMDL
MODEL 9
REMARK VINA RESULT:      -8.9      2.747      6.338
REMARK  Name = 4614
REMARK  6 active torsions:
REMARK  status: ('A' for Active; 'I' for Inactive)
REMARK    1  A    between atoms: C_3  and  C_6
REMARK    2  A    between atoms: C_4  and  C_12
REMARK    3  A    between atoms: C_5  and  C_18
REMARK    4  A    between atoms: C_18  and  C_19
REMARK    5  A    between atoms: C_19  and  C_21
REMARK    6  A    between atoms: C_21  and  O_22
REMARK                            x       y       z     vdW  Elec       q    Type
REMARK                         _______ _______ _______ _____ _____    ______ ____
ROOT
ATOM      1  O   UNL     1      34.334 -22.656 -17.082  0.00  0.00    -0.447 OA
ATOM      2  N   UNL     1      36.507 -22.869 -16.494  0.00  0.00    -0.372 NA
ATOM      3  C   UNL     1      34.389 -23.318 -15.893  0.00  0.00    +0.242 C 
ATOM      4  C   UNL     1      35.707 -23.443 -15.545  0.00  0.00    +0.156 C 
ATOM      5  C   UNL     1      35.641 -22.422 -17.376  0.00  0.00    +0.253 C 
ENDROOT
BRANCH   3   6
ATOM      6  C   UNL     1      33.125 -23.700 -15.330  0.00  0.00    +0.024 C 
ATOM      7  C   UNL     1      33.074 -24.545 -14.217  0.00  0.00    -0.000 C 
ATOM      8  C   UNL     1      31.933 -23.229 -15.891  0.00  0.00    -0.000 C 
ATOM      9  C   UNL     1      31.846 -24.915 -13.671  0.00  0.00    -0.000 C 
ATOM     10  C   UNL     1      30.704 -23.600 -15.344  0.00  0.00    -0.000 C 
ATOM     11  C   UNL     1      30.661 -24.443 -14.234  0.00  0.00    -0.000 C 
ENDBRANCH   3   6
BRANCH   4  12
ATOM     12  C   UNL     1      36.204 -24.080 -14.358  0.00  0.00    +0.029 C 
ATOM     13  C   UNL     1      36.256 -23.374 -13.157  0.00  0.00    +0.002 C 
ATOM     14  C   UNL     1      36.635 -25.406 -14.407  0.00  0.00    +0.002 C 
ATOM     15  C   UNL     1      36.741 -23.993 -12.004  0.00  0.00    +0.000 C 
ATOM     16  C   UNL     1      37.119 -26.025 -13.254  0.00  0.00    +0.000 C 
ATOM     17  C   UNL     1      37.172 -25.318 -12.053  0.00  0.00    +0.000 C 
ENDBRANCH   4  12
BRANCH   5  18
ATOM     18  C   UNL     1      35.902 -21.705 -18.633  0.00  0.00    +0.111 C 
BRANCH  18  19
ATOM     19  C   UNL     1      34.867 -22.023 -19.727  0.00  0.00    +0.120 C 
BRANCH  19  21
ATOM     20  O   UNL     1      34.053 -19.908 -20.560  0.00  0.00    -0.250 OA
ATOM     21  C   UNL     1      33.859 -20.915 -19.892  0.00  0.00    +0.314 C 
BRANCH  21  22
ATOM     22  O   UNL     1      32.701 -21.162 -19.231  0.00  0.00    -0.480 OA
ATOM     23  H   UNL     1      32.077 -20.474 -19.108  0.00  0.00    +0.295 HD
ENDBRANCH  21  22
ENDBRANCH  19  21
ENDBRANCH  18  19
ENDBRANCH   5  18
TORSDOF 6
ENDMDL
