MODEL 1
REMARK VINA RESULT:      -9.5      0.000      0.000
REMARK  Name = 6956329
REMARK  2 active torsions:
REMARK  status: ('A' for Active; 'I' for Inactive)
REMARK    1  A    between atoms: C_5  and  N_18
REMARK    2  A    between atoms: C_16  and  C_27
REMARK                            x       y       z     vdW  Elec       q    Type
REMARK                         _______ _______ _______ _____ _____    ______ ____
ROOT
ATOM      1  F   UNL     1      35.170 -11.463 -25.661  0.00  0.00    -0.203 F 
ATOM      2  O   UNL     1      32.027 -12.391 -22.247  0.00  0.00    -0.471 OA
ATOM      3  O   UNL     1      33.785  -6.900 -23.983  0.00  0.00    -0.286 OA
ATOM      4  N   UNL     1      31.743  -9.585 -21.702  0.00  0.00    -0.281 N 
ATOM      5  C   UNL     1      33.602 -11.920 -23.938  0.00  0.00    +0.111 C 
ATOM      6  C   UNL     1      32.722 -11.448 -22.962  0.00  0.00    +0.168 C 
ATOM      7  C   UNL     1      32.585 -10.073 -22.721  0.00  0.00    +0.091 C 
ATOM      8  C   UNL     1      31.117 -10.594 -20.843  0.00  0.00    +0.121 C 
ATOM      9  C   UNL     1      30.835 -11.851 -21.666  0.00  0.00    +0.225 C 
ATOM     10  C   UNL     1      33.320  -9.177 -23.522  0.00  0.00    +0.058 C 
ATOM     11  C   UNL     1      34.330 -11.019 -24.713  0.00  0.00    +0.156 C 
ATOM     12  C   UNL     1      34.188  -9.647 -24.514  0.00  0.00    +0.036 C 
ATOM     13  C   UNL     1      31.628  -8.224 -21.504  0.00  0.00    +0.075 C 
ATOM     14  C   UNL     1      32.012 -10.884 -19.636  0.00  0.00    +0.026 C 
ATOM     15  C   UNL     1      33.175  -7.713 -23.300  0.00  0.00    +0.205 C 
ATOM     16  C   UNL     1      32.259  -7.282 -22.213  0.00  0.00    +0.133 C 
ENDROOT
BRANCH   5  18
ATOM     17  N   UNL     1      33.867 -16.105 -24.560  0.00  0.00    +0.388 N 
ATOM     18  N   UNL     1      33.755 -13.294 -24.161  0.00  0.00    -0.308 N 
ATOM     19  C   UNL     1      34.819 -15.439 -23.599  0.00  0.00    -0.056 C 
ATOM     20  C   UNL     1      33.538 -15.191 -25.713  0.00  0.00    -0.056 C 
ATOM     21  C   UNL     1      34.184 -14.164 -23.061  0.00  0.00    +0.068 C 
ATOM     22  C   UNL     1      32.898 -13.918 -25.177  0.00  0.00    +0.068 C 
ATOM     23  C   UNL     1      34.383 -17.436 -25.029  0.00  0.00    -0.101 C 
ATOM     24  H   UNL     1      32.999 -16.291 -24.056  0.00  0.00    -0.080 HD
ENDBRANCH   5  18
BRANCH  16  27
ATOM     25  O   UNL     1      32.359  -5.493 -20.698  0.00  0.00    -0.240 OA
ATOM     26  O   UNL     1      31.518  -5.132 -22.795  0.00  0.00    -0.240 OA
ATOM     27  C   UNL     1      32.023  -5.830 -21.869  0.00  0.00    +0.392 C 
ENDBRANCH  16  27
TORSDOF 2
ENDMDL
MODEL 2
REMARK VINA RESULT:      -9.0     13.888     15.982
REMARK  Name = 6956329
REMARK  2 active torsions:
REMARK  status: ('A' for Active; 'I' for Inactive)
REMARK    1  A    between atoms: C_5  and  N_18
REMARK    2  A    between atoms: C_16  and  C_27
REMARK                            x       y       z     vdW  Elec       q    Type
REMARK                         _______ _______ _______ _____ _____    ______ ____
ROOT
ATOM      1  F   UNL     1      34.474 -25.096 -12.284  0.00  0.00    -0.203 F 
ATOM      2  O   UNL     1      35.401 -23.443 -16.620  0.00  0.00    -0.471 OA
ATOM      3  O   UNL     1      29.955 -23.691 -14.063  0.00  0.00    -0.286 OA
ATOM      4  N   UNL     1      32.606 -22.946 -17.063  0.00  0.00    -0.281 N 
ATOM      5  C   UNL     1      34.929 -24.278 -14.466  0.00  0.00    +0.111 C 
ATOM      6  C   UNL     1      34.463 -23.713 -15.655  0.00  0.00    +0.168 C 
ATOM      7  C   UNL     1      33.096 -23.463 -15.847  0.00  0.00    +0.091 C 
ATOM      8  C   UNL     1      33.586 -22.798 -18.143  0.00  0.00    +0.121 C 
ATOM      9  C   UNL     1      34.948 -22.447 -17.543  0.00  0.00    +0.225 C 
ATOM     10  C   UNL     1      32.210 -23.749 -14.790  0.00  0.00    +0.058 C 
ATOM     11  C   UNL     1      34.036 -24.564 -13.435  0.00  0.00    +0.156 C 
ATOM     12  C   UNL     1      32.676 -24.295 -13.589  0.00  0.00    +0.036 C 
ATOM     13  C   UNL     1      31.256 -22.704 -17.207  0.00  0.00    +0.075 C 
ATOM     14  C   UNL     1      33.639 -24.077 -18.983  0.00  0.00    +0.026 C 
ATOM     15  C   UNL     1      30.758 -23.471 -14.961  0.00  0.00    +0.205 C 
ATOM     16  C   UNL     1      30.326 -22.917 -16.270  0.00  0.00    +0.133 C 
ENDROOT
BRANCH   5  18
ATOM     17  N   UNL     1      39.001 -25.231 -13.770  0.00  0.00    +0.388 N 
ATOM     18  N   UNL     1      36.291 -24.549 -14.286  0.00  0.00    -0.308 N 
ATOM     19  C   UNL     1      38.553 -23.795 -13.683  0.00  0.00    -0.056 C 
ATOM     20  C   UNL     1      38.222 -25.975 -14.826  0.00  0.00    -0.056 C 
ATOM     21  C   UNL     1      37.070 -23.748 -13.337  0.00  0.00    +0.068 C 
ATOM     22  C   UNL     1      36.740 -25.934 -14.479  0.00  0.00    +0.068 C 
ATOM     23  C   UNL     1      40.483 -25.345 -13.984  0.00  0.00    -0.101 C 
ATOM     24  H   UNL     1      38.801 -25.673 -12.872  0.00  0.00    -0.080 HD
ENDBRANCH   5  18
BRANCH  16  27
ATOM     25  O   UNL     1      28.424 -23.159 -17.622  0.00  0.00    -0.240 OA
ATOM     26  O   UNL     1      28.316 -21.808 -15.779  0.00  0.00    -0.240 OA
ATOM     27  C   UNL     1      28.884 -22.597 -16.587  0.00  0.00    +0.392 C 
ENDBRANCH  16  27
TORSDOF 2
ENDMDL
MODEL 3
REMARK VINA RESULT:      -8.3      3.142      7.857
REMARK  Name = 6956329
REMARK  2 active torsions:
REMARK  status: ('A' for Active; 'I' for Inactive)
REMARK    1  A    between atoms: C_5  and  N_18
REMARK    2  A    between atoms: C_16  and  C_27
REMARK                            x       y       z     vdW  Elec       q    Type
REMARK                         _______ _______ _______ _____ _____    ______ ____
ROOT
ATOM      1  F   UNL     1      33.252 -12.580 -26.182  0.00  0.00    -0.203 F 
ATOM      2  O   UNL     1      33.738 -13.371 -21.542  0.00  0.00    -0.471 OA
ATOM      3  O   UNL     1      34.395 -17.495 -25.881  0.00  0.00    -0.286 OA
ATOM      4  N   UNL     1      34.248 -16.155 -22.038  0.00  0.00    -0.281 N 
ATOM      5  C   UNL     1      33.484 -12.988 -23.855  0.00  0.00    +0.111 C 
ATOM      6  C   UNL     1      33.761 -13.880 -22.817  0.00  0.00    +0.168 C 
ATOM      7  C   UNL     1      34.022 -15.233 -23.080  0.00  0.00    +0.091 C 
ATOM      8  C   UNL     1      34.077 -15.643 -20.675  0.00  0.00    +0.121 C 
ATOM      9  C   UNL     1      34.498 -14.174 -20.632  0.00  0.00    +0.225 C 
ATOM     10  C   UNL     1      34.050 -15.659 -24.422  0.00  0.00    +0.058 C 
ATOM     11  C   UNL     1      33.505 -13.431 -25.176  0.00  0.00    +0.156 C 
ATOM     12  C   UNL     1      33.793 -14.764 -25.466  0.00  0.00    +0.036 C 
ATOM     13  C   UNL     1      34.513 -17.475 -22.340  0.00  0.00    +0.075 C 
ATOM     14  C   UNL     1      32.629 -15.842 -20.218  0.00  0.00    +0.026 C 
ATOM     15  C   UNL     1      34.347 -17.085 -24.728  0.00  0.00    +0.205 C 
ATOM     16  C   UNL     1      34.583 -17.988 -23.572  0.00  0.00    +0.133 C 
ENDROOT
BRANCH   5  18
ATOM     17  N   UNL     1      32.466  -8.928 -23.185  0.00  0.00    +0.388 N 
ATOM     18  N   UNL     1      33.200 -11.643 -23.589  0.00  0.00    -0.308 N 
ATOM     19  C   UNL     1      33.866  -9.276 -23.622  0.00  0.00    -0.056 C 
ATOM     20  C   UNL     1      31.897 -10.005 -22.296  0.00  0.00    -0.056 C 
ATOM     21  C   UNL     1      33.843 -10.594 -24.385  0.00  0.00    +0.068 C 
ATOM     22  C   UNL     1      31.868 -11.322 -23.059  0.00  0.00    +0.068 C 
ATOM     23  C   UNL     1      32.401  -7.574 -22.536  0.00  0.00    -0.101 C 
ATOM     24  H   UNL     1      31.884  -8.878 -24.021  0.00  0.00    -0.080 HD
ENDBRANCH   5  18
BRANCH  16  27
ATOM     25  O   UNL     1      35.107 -20.084 -22.656  0.00  0.00    -0.240 OA
ATOM     26  O   UNL     1      34.878 -19.885 -24.923  0.00  0.00    -0.240 OA
ATOM     27  C   UNL     1      34.885 -19.460 -23.732  0.00  0.00    +0.392 C 
ENDBRANCH  16  27
TORSDOF 2
ENDMDL
MODEL 4
REMARK VINA RESULT:      -7.4     14.138     16.804
REMARK  Name = 6956329
REMARK  2 active torsions:
REMARK  status: ('A' for Active; 'I' for Inactive)
REMARK    1  A    between atoms: C_5  and  N_18
REMARK    2  A    between atoms: C_16  and  C_27
REMARK                            x       y       z     vdW  Elec       q    Type
REMARK                         _______ _______ _______ _____ _____    ______ ____
ROOT
ATOM      1  F   UNL     1      31.119 -24.818 -12.721  0.00  0.00    -0.203 F 
ATOM      2  O   UNL     1      33.367 -23.276 -16.589  0.00  0.00    -0.471 OA
ATOM      3  O   UNL     1      36.018 -25.383 -11.610  0.00  0.00    -0.286 OA
ATOM      4  N   UNL     1      35.910 -23.747 -15.338  0.00  0.00    -0.281 N 
ATOM      5  C   UNL     1      32.255 -24.033 -14.652  0.00  0.00    +0.111 C 
ATOM      6  C   UNL     1      33.457 -23.790 -15.319  0.00  0.00    +0.168 C 
ATOM      7  C   UNL     1      34.689 -24.041 -14.697  0.00  0.00    +0.091 C 
ATOM      8  C   UNL     1      35.813 -23.062 -16.629  0.00  0.00    +0.121 C 
ATOM      9  C   UNL     1      34.550 -23.530 -17.354  0.00  0.00    +0.225 C 
ATOM     10  C   UNL     1      34.683 -24.593 -13.402  0.00  0.00    +0.058 C 
ATOM     11  C   UNL     1      32.269 -24.570 -13.366  0.00  0.00    +0.156 C 
ATOM     12  C   UNL     1      33.480 -24.858 -12.739  0.00  0.00    +0.036 C 
ATOM     13  C   UNL     1      37.101 -24.020 -14.695  0.00  0.00    +0.075 C 
ATOM     14  C   UNL     1      35.830 -21.546 -16.422  0.00  0.00    +0.026 C 
ATOM     15  C   UNL     1      35.977 -24.890 -12.730  0.00  0.00    +0.205 C 
ATOM     16  C   UNL     1      37.218 -24.560 -13.478  0.00  0.00    +0.133 C 
ENDROOT
BRANCH   5  18
ATOM     17  N   UNL     1      28.448 -23.198 -16.321  0.00  0.00    +0.388 N 
ATOM     18  N   UNL     1      31.026 -23.759 -15.266  0.00  0.00    -0.308 N 
ATOM     19  C   UNL     1      29.196 -24.429 -16.765  0.00  0.00    -0.056 C 
ATOM     20  C   UNL     1      29.402 -22.071 -16.016  0.00  0.00    -0.056 C 
ATOM     21  C   UNL     1      30.151 -24.866 -15.662  0.00  0.00    +0.068 C 
ATOM     22  C   UNL     1      30.353 -22.503 -14.909  0.00  0.00    +0.068 C 
ATOM     23  C   UNL     1      27.398 -22.790 -17.315  0.00  0.00    -0.101 C 
ATOM     24  H   UNL     1      27.957 -23.430 -15.457  0.00  0.00    -0.080 HD
ENDBRANCH   5  18
BRANCH  16  27
ATOM     25  O   UNL     1      39.058 -23.859 -12.201  0.00  0.00    -0.240 OA
ATOM     26  O   UNL     1      39.128 -25.902 -13.229  0.00  0.00    -0.240 OA
ATOM     27  C   UNL     1      38.600 -24.796 -12.916  0.00  0.00    +0.392 C 
ENDBRANCH  16  27
TORSDOF 2
ENDMDL
MODEL 5
REMARK VINA RESULT:      -7.1      2.639      6.710
REMARK  Name = 6956329
REMARK  2 active torsions:
REMARK  status: ('A' for Active; 'I' for Inactive)
REMARK    1  A    between atoms: C_5  and  N_18
REMARK    2  A    between atoms: C_16  and  C_27
REMARK                            x       y       z     vdW  Elec       q    Type
REMARK                         _______ _______ _______ _____ _____    ______ ____
ROOT
ATOM      1  F   UNL     1      33.992 -10.259 -25.794  0.00  0.00    -0.203 F 
ATOM      2  O   UNL     1      31.984  -9.424 -21.591  0.00  0.00    -0.471 OA
ATOM      3  O   UNL     1      33.951 -14.777 -23.525  0.00  0.00    -0.286 OA
ATOM      4  N   UNL     1      32.171 -12.209 -20.912  0.00  0.00    -0.281 N 
ATOM      5  C   UNL     1      32.973  -9.851 -23.689  0.00  0.00    +0.111 C 
ATOM      6  C   UNL     1      32.541 -10.336 -22.453  0.00  0.00    +0.168 C 
ATOM      7  C   UNL     1      32.655 -11.697 -22.133  0.00  0.00    +0.091 C 
ATOM      8  C   UNL     1      31.446 -11.265 -20.059  0.00  0.00    +0.121 C 
ATOM      9  C   UNL     1      32.043  -9.868 -20.231  0.00  0.00    +0.225 C 
ATOM     10  C   UNL     1      33.263 -12.555 -23.070  0.00  0.00    +0.058 C 
ATOM     11  C   UNL     1      33.563 -10.717 -24.608  0.00  0.00    +0.156 C 
ATOM     12  C   UNL     1      33.716 -12.069 -24.301  0.00  0.00    +0.036 C 
ATOM     13  C   UNL     1      32.313 -13.553 -20.632  0.00  0.00    +0.075 C 
ATOM     14  C   UNL     1      29.951 -11.299 -20.390  0.00  0.00    +0.026 C 
ATOM     15  C   UNL     1      33.415 -13.999 -22.745  0.00  0.00    +0.205 C 
ATOM     16  C   UNL     1      32.888 -14.455 -21.433  0.00  0.00    +0.133 C 
ENDROOT
BRANCH   5  18
ATOM     17  N   UNL     1      32.619  -5.702 -24.484  0.00  0.00    +0.388 N 
ATOM     18  N   UNL     1      32.837  -8.496 -24.015  0.00  0.00    -0.308 N 
ATOM     19  C   UNL     1      31.431  -6.602 -24.710  0.00  0.00    -0.056 C 
ATOM     20  C   UNL     1      33.907  -6.423 -24.796  0.00  0.00    -0.056 C 
ATOM     21  C   UNL     1      31.548  -7.829 -23.814  0.00  0.00    +0.068 C 
ATOM     22  C   UNL     1      34.028  -7.645 -23.897  0.00  0.00    +0.068 C 
ATOM     23  C   UNL     1      32.499  -4.414 -25.247  0.00  0.00    -0.101 C 
ATOM     24  H   UNL     1      32.636  -5.455 -23.494  0.00  0.00    -0.080 HD
ENDBRANCH   5  18
BRANCH  16  27
ATOM     25  O   UNL     1      31.851 -16.442 -20.738  0.00  0.00    -0.240 OA
ATOM     26  O   UNL     1      34.133 -16.369 -20.887  0.00  0.00    -0.240 OA
ATOM     27  C   UNL     1      32.965 -15.893 -20.976  0.00  0.00    +0.392 C 
ENDBRANCH  16  27
TORSDOF 2
ENDMDL
MODEL 6
REMARK VINA RESULT:      -7.0      8.211     12.292
REMARK  Name = 6956329
REMARK  2 active torsions:
REMARK  status: ('A' for Active; 'I' for Inactive)
REMARK    1  A    between atoms: C_5  and  N_18
REMARK    2  A    between atoms: C_16  and  C_27
REMARK                            x       y       z     vdW  Elec       q    Type
REMARK                         _______ _______ _______ _____ _____    ______ ____
ROOT
ATOM      1  F   UNL     1      31.752 -19.665 -21.369  0.00  0.00    -0.203 F 
ATOM      2  O   UNL     1      36.377 -20.177 -20.507  0.00  0.00    -0.471 OA
ATOM      3  O   UNL     1      31.935 -22.909 -17.496  0.00  0.00    -0.286 OA
ATOM      4  N   UNL     1      35.805 -21.932 -18.305  0.00  0.00    -0.281 N 
ATOM      5  C   UNL     1      34.070 -19.917 -20.921  0.00  0.00    +0.111 C 
ATOM      6  C   UNL     1      35.087 -20.507 -20.169  0.00  0.00    +0.168 C 
ATOM      7  C   UNL     1      34.789 -21.374 -19.107  0.00  0.00    +0.091 C 
ATOM      8  C   UNL     1      37.167 -21.464 -18.571  0.00  0.00    +0.121 C 
ATOM      9  C   UNL     1      37.315 -21.163 -20.063  0.00  0.00    +0.225 C 
ATOM     10  C   UNL     1      33.437 -21.675 -18.851  0.00  0.00    +0.058 C 
ATOM     11  C   UNL     1      32.738 -20.218 -20.645  0.00  0.00    +0.156 C 
ATOM     12  C   UNL     1      32.416 -21.101 -19.615  0.00  0.00    +0.036 C 
ATOM     13  C   UNL     1      35.469 -22.789 -17.277  0.00  0.00    +0.075 C 
ATOM     14  C   UNL     1      37.482 -20.243 -17.703  0.00  0.00    +0.026 C 
ATOM     15  C   UNL     1      33.096 -22.609 -17.744  0.00  0.00    +0.205 C 
ATOM     16  C   UNL     1      34.227 -23.161 -16.954  0.00  0.00    +0.133 C 
ENDROOT
BRANCH   5  18
ATOM     17  N   UNL     1      35.172 -17.311 -24.078  0.00  0.00    +0.388 N 
ATOM     18  N   UNL     1      34.370 -19.033 -21.965  0.00  0.00    -0.308 N 
ATOM     19  C   UNL     1      34.553 -16.738 -22.829  0.00  0.00    -0.056 C 
ATOM     20  C   UNL     1      34.598 -18.671 -24.388  0.00  0.00    -0.056 C 
ATOM     21  C   UNL     1      34.822 -17.674 -21.657  0.00  0.00    +0.068 C 
ATOM     22  C   UNL     1      34.871 -19.609 -23.221  0.00  0.00    +0.068 C 
ATOM     23  C   UNL     1      35.052 -16.373 -25.245  0.00  0.00    -0.101 C 
ATOM     24  H   UNL     1      36.170 -17.430 -23.902  0.00  0.00    -0.080 HD
ENDBRANCH   5  18
BRANCH  16  27
ATOM     25  O   UNL     1      33.009 -23.885 -15.083  0.00  0.00    -0.240 OA
ATOM     26  O   UNL     1      34.905 -25.015 -15.684  0.00  0.00    -0.240 OA
ATOM     27  C   UNL     1      34.028 -24.112 -15.796  0.00  0.00    +0.392 C 
ENDBRANCH  16  27
TORSDOF 2
ENDMDL
MODEL 7
REMARK VINA RESULT:      -6.9      4.886      7.434
REMARK  Name = 6956329
REMARK  2 active torsions:
REMARK  status: ('A' for Active; 'I' for Inactive)
REMARK    1  A    between atoms: C_5  and  N_18
REMARK    2  A    between atoms: C_16  and  C_27
REMARK                            x       y       z     vdW  Elec       q    Type
REMARK                         _______ _______ _______ _____ _____    ______ ____
ROOT
ATOM      1  F   UNL     1      34.824 -16.177 -19.754  0.00  0.00    -0.203 F 
ATOM      2  O   UNL     1      34.702 -18.697 -23.757  0.00  0.00    -0.471 OA
ATOM      3  O   UNL     1      33.807 -12.757 -23.336  0.00  0.00    -0.286 OA
ATOM      4  N   UNL     1      34.034 -16.340 -25.258  0.00  0.00    -0.281 N 
ATOM      5  C   UNL     1      34.748 -17.436 -21.765  0.00  0.00    +0.111 C 
ATOM      6  C   UNL     1      34.576 -17.472 -23.150  0.00  0.00    +0.168 C 
ATOM      7  C   UNL     1      34.265 -16.308 -23.868  0.00  0.00    +0.091 C 
ATOM      8  C   UNL     1      34.022 -17.667 -25.879  0.00  0.00    +0.121 C 
ATOM      9  C   UNL     1      35.012 -18.575 -25.149  0.00  0.00    +0.225 C 
ATOM     10  C   UNL     1      34.181 -15.091 -23.164  0.00  0.00    +0.058 C 
ATOM     11  C   UNL     1      34.650 -16.224 -21.083  0.00  0.00    +0.156 C 
ATOM     12  C   UNL     1      34.373 -15.048 -21.779  0.00  0.00    +0.036 C 
ATOM     13  C   UNL     1      33.742 -15.170 -25.929  0.00  0.00    +0.075 C 
ATOM     14  C   UNL     1      32.602 -18.238 -25.870  0.00  0.00    +0.026 C 
ATOM     15  C   UNL     1      33.875 -13.839 -23.906  0.00  0.00    +0.205 C 
ATOM     16  C   UNL     1      33.655 -13.958 -25.371  0.00  0.00    +0.133 C 
ENDROOT
BRANCH   5  18
ATOM     17  N   UNL     1      35.694 -21.052 -19.764  0.00  0.00    +0.388 N 
ATOM     18  N   UNL     1      35.034 -18.603 -21.047  0.00  0.00    -0.308 N 
ATOM     19  C   UNL     1      34.273 -20.551 -19.753  0.00  0.00    -0.056 C 
ATOM     20  C   UNL     1      36.669 -19.901 -19.745  0.00  0.00    -0.056 C 
ATOM     21  C   UNL     1      34.036 -19.674 -20.976  0.00  0.00    +0.068 C 
ATOM     22  C   UNL     1      36.439 -19.027 -20.970  0.00  0.00    +0.068 C 
ATOM     23  C   UNL     1      35.955 -22.025 -18.650  0.00  0.00    -0.101 C 
ATOM     24  H   UNL     1      35.836 -21.562 -20.636  0.00  0.00    -0.080 HD
ENDBRANCH   5  18
BRANCH  16  27
ATOM     25  O   UNL     1      32.626 -13.037 -27.268  0.00  0.00    -0.240 OA
ATOM     26  O   UNL     1      33.792 -11.666 -25.856  0.00  0.00    -0.240 OA
ATOM     27  C   UNL     1      33.326 -12.774 -26.249  0.00  0.00    +0.392 C 
ENDBRANCH  16  27
TORSDOF 2
ENDMDL
