MODEL 1
REMARK VINA RESULT:      -9.9      0.000      0.000
REMARK  Name = 62370
REMARK  8 active torsions:
REMARK  status: ('A' for Active; 'I' for Inactive)
REMARK    1  A    between atoms: C_1  and  N_3
REMARK    2  A    between atoms: C_1  and  C_14
REMARK    3  A    between atoms: N_3  and  C_6
REMARK    4  A    between atoms: C_6  and  C_7
REMARK    5  A    between atoms: C_7  and  C_8
REMARK    6  A    between atoms: C_14  and  N_16
REMARK    7  A    between atoms: N_16  and  C_18
REMARK    8  A    between atoms: C_17  and  C_24
REMARK                            x       y       z     vdW  Elec       q    Type
REMARK                         _______ _______ _______ _____ _____    ______ ____
ROOT
ATOM      1  C   UNL     1      34.137 -15.058 -21.877  0.00  0.00    -0.038 C 
ATOM      2  C   UNL     1      34.628 -14.958 -20.434  0.00  0.00    -0.021 C 
ENDROOT
BRANCH   1   3
ATOM      3  N   UNL     1      34.343 -16.427 -22.353  0.00  0.00    +0.388 N 
ATOM      4  C   UNL     1      35.070 -16.423 -23.622  0.00  0.00    -0.100 C 
ATOM      5  H   UNL     1      33.432 -16.858 -22.504  0.00  0.00    -0.080 HD
BRANCH   3   6
ATOM      6  C   UNL     1      35.065 -17.211 -21.352  0.00  0.00    -0.073 C 
BRANCH   6   7
ATOM      7  C   UNL     1      35.412 -18.600 -21.890  0.00  0.00    +0.004 C 
BRANCH   7   8
ATOM      8  C   UNL     1      34.892 -19.690 -20.987  0.00  0.00    -0.024 C 
ATOM      9  C   UNL     1      33.527 -19.805 -20.775  0.00  0.00    -0.004 C 
ATOM     10  C   UNL     1      35.788 -20.560 -20.384  0.00  0.00    -0.004 C 
ATOM     11  C   UNL     1      33.046 -20.812 -19.940  0.00  0.00    -0.000 C 
ATOM     12  C   UNL     1      35.308 -21.568 -19.549  0.00  0.00    -0.000 C 
ATOM     13  C   UNL     1      33.936 -21.695 -19.327  0.00  0.00    -0.000 C 
ENDBRANCH   7   8
ENDBRANCH   6   7
ENDBRANCH   3   6
ENDBRANCH   1   3
BRANCH   1  14
ATOM     14  C   UNL     1      32.654 -14.703 -22.009  0.00  0.00    +0.077 C 
BRANCH  14  16
ATOM     15  O   UNL     1      31.137 -11.413 -22.232  0.00  0.00    -0.275 OA
ATOM     16  N   UNL     1      32.453 -13.336 -22.516  0.00  0.00    -0.261 N 
ATOM     17  C   UNL     1      31.793 -12.343 -21.757  0.00  0.00    +0.229 C 
BRANCH  16  18
ATOM     18  C   UNL     1      32.946 -12.999 -23.836  0.00  0.00    +0.054 C 
ATOM     19  C   UNL     1      33.636 -11.826 -23.984  0.00  0.00    +0.015 C 
ATOM     20  C   UNL     1      32.694 -13.872 -24.859  0.00  0.00    +0.015 C 
ATOM     21  C   UNL     1      34.110 -11.500 -25.255  0.00  0.00    +0.001 C 
ATOM     22  C   UNL     1      33.170 -13.546 -26.131  0.00  0.00    +0.001 C 
ATOM     23  C   UNL     1      33.877 -12.360 -26.327  0.00  0.00    +0.000 C 
ENDBRANCH  16  18
BRANCH  17  24
ATOM     24  C   UNL     1      31.963 -12.439 -20.244  0.00  0.00    +0.086 C 
ATOM     25  C   UNL     1      31.543 -11.168 -19.521  0.00  0.00    +0.010 C 
ENDBRANCH  17  24
ENDBRANCH  14  16
ENDBRANCH   1  14
TORSDOF 8
ENDMDL
MODEL 2
REMARK VINA RESULT:      -9.6      1.040      3.210
REMARK  Name = 62370
REMARK  8 active torsions:
REMARK  status: ('A' for Active; 'I' for Inactive)
REMARK    1  A    between atoms: C_1  and  N_3
REMARK    2  A    between atoms: C_1  and  C_14
REMARK    3  A    between atoms: N_3  and  C_6
REMARK    4  A    between atoms: C_6  and  C_7
REMARK    5  A    between atoms: C_7  and  C_8
REMARK    6  A    between atoms: C_14  and  N_16
REMARK    7  A    between atoms: N_16  and  C_18
REMARK    8  A    between atoms: C_17  and  C_24
REMARK                            x       y       z     vdW  Elec       q    Type
REMARK                         _______ _______ _______ _____ _____    ______ ____
ROOT
ATOM      1  C   UNL     1      34.250 -15.280 -22.000  0.00  0.00    -0.038 C 
ATOM      2  C   UNL     1      34.556 -15.044 -20.521  0.00  0.00    -0.021 C 
ENDROOT
BRANCH   1   3
ATOM      3  N   UNL     1      34.385 -16.709 -22.287  0.00  0.00    +0.388 N 
ATOM      4  C   UNL     1      35.062 -16.910 -23.567  0.00  0.00    -0.100 C 
ATOM      5  H   UNL     1      33.452 -17.117 -22.349  0.00  0.00    -0.080 HD
BRANCH   3   6
ATOM      6  C   UNL     1      35.113 -17.379 -21.212  0.00  0.00    -0.073 C 
BRANCH   6   7
ATOM      7  C   UNL     1      35.601 -18.758 -21.657  0.00  0.00    +0.004 C 
BRANCH   7   8
ATOM      8  C   UNL     1      35.010 -19.856 -20.808  0.00  0.00    -0.024 C 
ATOM      9  C   UNL     1      33.633 -19.953 -20.683  0.00  0.00    -0.004 C 
ATOM     10  C   UNL     1      35.854 -20.751 -20.169  0.00  0.00    -0.004 C 
ATOM     11  C   UNL     1      33.086 -20.967 -19.899  0.00  0.00    -0.000 C 
ATOM     12  C   UNL     1      35.308 -21.767 -19.384  0.00  0.00    -0.000 C 
ATOM     13  C   UNL     1      33.924 -21.875 -19.249  0.00  0.00    -0.000 C 
ENDBRANCH   7   8
ENDBRANCH   6   7
ENDBRANCH   3   6
ENDBRANCH   1   3
BRANCH   1  14
ATOM     14  C   UNL     1      32.837 -14.827 -22.377  0.00  0.00    +0.077 C 
BRANCH  14  16
ATOM     15  O   UNL     1      33.779 -12.102 -24.581  0.00  0.00    -0.275 OA
ATOM     16  N   UNL     1      32.818 -13.463 -22.927  0.00  0.00    -0.261 N 
ATOM     17  C   UNL     1      33.276 -13.173 -24.232  0.00  0.00    +0.229 C 
BRANCH  16  18
ATOM     18  C   UNL     1      32.314 -12.382 -22.104  0.00  0.00    +0.054 C 
ATOM     19  C   UNL     1      32.161 -11.151 -22.682  0.00  0.00    +0.015 C 
ATOM     20  C   UNL     1      32.018 -12.654 -20.796  0.00  0.00    +0.015 C 
ATOM     21  C   UNL     1      31.677 -10.110 -21.890  0.00  0.00    +0.001 C 
ATOM     22  C   UNL     1      31.532 -11.612 -20.004  0.00  0.00    +0.001 C 
ATOM     23  C   UNL     1      31.362 -10.341 -20.552  0.00  0.00    +0.000 C 
ENDBRANCH  16  18
BRANCH  17  24
ATOM     24  C   UNL     1      33.081 -14.277 -25.267  0.00  0.00    +0.086 C 
ATOM     25  C   UNL     1      33.105 -13.756 -26.696  0.00  0.00    +0.010 C 
ENDBRANCH  17  24
ENDBRANCH  14  16
ENDBRANCH   1  14
TORSDOF 8
ENDMDL
MODEL 3
REMARK VINA RESULT:      -9.4      2.501      8.215
REMARK  Name = 62370
REMARK  8 active torsions:
REMARK  status: ('A' for Active; 'I' for Inactive)
REMARK    1  A    between atoms: C_1  and  N_3
REMARK    2  A    between atoms: C_1  and  C_14
REMARK    3  A    between atoms: N_3  and  C_6
REMARK    4  A    between atoms: C_6  and  C_7
REMARK    5  A    between atoms: C_7  and  C_8
REMARK    6  A    between atoms: C_14  and  N_16
REMARK    7  A    between atoms: N_16  and  C_18
REMARK    8  A    between atoms: C_17  and  C_24
REMARK                            x       y       z     vdW  Elec       q    Type
REMARK                         _______ _______ _______ _____ _____    ______ ____
ROOT
ATOM      1  C   UNL     1      33.305 -16.021 -21.519  0.00  0.00    -0.038 C 
ATOM      2  C   UNL     1      32.167 -16.348 -20.554  0.00  0.00    -0.021 C 
ENDROOT
BRANCH   1   3
ATOM      3  N   UNL     1      33.582 -14.585 -21.454  0.00  0.00    +0.388 N 
ATOM      4  C   UNL     1      33.926 -14.071 -22.779  0.00  0.00    -0.100 C 
ATOM      5  H   UNL     1      34.379 -14.437 -20.834  0.00  0.00    -0.080 HD
BRANCH   3   6
ATOM      6  C   UNL     1      32.431 -13.868 -20.908  0.00  0.00    -0.073 C 
BRANCH   6   7
ATOM      7  C   UNL     1      31.992 -12.743 -21.846  0.00  0.00    +0.004 C 
BRANCH   7   8
ATOM      8  C   UNL     1      31.899 -11.423 -21.123  0.00  0.00    -0.024 C 
ATOM      9  C   UNL     1      32.001 -10.244 -21.844  0.00  0.00    -0.004 C 
ATOM     10  C   UNL     1      31.710 -11.411 -19.749  0.00  0.00    -0.004 C 
ATOM     11  C   UNL     1      31.914  -9.023 -21.176  0.00  0.00    -0.000 C 
ATOM     12  C   UNL     1      31.623 -10.191 -19.080  0.00  0.00    -0.000 C 
ATOM     13  C   UNL     1      31.725  -8.996 -19.793  0.00  0.00    -0.000 C 
ENDBRANCH   7   8
ENDBRANCH   6   7
ENDBRANCH   3   6
ENDBRANCH   1   3
BRANCH   1  14
ATOM     14  C   UNL     1      34.585 -16.791 -21.185  0.00  0.00    +0.077 C 
BRANCH  14  16
ATOM     15  O   UNL     1      34.238 -19.178 -23.898  0.00  0.00    -0.275 OA
ATOM     16  N   UNL     1      34.634 -18.104 -21.849  0.00  0.00    -0.261 N 
ATOM     17  C   UNL     1      34.701 -18.234 -23.254  0.00  0.00    +0.229 C 
BRANCH  16  18
ATOM     18  C   UNL     1      34.611 -19.302 -21.034  0.00  0.00    +0.054 C 
ATOM     19  C   UNL     1      35.807 -19.882 -20.709  0.00  0.00    +0.015 C 
ATOM     20  C   UNL     1      33.394 -19.785 -20.634  0.00  0.00    +0.015 C 
ATOM     21  C   UNL     1      35.786 -21.036 -19.925  0.00  0.00    +0.001 C 
ATOM     22  C   UNL     1      33.373 -20.939 -19.849  0.00  0.00    +0.001 C 
ATOM     23  C   UNL     1      34.569 -21.563 -19.495  0.00  0.00    +0.000 C 
ENDBRANCH  16  18
BRANCH  17  24
ATOM     24  C   UNL     1      35.446 -17.123 -23.990  0.00  0.00    +0.086 C 
ATOM     25  C   UNL     1      34.751 -16.699 -25.275  0.00  0.00    +0.010 C 
ENDBRANCH  17  24
ENDBRANCH  14  16
ENDBRANCH   1  14
TORSDOF 8
ENDMDL
MODEL 4
REMARK VINA RESULT:      -9.3      1.691      2.541
REMARK  Name = 62370
REMARK  8 active torsions:
REMARK  status: ('A' for Active; 'I' for Inactive)
REMARK    1  A    between atoms: C_1  and  N_3
REMARK    2  A    between atoms: C_1  and  C_14
REMARK    3  A    between atoms: N_3  and  C_6
REMARK    4  A    between atoms: C_6  and  C_7
REMARK    5  A    between atoms: C_7  and  C_8
REMARK    6  A    between atoms: C_14  and  N_16
REMARK    7  A    between atoms: N_16  and  C_18
REMARK    8  A    between atoms: C_17  and  C_24
REMARK                            x       y       z     vdW  Elec       q    Type
REMARK                         _______ _______ _______ _____ _____    ______ ____
ROOT
ATOM      1  C   UNL     1      34.501 -17.250 -23.873  0.00  0.00    -0.038 C 
ATOM      2  C   UNL     1      34.462 -17.558 -25.370  0.00  0.00    -0.021 C 
ENDROOT
BRANCH   1   3
ATOM      3  N   UNL     1      35.365 -18.229 -23.212  0.00  0.00    +0.388 N 
ATOM      4  C   UNL     1      36.078 -17.610 -22.096  0.00  0.00    -0.100 C 
ATOM      5  H   UNL     1      36.052 -18.564 -23.887  0.00  0.00    -0.080 HD
BRANCH   3   6
ATOM      6  C   UNL     1      34.579 -19.371 -22.747  0.00  0.00    -0.073 C 
BRANCH   6   7
ATOM      7  C   UNL     1      33.975 -19.095 -21.370  0.00  0.00    +0.004 C 
BRANCH   7   8
ATOM      8  C   UNL     1      34.193 -20.253 -20.428  0.00  0.00    -0.024 C 
ATOM      9  C   UNL     1      35.483 -20.695 -20.179  0.00  0.00    -0.004 C 
ATOM     10  C   UNL     1      33.099 -20.855 -19.824  0.00  0.00    -0.004 C 
ATOM     11  C   UNL     1      35.685 -21.765 -19.308  0.00  0.00    -0.000 C 
ATOM     12  C   UNL     1      33.300 -21.925 -18.953  0.00  0.00    -0.000 C 
ATOM     13  C   UNL     1      34.593 -22.381 -18.695  0.00  0.00    -0.000 C 
ENDBRANCH   7   8
ENDBRANCH   6   7
ENDBRANCH   3   6
ENDBRANCH   1   3
BRANCH   1  14
ATOM     14  C   UNL     1      35.034 -15.843 -23.588  0.00  0.00    +0.077 C 
BRANCH  14  16
ATOM     15  O   UNL     1      31.940 -14.346 -22.420  0.00  0.00    -0.275 OA
ATOM     16  N   UNL     1      33.955 -14.845 -23.516  0.00  0.00    -0.261 N 
ATOM     17  C   UNL     1      33.112 -14.729 -22.388  0.00  0.00    +0.229 C 
BRANCH  16  18
ATOM     18  C   UNL     1      33.751 -13.952 -24.639  0.00  0.00    +0.054 C 
ATOM     19  C   UNL     1      34.045 -12.626 -24.468  0.00  0.00    +0.015 C 
ATOM     20  C   UNL     1      33.278 -14.485 -25.807  0.00  0.00    +0.015 C 
ATOM     21  C   UNL     1      33.848 -11.766 -25.549  0.00  0.00    +0.001 C 
ATOM     22  C   UNL     1      33.082 -13.625 -26.889  0.00  0.00    +0.001 C 
ATOM     23  C   UNL     1      33.367 -12.266 -26.758  0.00  0.00    +0.000 C 
ENDBRANCH  16  18
BRANCH  17  24
ATOM     24  C   UNL     1      33.747 -15.074 -21.044  0.00  0.00    +0.086 C 
ATOM     25  C   UNL     1      32.717 -15.331 -19.954  0.00  0.00    +0.010 C 
ENDBRANCH  17  24
ENDBRANCH  14  16
ENDBRANCH   1  14
TORSDOF 8
ENDMDL
MODEL 5
REMARK VINA RESULT:      -9.1      2.700      7.936
REMARK  Name = 62370
REMARK  8 active torsions:
REMARK  status: ('A' for Active; 'I' for Inactive)
REMARK    1  A    between atoms: C_1  and  N_3
REMARK    2  A    between atoms: C_1  and  C_14
REMARK    3  A    between atoms: N_3  and  C_6
REMARK    4  A    between atoms: C_6  and  C_7
REMARK    5  A    between atoms: C_7  and  C_8
REMARK    6  A    between atoms: C_14  and  N_16
REMARK    7  A    between atoms: N_16  and  C_18
REMARK    8  A    between atoms: C_17  and  C_24
REMARK                            x       y       z     vdW  Elec       q    Type
REMARK                         _______ _______ _______ _____ _____    ______ ____
ROOT
ATOM      1  C   UNL     1      32.493 -14.362 -22.225  0.00  0.00    -0.038 C 
ATOM      2  C   UNL     1      32.779 -14.992 -20.862  0.00  0.00    -0.021 C 
ENDROOT
BRANCH   1   3
ATOM      3  N   UNL     1      31.874 -13.052 -22.019  0.00  0.00    +0.388 N 
ATOM      4  C   UNL     1      31.974 -12.655 -20.615  0.00  0.00    -0.100 C 
ATOM      5  H   UNL     1      30.887 -13.117 -22.266  0.00  0.00    -0.080 HD
BRANCH   3   6
ATOM      6  C   UNL     1      32.501 -12.050 -22.879  0.00  0.00    -0.073 C 
BRANCH   6   7
ATOM      7  C   UNL     1      31.951 -10.654 -22.586  0.00  0.00    +0.004 C 
BRANCH   7   8
ATOM      8  C   UNL     1      32.939  -9.578 -22.962  0.00  0.00    -0.024 C 
ATOM      9  C   UNL     1      33.950  -9.868 -23.864  0.00  0.00    -0.004 C 
ATOM     10  C   UNL     1      32.820  -8.317 -22.399  0.00  0.00    -0.004 C 
ATOM     11  C   UNL     1      34.864  -8.875 -24.212  0.00  0.00    -0.000 C 
ATOM     12  C   UNL     1      33.733  -7.322 -22.746  0.00  0.00    -0.000 C 
ATOM     13  C   UNL     1      34.756  -7.601 -23.653  0.00  0.00    -0.000 C 
ENDBRANCH   7   8
ENDBRANCH   6   7
ENDBRANCH   3   6
ENDBRANCH   1   3
BRANCH   1  14
ATOM     14  C   UNL     1      33.765 -14.186 -23.059  0.00  0.00    +0.077 C 
BRANCH  14  16
ATOM     15  O   UNL     1      32.885 -15.636 -26.268  0.00  0.00    -0.275 OA
ATOM     16  N   UNL     1      33.832 -15.138 -24.178  0.00  0.00    -0.261 N 
ATOM     17  C   UNL     1      33.346 -14.820 -25.466  0.00  0.00    +0.229 C 
BRANCH  16  18
ATOM     18  C   UNL     1      34.416 -16.445 -23.952  0.00  0.00    +0.054 C 
ATOM     19  C   UNL     1      35.188 -16.620 -22.836  0.00  0.00    +0.015 C 
ATOM     20  C   UNL     1      34.160 -17.431 -24.866  0.00  0.00    +0.015 C 
ATOM     21  C   UNL     1      35.751 -17.878 -22.618  0.00  0.00    +0.001 C 
ATOM     22  C   UNL     1      34.723 -18.690 -24.648  0.00  0.00    +0.001 C 
ATOM     23  C   UNL     1      35.517 -18.912 -23.524  0.00  0.00    +0.000 C 
ENDBRANCH  16  18
BRANCH  17  24
ATOM     24  C   UNL     1      33.452 -13.353 -25.874  0.00  0.00    +0.086 C 
ATOM     25  C   UNL     1      33.370 -13.153 -27.380  0.00  0.00    +0.010 C 
ENDBRANCH  17  24
ENDBRANCH  14  16
ENDBRANCH   1  14
TORSDOF 8
ENDMDL
MODEL 6
REMARK VINA RESULT:      -9.1      6.213     11.850
REMARK  Name = 62370
REMARK  8 active torsions:
REMARK  status: ('A' for Active; 'I' for Inactive)
REMARK    1  A    between atoms: C_1  and  N_3
REMARK    2  A    between atoms: C_1  and  C_14
REMARK    3  A    between atoms: N_3  and  C_6
REMARK    4  A    between atoms: C_6  and  C_7
REMARK    5  A    between atoms: C_7  and  C_8
REMARK    6  A    between atoms: C_14  and  N_16
REMARK    7  A    between atoms: N_16  and  C_18
REMARK    8  A    between atoms: C_17  and  C_24
REMARK                            x       y       z     vdW  Elec       q    Type
REMARK                         _______ _______ _______ _____ _____    ______ ____
ROOT
ATOM      1  C   UNL     1      34.986 -23.058 -16.640  0.00  0.00    -0.038 C 
ATOM      2  C   UNL     1      33.603 -23.252 -17.261  0.00  0.00    -0.021 C 
ENDROOT
BRANCH   1   3
ATOM      3  N   UNL     1      35.694 -22.014 -17.382  0.00  0.00    +0.388 N 
ATOM      4  C   UNL     1      37.130 -22.079 -17.110  0.00  0.00    -0.100 C 
ATOM      5  H   UNL     1      35.349 -21.106 -17.073  0.00  0.00    -0.080 HD
BRANCH   3   6
ATOM      6  C   UNL     1      35.438 -22.144 -18.815  0.00  0.00    -0.073 C 
BRANCH   6   7
ATOM      7  C   UNL     1      36.411 -21.287 -19.626  0.00  0.00    +0.004 C 
BRANCH   7   8
ATOM      8  C   UNL     1      35.693 -20.196 -20.381  0.00  0.00    -0.024 C 
ATOM      9  C   UNL     1      34.311 -20.236 -20.483  0.00  0.00    -0.004 C 
ATOM     10  C   UNL     1      36.426 -19.171 -20.959  0.00  0.00    -0.004 C 
ATOM     11  C   UNL     1      33.646 -19.228 -21.180  0.00  0.00    -0.000 C 
ATOM     12  C   UNL     1      35.762 -18.162 -21.656  0.00  0.00    -0.000 C 
ATOM     13  C   UNL     1      34.372 -18.190 -21.767  0.00  0.00    -0.000 C 
ENDBRANCH   7   8
ENDBRANCH   6   7
ENDBRANCH   3   6
ENDBRANCH   1   3
BRANCH   1  14
ATOM     14  C   UNL     1      34.906 -22.654 -15.166  0.00  0.00    +0.077 C 
BRANCH  14  16
ATOM     15  O   UNL     1      34.252 -24.703 -12.242  0.00  0.00    -0.275 OA
ATOM     16  N   UNL     1      35.040 -23.809 -14.265  0.00  0.00    -0.261 N 
ATOM     17  C   UNL     1      34.042 -24.148 -13.323  0.00  0.00    +0.229 C 
BRANCH  16  18
ATOM     18  C   UNL     1      36.234 -24.626 -14.345  0.00  0.00    +0.054 C 
ATOM     19  C   UNL     1      36.127 -25.868 -14.913  0.00  0.00    +0.015 C 
ATOM     20  C   UNL     1      37.401 -24.110 -13.851  0.00  0.00    +0.015 C 
ATOM     21  C   UNL     1      37.276 -26.654 -14.990  0.00  0.00    +0.001 C 
ATOM     22  C   UNL     1      38.551 -24.898 -13.929  0.00  0.00    +0.001 C 
ATOM     23  C   UNL     1      38.487 -26.169 -14.499  0.00  0.00    +0.000 C 
ENDBRANCH  16  18
BRANCH  17  24
ATOM     24  C   UNL     1      32.607 -23.822 -13.727  0.00  0.00    +0.086 C 
ATOM     25  C   UNL     1      31.704 -25.047 -13.735  0.00  0.00    +0.010 C 
ENDBRANCH  17  24
ENDBRANCH  14  16
ENDBRANCH   1  14
TORSDOF 8
ENDMDL
MODEL 7
REMARK VINA RESULT:      -9.0      2.769      5.124
REMARK  Name = 62370
REMARK  8 active torsions:
REMARK  status: ('A' for Active; 'I' for Inactive)
REMARK    1  A    between atoms: C_1  and  N_3
REMARK    2  A    between atoms: C_1  and  C_14
REMARK    3  A    between atoms: N_3  and  C_6
REMARK    4  A    between atoms: C_6  and  C_7
REMARK    5  A    between atoms: C_7  and  C_8
REMARK    6  A    between atoms: C_14  and  N_16
REMARK    7  A    between atoms: N_16  and  C_18
REMARK    8  A    between atoms: C_17  and  C_24
REMARK                            x       y       z     vdW  Elec       q    Type
REMARK                         _______ _______ _______ _____ _____    ______ ____
ROOT
ATOM      1  C   UNL     1      32.322 -11.884 -21.817  0.00  0.00    -0.038 C 
ATOM      2  C   UNL     1      31.525 -11.567 -20.553  0.00  0.00    -0.021 C 
ENDROOT
BRANCH   1   3
ATOM      3  N   UNL     1      32.119 -13.291 -22.164  0.00  0.00    +0.388 N 
ATOM      4  C   UNL     1      32.302 -13.495 -23.601  0.00  0.00    -0.100 C 
ATOM      5  H   UNL     1      31.163 -13.550 -21.921  0.00  0.00    -0.080 HD
BRANCH   3   6
ATOM      6  C   UNL     1      33.035 -14.141 -21.406  0.00  0.00    -0.073 C 
BRANCH   6   7
ATOM      7  C   UNL     1      34.332 -14.376 -22.181  0.00  0.00    +0.004 C 
BRANCH   7   8
ATOM      8  C   UNL     1      34.678 -15.842 -22.250  0.00  0.00    -0.024 C 
ATOM      9  C   UNL     1      34.874 -16.438 -23.487  0.00  0.00    -0.004 C 
ATOM     10  C   UNL     1      34.797 -16.571 -21.076  0.00  0.00    -0.004 C 
ATOM     11  C   UNL     1      35.194 -17.793 -23.552  0.00  0.00    -0.000 C 
ATOM     12  C   UNL     1      35.117 -17.926 -21.140  0.00  0.00    -0.000 C 
ATOM     13  C   UNL     1      35.316 -18.538 -22.378  0.00  0.00    -0.000 C 
ENDBRANCH   7   8
ENDBRANCH   6   7
ENDBRANCH   3   6
ENDBRANCH   1   3
BRANCH   1  14
ATOM     14  C   UNL     1      31.896 -11.013 -23.002  0.00  0.00    +0.077 C 
BRANCH  14  16
ATOM     15  O   UNL     1      34.962  -9.140 -23.524  0.00  0.00    -0.275 OA
ATOM     16  N   UNL     1      32.746  -9.821 -23.150  0.00  0.00    -0.261 N 
ATOM     17  C   UNL     1      34.004  -9.869 -23.792  0.00  0.00    +0.229 C 
BRANCH  16  18
ATOM     18  C   UNL     1      32.279  -8.557 -22.617  0.00  0.00    +0.054 C 
ATOM     19  C   UNL     1      31.479  -7.780 -23.413  0.00  0.00    +0.015 C 
ATOM     20  C   UNL     1      32.662  -8.211 -21.350  0.00  0.00    +0.015 C 
ATOM     21  C   UNL     1      31.030  -6.563 -22.901  0.00  0.00    +0.001 C 
ATOM     22  C   UNL     1      32.211  -6.993 -20.838  0.00  0.00    +0.001 C 
ATOM     23  C   UNL     1      31.395  -6.170 -21.614  0.00  0.00    +0.000 C 
ENDBRANCH  16  18
BRANCH  17  24
ATOM     24  C   UNL     1      34.134 -10.885 -24.924  0.00  0.00    +0.086 C 
ATOM     25  C   UNL     1      35.276 -10.563 -25.876  0.00  0.00    +0.010 C 
ENDBRANCH  17  24
ENDBRANCH  14  16
ENDBRANCH   1  14
TORSDOF 8
ENDMDL
MODEL 8
REMARK VINA RESULT:      -8.9      6.483     11.710
REMARK  Name = 62370
REMARK  8 active torsions:
REMARK  status: ('A' for Active; 'I' for Inactive)
REMARK    1  A    between atoms: C_1  and  N_3
REMARK    2  A    between atoms: C_1  and  C_14
REMARK    3  A    between atoms: N_3  and  C_6
REMARK    4  A    between atoms: C_6  and  C_7
REMARK    5  A    between atoms: C_7  and  C_8
REMARK    6  A    between atoms: C_14  and  N_16
REMARK    7  A    between atoms: N_16  and  C_18
REMARK    8  A    between atoms: C_17  and  C_24
REMARK                            x       y       z     vdW  Elec       q    Type
REMARK                         _______ _______ _______ _____ _____    ______ ____
ROOT
ATOM      1  C   UNL     1      34.871 -22.991 -16.211  0.00  0.00    -0.038 C 
ATOM      2  C   UNL     1      36.251 -22.370 -16.426  0.00  0.00    -0.021 C 
ENDROOT
BRANCH   1   3
ATOM      3  N   UNL     1      34.257 -23.241 -17.516  0.00  0.00    +0.388 N 
ATOM      4  C   UNL     1      32.826 -22.942 -17.472  0.00  0.00    -0.100 C 
ATOM      5  H   UNL     1      34.373 -24.227 -17.746  0.00  0.00    -0.080 HD
BRANCH   3   6
ATOM      6  C   UNL     1      34.915 -22.444 -18.550  0.00  0.00    -0.073 C 
BRANCH   6   7
ATOM      7  C   UNL     1      33.886 -21.737 -19.434  0.00  0.00    +0.004 C 
BRANCH   7   8
ATOM      8  C   UNL     1      34.496 -20.569 -20.167  0.00  0.00    -0.024 C 
ATOM      9  C   UNL     1      35.874 -20.417 -20.180  0.00  0.00    -0.004 C 
ATOM     10  C   UNL     1      33.669 -19.666 -20.819  0.00  0.00    -0.004 C 
ATOM     11  C   UNL     1      36.439 -19.338 -20.858  0.00  0.00    -0.000 C 
ATOM     12  C   UNL     1      34.233 -18.587 -21.498  0.00  0.00    -0.000 C 
ATOM     13  C   UNL     1      35.618 -18.422 -21.518  0.00  0.00    -0.000 C 
ENDBRANCH   7   8
ENDBRANCH   6   7
ENDBRANCH   3   6
ENDBRANCH   1   3
BRANCH   1  14
ATOM     14  C   UNL     1      34.945 -24.308 -15.435  0.00  0.00    +0.077 C 
BRANCH  14  16
ATOM     15  O   UNL     1      34.535 -24.678 -11.847  0.00  0.00    -0.275 OA
ATOM     16  N   UNL     1      34.261 -24.227 -14.135  0.00  0.00    -0.261 N 
ATOM     17  C   UNL     1      34.968 -24.231 -12.912  0.00  0.00    +0.229 C 
BRANCH  16  18
ATOM     18  C   UNL     1      32.814 -24.141 -14.108  0.00  0.00    +0.054 C 
ATOM     19  C   UNL     1      32.099 -25.300 -14.244  0.00  0.00    +0.015 C 
ATOM     20  C   UNL     1      32.246 -22.907 -13.946  0.00  0.00    +0.015 C 
ATOM     21  C   UNL     1      30.707 -25.218 -14.219  0.00  0.00    +0.001 C 
ATOM     22  C   UNL     1      30.853 -22.825 -13.921  0.00  0.00    +0.001 C 
ATOM     23  C   UNL     1      30.085 -23.981 -14.057  0.00  0.00    +0.000 C 
ENDBRANCH  16  18
BRANCH  17  24
ATOM     24  C   UNL     1      36.352 -23.588 -12.941  0.00  0.00    +0.086 C 
ATOM     25  C   UNL     1      36.870 -23.238 -11.554  0.00  0.00    +0.010 C 
ENDBRANCH  17  24
ENDBRANCH  14  16
ENDBRANCH   1  14
TORSDOF 8
ENDMDL
MODEL 9
REMARK VINA RESULT:      -8.7      2.773      4.757
REMARK  Name = 62370
REMARK  8 active torsions:
REMARK  status: ('A' for Active; 'I' for Inactive)
REMARK    1  A    between atoms: C_1  and  N_3
REMARK    2  A    between atoms: C_1  and  C_14
REMARK    3  A    between atoms: N_3  and  C_6
REMARK    4  A    between atoms: C_6  and  C_7
REMARK    5  A    between atoms: C_7  and  C_8
REMARK    6  A    between atoms: C_14  and  N_16
REMARK    7  A    between atoms: N_16  and  C_18
REMARK    8  A    between atoms: C_17  and  C_24
REMARK                            x       y       z     vdW  Elec       q    Type
REMARK                         _______ _______ _______ _____ _____    ______ ____
ROOT
ATOM      1  C   UNL     1      32.426 -11.671 -22.172  0.00  0.00    -0.038 C 
ATOM      2  C   UNL     1      31.903 -12.792 -21.275  0.00  0.00    -0.021 C 
ENDROOT
BRANCH   1   3
ATOM      3  N   UNL     1      32.583 -12.188 -23.532  0.00  0.00    +0.388 N 
ATOM      4  C   UNL     1      33.737 -11.569 -24.183  0.00  0.00    -0.100 C 
ATOM      5  H   UNL     1      31.747 -11.952 -24.067  0.00  0.00    -0.080 HD
BRANCH   3   6
ATOM      6  C   UNL     1      32.725 -13.642 -23.512  0.00  0.00    -0.073 C 
BRANCH   6   7
ATOM      7  C   UNL     1      34.178 -14.054 -23.749  0.00  0.00    +0.004 C 
BRANCH   7   8
ATOM      8  C   UNL     1      34.541 -15.286 -22.959  0.00  0.00    -0.024 C 
ATOM      9  C   UNL     1      34.914 -16.440 -23.630  0.00  0.00    -0.004 C 
ATOM     10  C   UNL     1      34.497 -15.244 -21.573  0.00  0.00    -0.004 C 
ATOM     11  C   UNL     1      35.250 -17.580 -22.900  0.00  0.00    -0.000 C 
ATOM     12  C   UNL     1      34.833 -16.383 -20.842  0.00  0.00    -0.000 C 
ATOM     13  C   UNL     1      35.210 -17.551 -21.505  0.00  0.00    -0.000 C 
ENDBRANCH   7   8
ENDBRANCH   6   7
ENDBRANCH   3   6
ENDBRANCH   1   3
BRANCH   1  14
ATOM     14  C   UNL     1      31.480 -10.467 -22.203  0.00  0.00    +0.077 C 
BRANCH  14  16
ATOM     15  O   UNL     1      32.203  -7.787 -19.864  0.00  0.00    -0.275 OA
ATOM     16  N   UNL     1      32.123  -9.241 -21.705  0.00  0.00    -0.261 N 
ATOM     17  C   UNL     1      32.184  -8.930 -20.328  0.00  0.00    +0.229 C 
BRANCH  16  18
ATOM     18  C   UNL     1      32.713  -8.323 -22.659  0.00  0.00    +0.054 C 
ATOM     19  C   UNL     1      34.075  -8.329 -22.799  0.00  0.00    +0.015 C 
ATOM     20  C   UNL     1      31.876  -7.504 -23.366  0.00  0.00    +0.015 C 
ATOM     21  C   UNL     1      34.644  -7.445 -23.716  0.00  0.00    +0.001 C 
ATOM     22  C   UNL     1      32.445  -6.620 -24.285  0.00  0.00    +0.001 C 
ATOM     23  C   UNL     1      33.828  -6.592 -24.459  0.00  0.00    +0.000 C 
ENDBRANCH  16  18
BRANCH  17  24
ATOM     24  C   UNL     1      32.272 -10.121 -19.379  0.00  0.00    +0.086 C 
ATOM     25  C   UNL     1      30.926 -10.493 -18.773  0.00  0.00    +0.010 C 
ENDBRANCH  17  24
ENDBRANCH  14  16
ENDBRANCH   1  14
TORSDOF 8
ENDMDL
