MODEL 1
REMARK VINA RESULT:      -6.6      0.000      0.000
REMARK  Name = 17753950
REMARK  4 active torsions:
REMARK  status: ('A' for Active; 'I' for Inactive)
REMARK    1  A    between atoms: C_1  and  O_14
REMARK    2  A    between atoms: C_2  and  O_16
REMARK    3  A    between atoms: C_3  and  N_7
REMARK    4  A    between atoms: C_5  and  C_13
REMARK                            x       y       z     vdW  Elec       q    Type
REMARK                         _______ _______ _______ _____ _____    ______ ____
ROOT
ATOM      1  C   UNL     1      36.961 -25.735 -15.014  0.00  0.00    +0.122 C 
ATOM      2  C   UNL     1      36.776 -24.220 -14.867  0.00  0.00    +0.140 C 
ATOM      3  C   UNL     1      37.719 -26.372 -13.828  0.00  0.00    -0.013 C 
ATOM      4  C   UNL     1      36.089 -23.854 -13.543  0.00  0.00    +0.064 C 
ATOM      5  C   UNL     1      36.582 -24.665 -12.382  0.00  0.00    +0.054 C 
ATOM      6  C   UNL     1      37.324 -25.775 -12.498  0.00  0.00    -0.044 C 
ENDROOT
BRANCH   3   7
ATOM      7  N   UNL     1      39.167 -26.264 -14.029  0.00  0.00    +0.386 N 
ATOM      8  H   UNL     1      39.459 -25.298 -13.881  0.00  0.00    -0.089 HD
ATOM      9  H   UNL     1      39.400 -26.547 -14.981  0.00  0.00    -0.089 HD
ATOM     10  H   UNL     1      39.648 -26.871 -13.366  0.00  0.00    -0.089 HD
ENDBRANCH   3   7
BRANCH   5  13
ATOM     11  O   UNL     1      35.335 -24.859 -10.404  0.00  0.00    -0.241 OA
ATOM     12  O   UNL     1      36.933 -23.231 -10.558  0.00  0.00    -0.241 OA
ATOM     13  C   UNL     1      36.251 -24.207 -10.976  0.00  0.00    +0.384 C 
ENDBRANCH   5  13
BRANCH   1  14
ATOM     14  O   UNL     1      35.680 -26.362 -15.112  0.00  0.00    -0.384 OA
ATOM     15  H   UNL     1      35.688 -27.194 -14.612  0.00  0.00    +0.210 HD
ENDBRANCH   1  14
BRANCH   2  16
ATOM     16  O   UNL     1      38.046 -23.578 -14.948  0.00  0.00    -0.382 OA
ATOM     17  H   UNL     1      38.465 -23.796 -15.794  0.00  0.00    +0.210 HD
ENDBRANCH   2  16
TORSDOF 4
ENDMDL
MODEL 2
REMARK VINA RESULT:      -6.6      2.138      4.057
REMARK  Name = 17753950
REMARK  4 active torsions:
REMARK  status: ('A' for Active; 'I' for Inactive)
REMARK    1  A    between atoms: C_1  and  O_14
REMARK    2  A    between atoms: C_2  and  O_16
REMARK    3  A    between atoms: C_3  and  N_7
REMARK    4  A    between atoms: C_5  and  C_13
REMARK                            x       y       z     vdW  Elec       q    Type
REMARK                         _______ _______ _______ _____ _____    ______ ____
ROOT
ATOM      1  C   UNL     1      35.499 -23.980 -12.353  0.00  0.00    +0.122 C 
ATOM      2  C   UNL     1      37.014 -24.169 -12.202  0.00  0.00    +0.140 C 
ATOM      3  C   UNL     1      35.021 -24.058 -13.820  0.00  0.00    -0.013 C 
ATOM      4  C   UNL     1      37.494 -25.478 -12.847  0.00  0.00    +0.064 C 
ATOM      5  C   UNL     1      36.830 -25.762 -14.161  0.00  0.00    +0.054 C 
ATOM      6  C   UNL     1      35.742 -25.123 -14.611  0.00  0.00    -0.044 C 
ENDROOT
BRANCH   3   7
ATOM      7  N   UNL     1      35.160 -22.753 -14.473  0.00  0.00    +0.386 N 
ATOM      8  H   UNL     1      36.082 -22.684 -14.903  0.00  0.00    -0.089 HD
ATOM      9  H   UNL     1      35.054 -22.012 -13.779  0.00  0.00    -0.089 HD
ATOM     10  H   UNL     1      34.442 -22.652 -15.189  0.00  0.00    -0.089 HD
ENDBRANCH   3   7
BRANCH   5  13
ATOM     11  O   UNL     1      36.697 -27.162 -16.041  0.00  0.00    -0.241 OA
ATOM     12  O   UNL     1      38.568 -27.234 -14.728  0.00  0.00    -0.241 OA
ATOM     13  C   UNL     1      37.423 -26.824 -15.065  0.00  0.00    +0.384 C 
ENDBRANCH   5  13
BRANCH   1  14
ATOM     14  O   UNL     1      34.819 -24.995 -11.609  0.00  0.00    -0.384 OA
ATOM     15  H   UNL     1      34.171 -25.435 -12.181  0.00  0.00    +0.210 HD
ENDBRANCH   1  14
BRANCH   2  16
ATOM     16  O   UNL     1      37.690 -23.061 -12.793  0.00  0.00    -0.382 OA
ATOM     17  H   UNL     1      37.065 -22.331 -12.917  0.00  0.00    +0.210 HD
ENDBRANCH   2  16
TORSDOF 4
ENDMDL
MODEL 3
REMARK VINA RESULT:      -6.4      2.418      4.019
REMARK  Name = 17753950
REMARK  4 active torsions:
REMARK  status: ('A' for Active; 'I' for Inactive)
REMARK    1  A    between atoms: C_1  and  O_14
REMARK    2  A    between atoms: C_2  and  O_16
REMARK    3  A    between atoms: C_3  and  N_7
REMARK    4  A    between atoms: C_5  and  C_13
REMARK                            x       y       z     vdW  Elec       q    Type
REMARK                         _______ _______ _______ _____ _____    ______ ____
ROOT
ATOM      1  C   UNL     1      36.531 -25.553 -12.765  0.00  0.00    +0.122 C 
ATOM      2  C   UNL     1      37.348 -24.257 -12.693  0.00  0.00    +0.140 C 
ATOM      3  C   UNL     1      36.776 -26.353 -14.064  0.00  0.00    -0.013 C 
ATOM      4  C   UNL     1      38.850 -24.517 -12.880  0.00  0.00    +0.064 C 
ATOM      5  C   UNL     1      39.142 -25.529 -13.948  0.00  0.00    +0.054 C 
ATOM      6  C   UNL     1      38.223 -26.336 -14.494  0.00  0.00    -0.044 C 
ENDROOT
BRANCH   3   7
ATOM      7  N   UNL     1      35.915 -25.854 -15.141  0.00  0.00    +0.386 N 
ATOM      8  H   UNL     1      34.943 -26.080 -14.931  0.00  0.00    -0.089 HD
ATOM      9  H   UNL     1      36.183 -26.293 -16.022  0.00  0.00    -0.089 HD
ATOM     10  H   UNL     1      36.020 -24.843 -15.219  0.00  0.00    -0.089 HD
ENDBRANCH   3   7
BRANCH   5  13
ATOM     11  O   UNL     1      41.148 -24.551 -14.677  0.00  0.00    -0.241 OA
ATOM     12  O   UNL     1      40.967 -26.831 -14.640  0.00  0.00    -0.241 OA
ATOM     13  C   UNL     1      40.558 -25.649 -14.473  0.00  0.00    +0.384 C 
ENDBRANCH   5  13
BRANCH   1  14
ATOM     14  O   UNL     1      36.872 -26.390 -11.657  0.00  0.00    -0.384 OA
ATOM     15  H   UNL     1      37.361 -27.165 -11.975  0.00  0.00    +0.210 HD
ENDBRANCH   1  14
BRANCH   2  16
ATOM     16  O   UNL     1      36.885 -23.350 -13.691  0.00  0.00    -0.382 OA
ATOM     17  H   UNL     1      36.504 -22.567 -13.264  0.00  0.00    +0.210 HD
ENDBRANCH   2  16
TORSDOF 4
ENDMDL
MODEL 4
REMARK VINA RESULT:      -6.4      1.596      2.197
REMARK  Name = 17753950
REMARK  4 active torsions:
REMARK  status: ('A' for Active; 'I' for Inactive)
REMARK    1  A    between atoms: C_1  and  O_14
REMARK    2  A    between atoms: C_2  and  O_16
REMARK    3  A    between atoms: C_3  and  N_7
REMARK    4  A    between atoms: C_5  and  C_13
REMARK                            x       y       z     vdW  Elec       q    Type
REMARK                         _______ _______ _______ _____ _____    ______ ____
ROOT
ATOM      1  C   UNL     1      37.808 -24.729 -15.003  0.00  0.00    +0.122 C 
ATOM      2  C   UNL     1      38.741 -25.107 -13.847  0.00  0.00    +0.140 C 
ATOM      3  C   UNL     1      36.324 -25.050 -14.715  0.00  0.00    -0.013 C 
ATOM      4  C   UNL     1      38.306 -24.457 -12.525  0.00  0.00    +0.064 C 
ATOM      5  C   UNL     1      36.820 -24.473 -12.325  0.00  0.00    +0.054 C 
ATOM      6  C   UNL     1      35.932 -24.755 -13.287  0.00  0.00    -0.044 C 
ENDROOT
BRANCH   3   7
ATOM      7  N   UNL     1      36.029 -26.446 -15.050  0.00  0.00    +0.386 N 
ATOM      8  H   UNL     1      36.793 -27.041 -14.729  0.00  0.00    -0.089 HD
ATOM      9  H   UNL     1      35.928 -26.539 -16.061  0.00  0.00    -0.089 HD
ATOM     10  H   UNL     1      35.162 -26.729 -14.595  0.00  0.00    -0.089 HD
ENDBRANCH   3   7
BRANCH   5  13
ATOM     11  O   UNL     1      35.306 -24.914 -10.586  0.00  0.00    -0.241 OA
ATOM     12  O   UNL     1      36.832 -23.229 -10.335  0.00  0.00    -0.241 OA
ATOM     13  C   UNL     1      36.265 -24.176 -10.946  0.00  0.00    +0.384 C 
ENDBRANCH   5  13
BRANCH   1  14
ATOM     14  O   UNL     1      37.918 -23.327 -15.261  0.00  0.00    -0.384 OA
ATOM     15  H   UNL     1      38.352 -22.892 -14.509  0.00  0.00    +0.210 HD
ENDBRANCH   1  14
BRANCH   2  16
ATOM     16  O   UNL     1      38.767 -26.526 -13.704  0.00  0.00    -0.382 OA
ATOM     17  H   UNL     1      39.215 -26.919 -14.469  0.00  0.00    +0.210 HD
ENDBRANCH   2  16
TORSDOF 4
ENDMDL
MODEL 5
REMARK VINA RESULT:      -6.2      2.012      2.182
REMARK  Name = 17753950
REMARK  4 active torsions:
REMARK  status: ('A' for Active; 'I' for Inactive)
REMARK    1  A    between atoms: C_1  and  O_14
REMARK    2  A    between atoms: C_2  and  O_16
REMARK    3  A    between atoms: C_3  and  N_7
REMARK    4  A    between atoms: C_5  and  C_13
REMARK                            x       y       z     vdW  Elec       q    Type
REMARK                         _______ _______ _______ _____ _____    ______ ____
ROOT
ATOM      1  C   UNL     1      35.504 -24.881 -15.235  0.00  0.00    +0.122 C 
ATOM      2  C   UNL     1      34.485 -24.127 -14.372  0.00  0.00    +0.140 C 
ATOM      3  C   UNL     1      36.946 -24.347 -15.076  0.00  0.00    -0.013 C 
ATOM      4  C   UNL     1      34.886 -24.118 -12.889  0.00  0.00    +0.064 C 
ATOM      5  C   UNL     1      36.354 -23.897 -12.680  0.00  0.00    +0.054 C 
ATOM      6  C   UNL     1      37.276 -23.977 -13.650  0.00  0.00    -0.044 C 
ENDROOT
BRANCH   3   7
ATOM      7  N   UNL     1      37.168 -23.205 -15.967  0.00  0.00    +0.386 N 
ATOM      8  H   UNL     1      36.742 -22.371 -15.564  0.00  0.00    -0.089 HD
ATOM      9  H   UNL     1      36.747 -23.395 -16.877  0.00  0.00    -0.089 HD
ATOM     10  H   UNL     1      38.170 -23.053 -16.082  0.00  0.00    -0.089 HD
ENDBRANCH   3   7
BRANCH   5  13
ATOM     11  O   UNL     1      36.284 -24.152 -10.348  0.00  0.00    -0.241 OA
ATOM     12  O   UNL     1      37.764 -22.667 -11.263  0.00  0.00    -0.241 OA
ATOM     13  C   UNL     1      36.850 -23.537 -11.294  0.00  0.00    +0.384 C 
ENDBRANCH   5  13
BRANCH   1  14
ATOM     14  O   UNL     1      35.500 -26.264 -14.873  0.00  0.00    -0.384 OA
ATOM     15  H   UNL     1      34.682 -26.470 -14.392  0.00  0.00    +0.210 HD
ENDBRANCH   1  14
BRANCH   2  16
ATOM     16  O   UNL     1      34.359 -22.789 -14.848  0.00  0.00    -0.382 OA
ATOM     17  H   UNL     1      34.747 -22.179 -14.202  0.00  0.00    +0.210 HD
ENDBRANCH   2  16
TORSDOF 4
ENDMDL
MODEL 6
REMARK VINA RESULT:      -6.0      2.230      3.952
REMARK  Name = 17753950
REMARK  4 active torsions:
REMARK  status: ('A' for Active; 'I' for Inactive)
REMARK    1  A    between atoms: C_1  and  O_14
REMARK    2  A    between atoms: C_2  and  O_16
REMARK    3  A    between atoms: C_3  and  N_7
REMARK    4  A    between atoms: C_5  and  C_13
REMARK                            x       y       z     vdW  Elec       q    Type
REMARK                         _______ _______ _______ _____ _____    ______ ____
ROOT
ATOM      1  C   UNL     1      37.086 -23.190 -12.194  0.00  0.00    +0.122 C 
ATOM      2  C   UNL     1      36.635 -22.983 -13.645  0.00  0.00    +0.140 C 
ATOM      3  C   UNL     1      36.755 -24.599 -11.651  0.00  0.00    -0.013 C 
ATOM      4  C   UNL     1      37.206 -24.059 -14.580  0.00  0.00    +0.064 C 
ATOM      5  C   UNL     1      37.184 -25.432 -13.978  0.00  0.00    +0.054 C 
ATOM      6  C   UNL     1      36.965 -25.683 -12.680  0.00  0.00    -0.044 C 
ENDROOT
BRANCH   3   7
ATOM      7  N   UNL     1      35.382 -24.638 -11.138  0.00  0.00    +0.386 N 
ATOM      8  H   UNL     1      35.318 -25.329 -10.390  0.00  0.00    -0.089 HD
ATOM      9  H   UNL     1      34.744 -24.894 -11.892  0.00  0.00    -0.089 HD
ATOM     10  H   UNL     1      35.128 -23.720 -10.775  0.00  0.00    -0.089 HD
ENDBRANCH   3   7
BRANCH   5  13
ATOM     11  O   UNL     1      36.488 -26.833 -15.728  0.00  0.00    -0.241 OA
ATOM     12  O   UNL     1      38.467 -27.272 -14.669  0.00  0.00    -0.241 OA
ATOM     13  C   UNL     1      37.401 -26.630 -14.880  0.00  0.00    +0.384 C 
ENDBRANCH   5  13
BRANCH   1  14
ATOM     14  O   UNL     1      38.501 -23.001 -12.106  0.00  0.00    -0.384 OA
ATOM     15  H   UNL     1      38.844 -22.724 -12.970  0.00  0.00    +0.210 HD
ENDBRANCH   1  14
BRANCH   2  16
ATOM     16  O   UNL     1      35.211 -22.995 -13.704  0.00  0.00    -0.382 OA
ATOM     17  H   UNL     1      34.857 -22.322 -13.103  0.00  0.00    +0.210 HD
ENDBRANCH   2  16
TORSDOF 4
ENDMDL
MODEL 7
REMARK VINA RESULT:      -6.0      7.108      8.271
REMARK  Name = 17753950
REMARK  4 active torsions:
REMARK  status: ('A' for Active; 'I' for Inactive)
REMARK    1  A    between atoms: C_1  and  O_14
REMARK    2  A    between atoms: C_2  and  O_16
REMARK    3  A    between atoms: C_3  and  N_7
REMARK    4  A    between atoms: C_5  and  C_13
REMARK                            x       y       z     vdW  Elec       q    Type
REMARK                         _______ _______ _______ _____ _____    ______ ____
ROOT
ATOM      1  C   UNL     1      30.926 -24.711 -13.858  0.00  0.00    +0.122 C 
ATOM      2  C   UNL     1      29.941 -25.533 -14.697  0.00  0.00    +0.140 C 
ATOM      3  C   UNL     1      31.312 -23.368 -14.517  0.00  0.00    -0.013 C 
ATOM      4  C   UNL     1      28.677 -24.731 -15.044  0.00  0.00    +0.064 C 
ATOM      5  C   UNL     1      28.968 -23.307 -15.411  0.00  0.00    +0.054 C 
ATOM      6  C   UNL     1      30.143 -22.698 -15.198  0.00  0.00    -0.044 C 
ENDROOT
BRANCH   3   7
ATOM      7  N   UNL     1      32.415 -23.561 -15.463  0.00  0.00    +0.386 N 
ATOM      8  H   UNL     1      32.691 -22.660 -15.852  0.00  0.00    -0.089 HD
ATOM      9  H   UNL     1      32.112 -24.178 -16.217  0.00  0.00    -0.089 HD
ATOM     10  H   UNL     1      33.208 -23.981 -14.979  0.00  0.00    -0.089 HD
ENDBRANCH   3   7
BRANCH   5  13
ATOM     11  O   UNL     1      28.254 -21.866 -17.120  0.00  0.00    -0.241 OA
ATOM     12  O   UNL     1      26.754 -22.538 -15.529  0.00  0.00    -0.241 OA
ATOM     13  C   UNL     1      27.886 -22.490 -16.086  0.00  0.00    +0.384 C 
ENDBRANCH   5  13
BRANCH   1  14
ATOM     14  O   UNL     1      30.342 -24.430 -12.583  0.00  0.00    -0.384 OA
ATOM     15  H   UNL     1      31.026 -24.097 -11.980  0.00  0.00    +0.210 HD
ENDBRANCH   1  14
BRANCH   2  16
ATOM     16  O   UNL     1      30.584 -25.965 -15.894  0.00  0.00    -0.382 OA
ATOM     17  H   UNL     1      30.796 -26.908 -15.825  0.00  0.00    +0.210 HD
ENDBRANCH   2  16
TORSDOF 4
ENDMDL
MODEL 8
REMARK VINA RESULT:      -5.9     10.686     12.679
REMARK  Name = 17753950
REMARK  4 active torsions:
REMARK  status: ('A' for Active; 'I' for Inactive)
REMARK    1  A    between atoms: C_1  and  O_14
REMARK    2  A    between atoms: C_2  and  O_16
REMARK    3  A    between atoms: C_3  and  N_7
REMARK    4  A    between atoms: C_5  and  C_13
REMARK                            x       y       z     vdW  Elec       q    Type
REMARK                         _______ _______ _______ _____ _____    ______ ____
ROOT
ATOM      1  C   UNL     1      35.650 -18.532 -21.107  0.00  0.00    +0.122 C 
ATOM      2  C   UNL     1      35.236 -17.086 -21.404  0.00  0.00    +0.140 C 
ATOM      3  C   UNL     1      34.819 -19.574 -21.890  0.00  0.00    -0.013 C 
ATOM      4  C   UNL     1      35.280 -16.776 -22.908  0.00  0.00    +0.064 C 
ATOM      5  C   UNL     1      34.751 -17.895 -23.753  0.00  0.00    +0.054 C 
ATOM      6  C   UNL     1      34.524 -19.138 -23.305  0.00  0.00    -0.044 C 
ENDROOT
BRANCH   3   7
ATOM      7  N   UNL     1      33.575 -19.876 -21.176  0.00  0.00    +0.386 N 
ATOM      8  H   UNL     1      32.833 -19.262 -21.512  0.00  0.00    -0.089 HD
ATOM      9  H   UNL     1      33.712 -19.727 -20.176  0.00  0.00    -0.089 HD
ATOM     10  H   UNL     1      33.315 -20.847 -21.342  0.00  0.00    -0.089 HD
ENDBRANCH   3   7
BRANCH   5  13
ATOM     11  O   UNL     1      35.077 -16.679 -25.734  0.00  0.00    -0.241 OA
ATOM     12  O   UNL     1      33.538 -18.371 -25.705  0.00  0.00    -0.241 OA
ATOM     13  C   UNL     1      34.423 -17.622 -25.207  0.00  0.00    +0.384 C 
ENDBRANCH   5  13
BRANCH   1  14
ATOM     14  O   UNL     1      37.026 -18.712 -21.451  0.00  0.00    -0.384 OA
ATOM     15  H   UNL     1      37.565 -18.051 -20.986  0.00  0.00    +0.210 HD
ENDBRANCH   1  14
BRANCH   2  16
ATOM     16  O   UNL     1      33.923 -16.856 -20.900  0.00  0.00    -0.382 OA
ATOM     17  H   UNL     1      33.592 -16.009 -21.235  0.00  0.00    +0.210 HD
ENDBRANCH   2  16
TORSDOF 4
ENDMDL
MODEL 9
REMARK VINA RESULT:      -5.9      2.173      3.019
REMARK  Name = 17753950
REMARK  4 active torsions:
REMARK  status: ('A' for Active; 'I' for Inactive)
REMARK    1  A    between atoms: C_1  and  O_14
REMARK    2  A    between atoms: C_2  and  O_16
REMARK    3  A    between atoms: C_3  and  N_7
REMARK    4  A    between atoms: C_5  and  C_13
REMARK                            x       y       z     vdW  Elec       q    Type
REMARK                         _______ _______ _______ _____ _____    ______ ____
ROOT
ATOM      1  C   UNL     1      35.278 -24.246 -15.320  0.00  0.00    +0.122 C 
ATOM      2  C   UNL     1      36.511 -25.097 -14.998  0.00  0.00    +0.140 C 
ATOM      3  C   UNL     1      34.412 -23.936 -14.078  0.00  0.00    -0.013 C 
ATOM      4  C   UNL     1      37.374 -24.460 -13.897  0.00  0.00    +0.064 C 
ATOM      5  C   UNL     1      36.561 -23.866 -12.786  0.00  0.00    +0.054 C 
ATOM      6  C   UNL     1      35.241 -23.648 -12.849  0.00  0.00    -0.044 C 
ENDROOT
BRANCH   3   7
ATOM      7  N   UNL     1      33.478 -25.035 -13.820  0.00  0.00    +0.386 N 
ATOM      8  H   UNL     1      32.521 -24.682 -13.847  0.00  0.00    -0.089 HD
ATOM      9  H   UNL     1      33.667 -25.434 -12.900  0.00  0.00    -0.089 HD
ATOM     10  H   UNL     1      33.595 -25.756 -14.532  0.00  0.00    -0.089 HD
ENDBRANCH   3   7
BRANCH   5  13
ATOM     11  O   UNL     1      38.305 -22.815 -11.618  0.00  0.00    -0.241 OA
ATOM     12  O   UNL     1      36.691 -23.932 -10.443  0.00  0.00    -0.241 OA
ATOM     13  C   UNL     1      37.254 -23.502 -11.488  0.00  0.00    +0.384 C 
ENDBRANCH   5  13
BRANCH   1  14
ATOM     14  O   UNL     1      35.695 -23.003 -15.892  0.00  0.00    -0.384 OA
ATOM     15  H   UNL     1      36.104 -23.167 -16.758  0.00  0.00    +0.210 HD
ENDBRANCH   1  14
BRANCH   2  16
ATOM     16  O   UNL     1      36.096 -26.400 -14.595  0.00  0.00    -0.382 OA
ATOM     17  H   UNL     1      35.698 -26.353 -13.712  0.00  0.00    +0.210 HD
ENDBRANCH   2  16
TORSDOF 4
ENDMDL
