MODEL 1
REMARK VINA RESULT:      -7.1      0.000      0.000
REMARK  Name = 444718
REMARK  5 active torsions:
REMARK  status: ('A' for Active; 'I' for Inactive)
REMARK    1  A    between atoms: C_1  and  C_2
REMARK    2  A    between atoms: C_1  and  C_8
REMARK    3  A    between atoms: C_8  and  O_9
REMARK    4  A    between atoms: C_8  and  C_12
REMARK    5  A    between atoms: C_12  and  O_13
REMARK                            x       y       z     vdW  Elec       q    Type
REMARK                         _______ _______ _______ _____ _____    ______ ____
ROOT
ATOM      1  C   UNL     1      35.357 -18.406 -22.208  0.00  0.00    +0.067 C 
ENDROOT
BRANCH   1   2
ATOM      2  C   UNL     1      34.823 -19.434 -21.269  0.00  0.00    -0.019 C 
ATOM      3  C   UNL     1      33.449 -19.533 -21.051  0.00  0.00    -0.004 C 
ATOM      4  C   UNL     1      35.698 -20.296 -20.606  0.00  0.00    -0.004 C 
ATOM      5  C   UNL     1      32.948 -20.494 -20.172  0.00  0.00    -0.000 C 
ATOM      6  C   UNL     1      35.198 -21.257 -19.727  0.00  0.00    -0.000 C 
ATOM      7  C   UNL     1      33.824 -21.356 -19.510  0.00  0.00    -0.000 C 
ENDBRANCH   1   2
BRANCH   1   8
ATOM      8  C   UNL     1      34.620 -18.405 -23.559  0.00  0.00    +0.214 C 
BRANCH   8   9
ATOM      9  O   UNL     1      34.988 -19.576 -24.279  0.00  0.00    -0.374 OA
ATOM     10  H   UNL     1      35.897 -19.484 -24.602  0.00  0.00    +0.211 HD
ENDBRANCH   8   9
BRANCH   8  12
ATOM     11  O   UNL     1      34.716 -17.045 -25.579  0.00  0.00    -0.248 OA
ATOM     12  C   UNL     1      35.008 -17.211 -24.404  0.00  0.00    +0.341 C 
BRANCH  12  13
ATOM     13  O   UNL     1      35.711 -16.310 -23.670  0.00  0.00    -0.479 OA
ATOM     14  H   UNL     1      36.447 -15.871 -24.048  0.00  0.00    +0.295 HD
ENDBRANCH  12  13
ENDBRANCH   8  12
ENDBRANCH   1   8
TORSDOF 5
ENDMDL
MODEL 2
REMARK VINA RESULT:      -7.1      1.338      2.054
REMARK  Name = 444718
REMARK  5 active torsions:
REMARK  status: ('A' for Active; 'I' for Inactive)
REMARK    1  A    between atoms: C_1  and  C_2
REMARK    2  A    between atoms: C_1  and  C_8
REMARK    3  A    between atoms: C_8  and  O_9
REMARK    4  A    between atoms: C_8  and  C_12
REMARK    5  A    between atoms: C_12  and  O_13
REMARK                            x       y       z     vdW  Elec       q    Type
REMARK                         _______ _______ _______ _____ _____    ______ ____
ROOT
ATOM      1  C   UNL     1      34.088 -18.659 -21.488  0.00  0.00    +0.067 C 
ENDROOT
BRANCH   1   2
ATOM      2  C   UNL     1      34.327 -19.880 -20.664  0.00  0.00    -0.019 C 
ATOM      3  C   UNL     1      33.248 -20.564 -20.102  0.00  0.00    -0.004 C 
ATOM      4  C   UNL     1      35.628 -20.338 -20.455  0.00  0.00    -0.004 C 
ATOM      5  C   UNL     1      33.470 -21.705 -19.332  0.00  0.00    -0.000 C 
ATOM      6  C   UNL     1      35.850 -21.479 -19.686  0.00  0.00    -0.000 C 
ATOM      7  C   UNL     1      34.772 -22.163 -19.124  0.00  0.00    -0.000 C 
ENDBRANCH   1   2
BRANCH   1   8
ATOM      8  C   UNL     1      35.315 -17.732 -21.533  0.00  0.00    +0.214 C 
BRANCH   8   9
ATOM      9  O   UNL     1      35.199 -16.770 -20.492  0.00  0.00    -0.374 OA
ATOM     10  H   UNL     1      35.974 -16.188 -20.502  0.00  0.00    +0.211 HD
ENDBRANCH   8   9
BRANCH   8  12
ATOM     11  O   UNL     1      35.260 -15.770 -22.978  0.00  0.00    -0.248 OA
ATOM     12  C   UNL     1      35.395 -16.977 -22.843  0.00  0.00    +0.341 C 
BRANCH  12  13
ATOM     13  O   UNL     1      35.671 -17.823 -23.869  0.00  0.00    -0.479 OA
ATOM     14  H   UNL     1      35.349 -18.702 -23.851  0.00  0.00    +0.295 HD
ENDBRANCH  12  13
ENDBRANCH   8  12
ENDBRANCH   1   8
TORSDOF 5
ENDMDL
MODEL 3
REMARK VINA RESULT:      -7.0      1.307      1.903
REMARK  Name = 444718
REMARK  5 active torsions:
REMARK  status: ('A' for Active; 'I' for Inactive)
REMARK    1  A    between atoms: C_1  and  C_2
REMARK    2  A    between atoms: C_1  and  C_8
REMARK    3  A    between atoms: C_8  and  O_9
REMARK    4  A    between atoms: C_8  and  C_12
REMARK    5  A    between atoms: C_12  and  O_13
REMARK                            x       y       z     vdW  Elec       q    Type
REMARK                         _______ _______ _______ _____ _____    ______ ____
ROOT
ATOM      1  C   UNL     1      35.916 -18.599 -21.663  0.00  0.00    +0.067 C 
ENDROOT
BRANCH   1   2
ATOM      2  C   UNL     1      35.094 -19.600 -20.923  0.00  0.00    -0.019 C 
ATOM      3  C   UNL     1      33.701 -19.517 -20.953  0.00  0.00    -0.004 C 
ATOM      4  C   UNL     1      35.716 -20.619 -20.201  0.00  0.00    -0.004 C 
ATOM      5  C   UNL     1      32.931 -20.452 -20.261  0.00  0.00    -0.000 C 
ATOM      6  C   UNL     1      34.947 -21.554 -19.510  0.00  0.00    -0.000 C 
ATOM      7  C   UNL     1      33.555 -21.471 -19.539  0.00  0.00    -0.000 C 
ENDBRANCH   1   2
BRANCH   1   8
ATOM      8  C   UNL     1      35.056 -17.631 -22.493  0.00  0.00    +0.214 C 
BRANCH   8   9
ATOM      9  O   UNL     1      35.649 -17.482 -23.778  0.00  0.00    -0.374 OA
ATOM     10  H   UNL     1      35.695 -18.347 -24.214  0.00  0.00    +0.211 HD
ENDBRANCH   8   9
BRANCH   8  12
ATOM     11  O   UNL     1      34.964 -16.028 -20.659  0.00  0.00    -0.248 OA
ATOM     12  C   UNL     1      34.995 -16.258 -21.859  0.00  0.00    +0.341 C 
BRANCH  12  13
ATOM     13  O   UNL     1      35.011 -15.288 -22.810  0.00  0.00    -0.479 OA
ATOM     14  H   UNL     1      35.276 -15.494 -23.684  0.00  0.00    +0.295 HD
ENDBRANCH  12  13
ENDBRANCH   8  12
ENDBRANCH   1   8
TORSDOF 5
ENDMDL
MODEL 4
REMARK VINA RESULT:      -6.9      0.732      2.085
REMARK  Name = 444718
REMARK  5 active torsions:
REMARK  status: ('A' for Active; 'I' for Inactive)
REMARK    1  A    between atoms: C_1  and  C_2
REMARK    2  A    between atoms: C_1  and  C_8
REMARK    3  A    between atoms: C_8  and  O_9
REMARK    4  A    between atoms: C_8  and  C_12
REMARK    5  A    between atoms: C_12  and  O_13
REMARK                            x       y       z     vdW  Elec       q    Type
REMARK                         _______ _______ _______ _____ _____    ______ ____
ROOT
ATOM      1  C   UNL     1      34.368 -17.707 -22.114  0.00  0.00    +0.067 C 
ENDROOT
BRANCH   1   2
ATOM      2  C   UNL     1      34.434 -18.948 -21.290  0.00  0.00    -0.019 C 
ATOM      3  C   UNL     1      35.671 -19.509 -20.970  0.00  0.00    -0.004 C 
ATOM      4  C   UNL     1      33.259 -19.551 -20.839  0.00  0.00    -0.004 C 
ATOM      5  C   UNL     1      35.733 -20.670 -20.200  0.00  0.00    -0.000 C 
ATOM      6  C   UNL     1      33.320 -20.711 -20.069  0.00  0.00    -0.000 C 
ATOM      7  C   UNL     1      34.557 -21.271 -19.749  0.00  0.00    -0.000 C 
ENDBRANCH   1   2
BRANCH   1   8
ATOM      8  C   UNL     1      35.366 -17.725 -23.285  0.00  0.00    +0.214 C 
BRANCH   8   9
ATOM      9  O   UNL     1      35.828 -16.399 -23.510  0.00  0.00    -0.374 OA
ATOM     10  H   UNL     1      35.927 -16.249 -24.463  0.00  0.00    +0.211 HD
ENDBRANCH   8   9
BRANCH   8  12
ATOM     11  O   UNL     1      34.264 -17.485 -25.446  0.00  0.00    -0.248 OA
ATOM     12  C   UNL     1      34.713 -18.203 -24.564  0.00  0.00    +0.341 C 
BRANCH  12  13
ATOM     13  O   UNL     1      34.717 -19.559 -24.629  0.00  0.00    -0.479 OA
ATOM     14  H   UNL     1      35.156 -19.993 -25.333  0.00  0.00    +0.295 HD
ENDBRANCH  12  13
ENDBRANCH   8  12
ENDBRANCH   1   8
TORSDOF 5
ENDMDL
MODEL 5
REMARK VINA RESULT:      -6.8      9.170     10.007
REMARK  Name = 444718
REMARK  5 active torsions:
REMARK  status: ('A' for Active; 'I' for Inactive)
REMARK    1  A    between atoms: C_1  and  C_2
REMARK    2  A    between atoms: C_1  and  C_8
REMARK    3  A    between atoms: C_8  and  O_9
REMARK    4  A    between atoms: C_8  and  C_12
REMARK    5  A    between atoms: C_12  and  O_13
REMARK                            x       y       z     vdW  Elec       q    Type
REMARK                         _______ _______ _______ _____ _____    ______ ____
ROOT
ATOM      1  C   UNL     1      29.012 -22.329 -16.188  0.00  0.00    +0.067 C 
ENDROOT
BRANCH   1   2
ATOM      2  C   UNL     1      29.874 -23.250 -15.391  0.00  0.00    -0.019 C 
ATOM      3  C   UNL     1      31.037 -22.769 -14.788  0.00  0.00    -0.004 C 
ATOM      4  C   UNL     1      29.519 -24.591 -15.251  0.00  0.00    -0.004 C 
ATOM      5  C   UNL     1      31.844 -23.630 -14.044  0.00  0.00    -0.000 C 
ATOM      6  C   UNL     1      30.325 -25.452 -14.507  0.00  0.00    -0.000 C 
ATOM      7  C   UNL     1      31.488 -24.972 -13.903  0.00  0.00    -0.000 C 
ENDBRANCH   1   2
BRANCH   1   8
ATOM      8  C   UNL     1      27.680 -22.979 -16.599  0.00  0.00    +0.214 C 
BRANCH   8   9
ATOM      9  O   UNL     1      27.784 -23.416 -17.949  0.00  0.00    -0.374 OA
ATOM     10  H   UNL     1      27.080 -24.056 -18.136  0.00  0.00    +0.211 HD
ENDBRANCH   8   9
BRANCH   8  12
ATOM     11  O   UNL     1      25.600 -22.042 -15.739  0.00  0.00    -0.248 OA
ATOM     12  C   UNL     1      26.533 -21.994 -16.527  0.00  0.00    +0.341 C 
BRANCH  12  13
ATOM     13  O   UNL     1      26.689 -21.007 -17.447  0.00  0.00    -0.479 OA
ATOM     14  H   UNL     1      26.005 -20.383 -17.584  0.00  0.00    +0.295 HD
ENDBRANCH  12  13
ENDBRANCH   8  12
ENDBRANCH   1   8
TORSDOF 5
ENDMDL
MODEL 6
REMARK VINA RESULT:      -6.7      4.202      5.964
REMARK  Name = 444718
REMARK  5 active torsions:
REMARK  status: ('A' for Active; 'I' for Inactive)
REMARK    1  A    between atoms: C_1  and  C_2
REMARK    2  A    between atoms: C_1  and  C_8
REMARK    3  A    between atoms: C_8  and  O_9
REMARK    4  A    between atoms: C_8  and  C_12
REMARK    5  A    between atoms: C_12  and  O_13
REMARK                            x       y       z     vdW  Elec       q    Type
REMARK                         _______ _______ _______ _____ _____    ______ ____
ROOT
ATOM      1  C   UNL     1      33.425 -21.524 -19.641  0.00  0.00    +0.067 C 
ENDROOT
BRANCH   1   2
ATOM      2  C   UNL     1      34.397 -20.542 -20.202  0.00  0.00    -0.019 C 
ATOM      3  C   UNL     1      33.938 -19.448 -20.936  0.00  0.00    -0.004 C 
ATOM      4  C   UNL     1      35.765 -20.718 -19.994  0.00  0.00    -0.004 C 
ATOM      5  C   UNL     1      34.847 -18.529 -21.461  0.00  0.00    -0.000 C 
ATOM      6  C   UNL     1      36.674 -19.800 -20.519  0.00  0.00    -0.000 C 
ATOM      7  C   UNL     1      36.215 -18.705 -21.253  0.00  0.00    -0.000 C 
ENDBRANCH   1   2
BRANCH   1   8
ATOM      8  C   UNL     1      34.119 -22.725 -18.976  0.00  0.00    +0.214 C 
BRANCH   8   9
ATOM      9  O   UNL     1      34.044 -23.840 -19.856  0.00  0.00    -0.374 OA
ATOM     10  H   UNL     1      34.000 -23.524 -20.773  0.00  0.00    +0.211 HD
ENDBRANCH   8   9
BRANCH   8  12
ATOM     11  O   UNL     1      33.965 -23.693 -16.744  0.00  0.00    -0.248 OA
ATOM     12  C   UNL     1      33.436 -23.119 -17.684  0.00  0.00    +0.341 C 
BRANCH  12  13
ATOM     13  O   UNL     1      32.138 -22.719 -17.686  0.00  0.00    -0.479 OA
ATOM     14  H   UNL     1      31.498 -23.208 -18.165  0.00  0.00    +0.295 HD
ENDBRANCH  12  13
ENDBRANCH   8  12
ENDBRANCH   1   8
TORSDOF 5
ENDMDL
MODEL 7
REMARK VINA RESULT:      -6.5      8.912      9.873
REMARK  Name = 444718
REMARK  5 active torsions:
REMARK  status: ('A' for Active; 'I' for Inactive)
REMARK    1  A    between atoms: C_1  and  C_2
REMARK    2  A    between atoms: C_1  and  C_8
REMARK    3  A    between atoms: C_8  and  O_9
REMARK    4  A    between atoms: C_8  and  C_12
REMARK    5  A    between atoms: C_12  and  O_13
REMARK                            x       y       z     vdW  Elec       q    Type
REMARK                         _______ _______ _______ _____ _____    ______ ____
ROOT
ATOM      1  C   UNL     1      28.020 -23.494 -16.769  0.00  0.00    +0.067 C 
ENDROOT
BRANCH   1   2
ATOM      2  C   UNL     1      29.226 -23.724 -15.922  0.00  0.00    -0.019 C 
ATOM      3  C   UNL     1      29.244 -24.775 -15.005  0.00  0.00    -0.004 C 
ATOM      4  C   UNL     1      30.334 -22.886 -16.043  0.00  0.00    -0.004 C 
ATOM      5  C   UNL     1      30.371 -24.990 -14.212  0.00  0.00    -0.000 C 
ATOM      6  C   UNL     1      31.461 -23.100 -15.251  0.00  0.00    -0.000 C 
ATOM      7  C   UNL     1      31.480 -24.152 -14.335  0.00  0.00    -0.000 C 
ENDBRANCH   1   2
BRANCH   1   8
ATOM      8  C   UNL     1      27.337 -22.149 -16.468  0.00  0.00    +0.214 C 
BRANCH   8   9
ATOM      9  O   UNL     1      26.352 -22.354 -15.462  0.00  0.00    -0.374 OA
ATOM     10  H   UNL     1      25.637 -22.905 -15.816  0.00  0.00    +0.211 HD
ENDBRANCH   8   9
BRANCH   8  12
ATOM     11  O   UNL     1      26.217 -20.454 -17.815  0.00  0.00    -0.248 OA
ATOM     12  C   UNL     1      26.631 -21.597 -17.688  0.00  0.00    +0.341 C 
BRANCH  12  13
ATOM     13  O   UNL     1      26.541 -22.542 -18.660  0.00  0.00    -0.479 OA
ATOM     14  H   UNL     1      27.001 -22.428 -19.467  0.00  0.00    +0.295 HD
ENDBRANCH  12  13
ENDBRANCH   8  12
ENDBRANCH   1   8
TORSDOF 5
ENDMDL
MODEL 8
REMARK VINA RESULT:      -6.4      5.134      6.846
REMARK  Name = 444718
REMARK  5 active torsions:
REMARK  status: ('A' for Active; 'I' for Inactive)
REMARK    1  A    between atoms: C_1  and  C_2
REMARK    2  A    between atoms: C_1  and  C_8
REMARK    3  A    between atoms: C_8  and  O_9
REMARK    4  A    between atoms: C_8  and  C_12
REMARK    5  A    between atoms: C_12  and  O_13
REMARK                            x       y       z     vdW  Elec       q    Type
REMARK                         _______ _______ _______ _____ _____    ______ ____
ROOT
ATOM      1  C   UNL     1      33.704 -23.164 -18.671  0.00  0.00    +0.067 C 
ENDROOT
BRANCH   1   2
ATOM      2  C   UNL     1      34.150 -21.948 -19.411  0.00  0.00    -0.019 C 
ATOM      3  C   UNL     1      33.206 -21.066 -19.938  0.00  0.00    -0.004 C 
ATOM      4  C   UNL     1      35.512 -21.692 -19.577  0.00  0.00    -0.004 C 
ATOM      5  C   UNL     1      33.622 -19.929 -20.630  0.00  0.00    -0.000 C 
ATOM      6  C   UNL     1      35.929 -20.555 -20.269  0.00  0.00    -0.000 C 
ATOM      7  C   UNL     1      34.984 -19.674 -20.796  0.00  0.00    -0.000 C 
ENDBRANCH   1   2
BRANCH   1   8
ATOM      8  C   UNL     1      33.705 -22.957 -17.146  0.00  0.00    +0.214 C 
BRANCH   8   9
ATOM      9  O   UNL     1      34.615 -23.881 -16.562  0.00  0.00    -0.374 OA
ATOM     10  H   UNL     1      34.261 -24.190 -15.713  0.00  0.00    +0.211 HD
ENDBRANCH   8   9
BRANCH   8  12
ATOM     11  O   UNL     1      32.117 -23.903 -15.557  0.00  0.00    -0.248 OA
ATOM     12  C   UNL     1      32.340 -23.223 -16.548  0.00  0.00    +0.341 C 
BRANCH  12  13
ATOM     13  O   UNL     1      31.374 -22.572 -17.245  0.00  0.00    -0.479 OA
ATOM     14  H   UNL     1      30.534 -22.427 -16.858  0.00  0.00    +0.295 HD
ENDBRANCH  12  13
ENDBRANCH   8  12
ENDBRANCH   1   8
TORSDOF 5
ENDMDL
MODEL 9
REMARK VINA RESULT:      -6.4      4.421      5.894
REMARK  Name = 444718
REMARK  5 active torsions:
REMARK  status: ('A' for Active; 'I' for Inactive)
REMARK    1  A    between atoms: C_1  and  C_2
REMARK    2  A    between atoms: C_1  and  C_8
REMARK    3  A    between atoms: C_8  and  O_9
REMARK    4  A    between atoms: C_8  and  C_12
REMARK    5  A    between atoms: C_12  and  O_13
REMARK                            x       y       z     vdW  Elec       q    Type
REMARK                         _______ _______ _______ _____ _____    ______ ____
ROOT
ATOM      1  C   UNL     1      35.672 -21.887 -19.543  0.00  0.00    +0.067 C 
ENDROOT
BRANCH   1   2
ATOM      2  C   UNL     1      35.381 -20.598 -20.235  0.00  0.00    -0.019 C 
ATOM      3  C   UNL     1      36.429 -19.756 -20.610  0.00  0.00    -0.004 C 
ATOM      4  C   UNL     1      34.062 -20.232 -20.506  0.00  0.00    -0.004 C 
ATOM      5  C   UNL     1      36.158 -18.550 -21.257  0.00  0.00    -0.000 C 
ATOM      6  C   UNL     1      33.791 -19.028 -21.152  0.00  0.00    -0.000 C 
ATOM      7  C   UNL     1      34.838 -18.186 -21.528  0.00  0.00    -0.000 C 
ENDBRANCH   1   2
BRANCH   1   8
ATOM      8  C   UNL     1      34.846 -22.063 -18.256  0.00  0.00    +0.214 C 
BRANCH   8   9
ATOM      9  O   UNL     1      35.641 -22.748 -17.296  0.00  0.00    -0.374 OA
ATOM     10  H   UNL     1      35.364 -22.488 -16.403  0.00  0.00    +0.211 HD
ENDBRANCH   8   9
BRANCH   8  12
ATOM     11  O   UNL     1      32.489 -22.654 -18.069  0.00  0.00    -0.248 OA
ATOM     12  C   UNL     1      33.607 -22.897 -18.499  0.00  0.00    +0.341 C 
BRANCH  12  13
ATOM     13  O   UNL     1      33.891 -23.957 -19.300  0.00  0.00    -0.479 OA
ATOM     14  H   UNL     1      34.051 -23.825 -20.213  0.00  0.00    +0.295 HD
ENDBRANCH  12  13
ENDBRANCH   8  12
ENDBRANCH   1   8
TORSDOF 5
ENDMDL
