MODEL 1
REMARK VINA RESULT:      -7.2      0.000      0.000
REMARK  Name = 200742
REMARK  9 active torsions:
REMARK  status: ('A' for Active; 'I' for Inactive)
REMARK    1  A    between atoms: C_1  and  C_2
REMARK    2  A    between atoms: C_1  and  C_8
REMARK    3  A    between atoms: C_1  and  O_15
REMARK    4  A    between atoms: C_1  and  C_20
REMARK    5  A    between atoms: C_8  and  C_10
REMARK    6  A    between atoms: C_10  and  N_11
REMARK    7  A    between atoms: O_15  and  C_17
REMARK    8  A    between atoms: C_17  and  C_18
REMARK    9  A    between atoms: C_20  and  C_21
REMARK                            x       y       z     vdW  Elec       q    Type
REMARK                         _______ _______ _______ _____ _____    ______ ____
ROOT
ATOM      1  C   UNL     1      35.287 -24.050 -14.937  0.00  0.00    +0.156 C 
ENDROOT
BRANCH   1   2
ATOM      2  C   UNL     1      35.835 -23.058 -15.978  0.00  0.00    +0.014 C 
ATOM      3  C   UNL     1      36.935 -22.309 -15.647  0.00  0.00    -0.001 C 
ATOM      4  C   UNL     1      35.197 -22.969 -17.189  0.00  0.00    -0.001 C 
ATOM      5  C   UNL     1      37.432 -21.410 -16.591  0.00  0.00    -0.000 C 
ATOM      6  C   UNL     1      35.694 -22.070 -18.133  0.00  0.00    -0.000 C 
ATOM      7  C   UNL     1      36.810 -21.290 -17.834  0.00  0.00    -0.000 C 
ENDBRANCH   1   2
BRANCH   1   8
ATOM      8  C   UNL     1      36.396 -25.106 -14.537  0.00  0.00    +0.020 C 
ATOM      9  C   UNL     1      36.116 -26.513 -15.101  0.00  0.00    +0.002 C 
BRANCH   8  10
ATOM     10  C   UNL     1      37.808 -24.630 -14.982  0.00  0.00    -0.074 C 
BRANCH  10  11
ATOM     11  N   UNL     1      38.873 -25.535 -14.554  0.00  0.00    +0.384 N 
ATOM     12  C   UNL     1      38.964 -25.566 -13.094  0.00  0.00    -0.101 C 
ATOM     13  C   UNL     1      40.153 -25.131 -15.137  0.00  0.00    -0.101 C 
ATOM     14  H   UNL     1      38.650 -26.474 -14.884  0.00  0.00    -0.080 HD
ENDBRANCH  10  11
ENDBRANCH   8  10
ENDBRANCH   1   8
BRANCH   1  15
ATOM     15  O   UNL     1      34.926 -23.347 -13.739  0.00  0.00    -0.451 OA
BRANCH  15  17
ATOM     16  O   UNL     1      34.851 -24.899 -12.034  0.00  0.00    -0.250 OA
ATOM     17  C   UNL     1      35.347 -23.920 -12.575  0.00  0.00    +0.317 C 
BRANCH  17  18
ATOM     18  C   UNL     1      36.536 -23.147 -12.056  0.00  0.00    +0.110 C 
ATOM     19  C   UNL     1      36.824 -23.452 -10.597  0.00  0.00    +0.012 C 
ENDBRANCH  17  18
ENDBRANCH  15  17
ENDBRANCH   1  15
BRANCH   1  20
ATOM     20  C   UNL     1      33.999 -24.744 -15.486  0.00  0.00    +0.071 C 
BRANCH  20  21
ATOM     21  C   UNL     1      32.689 -24.255 -14.897  0.00  0.00    -0.018 C 
ATOM     22  C   UNL     1      32.152 -23.065 -15.350  0.00  0.00    -0.004 C 
ATOM     23  C   UNL     1      32.066 -25.014 -13.924  0.00  0.00    -0.004 C 
ATOM     24  C   UNL     1      30.946 -22.616 -14.810  0.00  0.00    -0.000 C 
ATOM     25  C   UNL     1      30.861 -24.565 -13.384  0.00  0.00    -0.000 C 
ATOM     26  C   UNL     1      30.302 -23.366 -13.827  0.00  0.00    -0.000 C 
ENDBRANCH  20  21
ENDBRANCH   1  20
TORSDOF 9
ENDMDL
MODEL 2
REMARK VINA RESULT:      -6.8      1.927      4.359
REMARK  Name = 200742
REMARK  9 active torsions:
REMARK  status: ('A' for Active; 'I' for Inactive)
REMARK    1  A    between atoms: C_1  and  C_2
REMARK    2  A    between atoms: C_1  and  C_8
REMARK    3  A    between atoms: C_1  and  O_15
REMARK    4  A    between atoms: C_1  and  C_20
REMARK    5  A    between atoms: C_8  and  C_10
REMARK    6  A    between atoms: C_10  and  N_11
REMARK    7  A    between atoms: O_15  and  C_17
REMARK    8  A    between atoms: C_17  and  C_18
REMARK    9  A    between atoms: C_20  and  C_21
REMARK                            x       y       z     vdW  Elec       q    Type
REMARK                         _______ _______ _______ _____ _____    ______ ____
ROOT
ATOM      1  C   UNL     1      35.843 -24.126 -14.987  0.00  0.00    +0.156 C 
ENDROOT
BRANCH   1   2
ATOM      2  C   UNL     1      36.153 -23.855 -13.504  0.00  0.00    +0.014 C 
ATOM      3  C   UNL     1      37.191 -23.012 -13.200  0.00  0.00    -0.001 C 
ATOM      4  C   UNL     1      35.376 -24.470 -12.555  0.00  0.00    -0.001 C 
ATOM      5  C   UNL     1      37.471 -22.766 -11.855  0.00  0.00    -0.000 C 
ATOM      6  C   UNL     1      35.655 -24.224 -11.211  0.00  0.00    -0.000 C 
ATOM      7  C   UNL     1      36.703 -23.373 -10.861  0.00  0.00    -0.000 C 
ENDBRANCH   1   2
BRANCH   1   8
ATOM      8  C   UNL     1      35.776 -22.769 -15.798  0.00  0.00    +0.020 C 
ATOM      9  C   UNL     1      37.066 -21.934 -15.679  0.00  0.00    +0.002 C 
BRANCH   8  10
ATOM     10  C   UNL     1      35.450 -23.027 -17.296  0.00  0.00    -0.074 C 
BRANCH  10  11
ATOM     11  N   UNL     1      35.289 -21.794 -18.064  0.00  0.00    +0.384 N 
ATOM     12  C   UNL     1      34.104 -21.873 -18.919  0.00  0.00    -0.101 C 
ATOM     13  C   UNL     1      36.482 -21.532 -18.868  0.00  0.00    -0.101 C 
ATOM     14  H   UNL     1      35.164 -21.021 -17.409  0.00  0.00    -0.080 HD
ENDBRANCH  10  11
ENDBRANCH   8  10
ENDBRANCH   1   8
BRANCH   1  15
ATOM     15  O   UNL     1      36.897 -24.910 -15.567  0.00  0.00    -0.451 OA
BRANCH  15  17
ATOM     16  O   UNL     1      36.145 -27.074 -15.842  0.00  0.00    -0.250 OA
ATOM     17  C   UNL     1      36.854 -26.244 -15.287  0.00  0.00    +0.317 C 
BRANCH  17  18
ATOM     18  C   UNL     1      37.831 -26.539 -14.174  0.00  0.00    +0.110 C 
ATOM     19  C   UNL     1      39.167 -25.852 -14.389  0.00  0.00    +0.012 C 
ENDBRANCH  17  18
ENDBRANCH  15  17
ENDBRANCH   1  15
BRANCH   1  20
ATOM     20  C   UNL     1      34.518 -24.944 -15.115  0.00  0.00    +0.071 C 
BRANCH  20  21
ATOM     21  C   UNL     1      33.237 -24.136 -15.024  0.00  0.00    -0.018 C 
ATOM     22  C   UNL     1      32.743 -23.799 -13.778  0.00  0.00    -0.004 C 
ATOM     23  C   UNL     1      32.598 -23.756 -16.189  0.00  0.00    -0.004 C 
ATOM     24  C   UNL     1      31.566 -23.055 -13.693  0.00  0.00    -0.000 C 
ATOM     25  C   UNL     1      31.421 -23.011 -16.104  0.00  0.00    -0.000 C 
ATOM     26  C   UNL     1      30.905 -22.662 -14.856  0.00  0.00    -0.000 C 
ENDBRANCH  20  21
ENDBRANCH   1  20
TORSDOF 9
ENDMDL
MODEL 3
REMARK VINA RESULT:      -6.7      1.728      4.907
REMARK  Name = 200742
REMARK  9 active torsions:
REMARK  status: ('A' for Active; 'I' for Inactive)
REMARK    1  A    between atoms: C_1  and  C_2
REMARK    2  A    between atoms: C_1  and  C_8
REMARK    3  A    between atoms: C_1  and  O_15
REMARK    4  A    between atoms: C_1  and  C_20
REMARK    5  A    between atoms: C_8  and  C_10
REMARK    6  A    between atoms: C_10  and  N_11
REMARK    7  A    between atoms: O_15  and  C_17
REMARK    8  A    between atoms: C_17  and  C_18
REMARK    9  A    between atoms: C_20  and  C_21
REMARK                            x       y       z     vdW  Elec       q    Type
REMARK                         _______ _______ _______ _____ _____    ______ ____
ROOT
ATOM      1  C   UNL     1      36.363 -23.560 -14.246  0.00  0.00    +0.156 C 
ENDROOT
BRANCH   1   2
ATOM      2  C   UNL     1      37.660 -24.386 -14.285  0.00  0.00    +0.014 C 
ATOM      3  C   UNL     1      37.793 -25.431 -13.406  0.00  0.00    -0.001 C 
ATOM      4  C   UNL     1      38.625 -24.039 -15.197  0.00  0.00    -0.001 C 
ATOM      5  C   UNL     1      38.970 -26.180 -13.442  0.00  0.00    -0.000 C 
ATOM      6  C   UNL     1      39.801 -24.788 -15.232  0.00  0.00    -0.000 C 
ATOM      7  C   UNL     1      39.974 -25.858 -14.355  0.00  0.00    -0.000 C 
ENDBRANCH   1   2
BRANCH   1   8
ATOM      8  C   UNL     1      35.159 -24.386 -14.858  0.00  0.00    +0.020 C 
ATOM      9  C   UNL     1      35.576 -25.794 -15.328  0.00  0.00    +0.002 C 
BRANCH   8  10
ATOM     10  C   UNL     1      33.982 -24.492 -13.849  0.00  0.00    -0.074 C 
BRANCH  10  11
ATOM     11  N   UNL     1      32.675 -24.326 -14.481  0.00  0.00    +0.384 N 
ATOM     12  C   UNL     1      32.257 -22.925 -14.434  0.00  0.00    -0.101 C 
ATOM     13  C   UNL     1      31.680 -25.177 -13.829  0.00  0.00    -0.101 C 
ATOM     14  H   UNL     1      32.752 -24.608 -15.458  0.00  0.00    -0.080 HD
ENDBRANCH  10  11
ENDBRANCH   8  10
ENDBRANCH   1   8
BRANCH   1  15
ATOM     15  O   UNL     1      36.018 -23.262 -12.885  0.00  0.00    -0.451 OA
BRANCH  15  17
ATOM     16  O   UNL     1      37.931 -22.081 -12.368  0.00  0.00    -0.250 OA
ATOM     17  C   UNL     1      37.060 -22.893 -12.086  0.00  0.00    +0.317 C 
BRANCH  17  18
ATOM     18  C   UNL     1      36.966 -23.653 -10.783  0.00  0.00    +0.110 C 
ATOM     19  C   UNL     1      35.639 -24.375 -10.638  0.00  0.00    +0.012 C 
ENDBRANCH  17  18
ENDBRANCH  15  17
ENDBRANCH   1  15
BRANCH   1  20
ATOM     20  C   UNL     1      36.571 -22.202 -14.991  0.00  0.00    +0.071 C 
BRANCH  20  21
ATOM     21  C   UNL     1      36.114 -22.170 -16.437  0.00  0.00    -0.018 C 
ATOM     22  C   UNL     1      34.861 -22.660 -16.757  0.00  0.00    -0.004 C 
ATOM     23  C   UNL     1      36.961 -21.651 -17.398  0.00  0.00    -0.004 C 
ATOM     24  C   UNL     1      34.440 -22.629 -18.086  0.00  0.00    -0.000 C 
ATOM     25  C   UNL     1      36.540 -21.620 -18.727  0.00  0.00    -0.000 C 
ATOM     26  C   UNL     1      35.280 -22.109 -19.071  0.00  0.00    -0.000 C 
ENDBRANCH  20  21
ENDBRANCH   1  20
TORSDOF 9
ENDMDL
MODEL 4
REMARK VINA RESULT:      -6.6     14.475     17.255
REMARK  Name = 200742
REMARK  9 active torsions:
REMARK  status: ('A' for Active; 'I' for Inactive)
REMARK    1  A    between atoms: C_1  and  C_2
REMARK    2  A    between atoms: C_1  and  C_8
REMARK    3  A    between atoms: C_1  and  O_15
REMARK    4  A    between atoms: C_1  and  C_20
REMARK    5  A    between atoms: C_8  and  C_10
REMARK    6  A    between atoms: C_10  and  N_11
REMARK    7  A    between atoms: O_15  and  C_17
REMARK    8  A    between atoms: C_17  and  C_18
REMARK    9  A    between atoms: C_20  and  C_21
REMARK                            x       y       z     vdW  Elec       q    Type
REMARK                         _______ _______ _______ _____ _____    ______ ____
ROOT
ATOM      1  C   UNL     1      32.309  -9.585 -22.550  0.00  0.00    +0.156 C 
ENDROOT
BRANCH   1   2
ATOM      2  C   UNL     1      33.333  -9.925 -23.648  0.00  0.00    +0.014 C 
ATOM      3  C   UNL     1      33.049 -10.958 -24.505  0.00  0.00    -0.001 C 
ATOM      4  C   UNL     1      34.482  -9.180 -23.718  0.00  0.00    -0.001 C 
ATOM      5  C   UNL     1      33.976 -11.266 -25.500  0.00  0.00    -0.000 C 
ATOM      6  C   UNL     1      35.410  -9.487 -24.714  0.00  0.00    -0.000 C 
ATOM      7  C   UNL     1      35.158 -10.531 -25.604  0.00  0.00    -0.000 C 
ENDBRANCH   1   2
BRANCH   1   8
ATOM      8  C   UNL     1      31.864 -10.893 -21.780  0.00  0.00    +0.020 C 
ATOM      9  C   UNL     1      30.387 -11.261 -22.027  0.00  0.00    +0.002 C 
BRANCH   8  10
ATOM     10  C   UNL     1      32.777 -12.097 -22.147  0.00  0.00    -0.074 C 
BRANCH  10  11
ATOM     11  N   UNL     1      32.135 -13.389 -21.911  0.00  0.00    +0.384 N 
ATOM     12  C   UNL     1      32.485 -13.900 -20.585  0.00  0.00    -0.101 C 
ATOM     13  C   UNL     1      32.520 -14.348 -22.946  0.00  0.00    -0.101 C 
ATOM     14  H   UNL     1      31.124 -13.258 -21.950  0.00  0.00    -0.080 HD
ENDBRANCH  10  11
ENDBRANCH   8  10
ENDBRANCH   1   8
BRANCH   1  15
ATOM     15  O   UNL     1      32.909  -8.711 -21.582  0.00  0.00    -0.451 OA
BRANCH  15  17
ATOM     16  O   UNL     1      32.460  -9.848 -19.625  0.00  0.00    -0.250 OA
ATOM     17  C   UNL     1      32.433  -8.834 -20.309  0.00  0.00    +0.317 C 
BRANCH  17  18
ATOM     18  C   UNL     1      31.861  -7.505 -19.875  0.00  0.00    +0.110 C 
ATOM     19  C   UNL     1      32.835  -6.362 -20.100  0.00  0.00    +0.012 C 
ENDBRANCH  17  18
ENDBRANCH  15  17
ENDBRANCH   1  15
BRANCH   1  20
ATOM     20  C   UNL     1      31.088  -8.835 -23.173  0.00  0.00    +0.071 C 
BRANCH  20  21
ATOM     21  C   UNL     1      31.317  -7.373 -23.509  0.00  0.00    -0.018 C 
ATOM     22  C   UNL     1      32.165  -7.049 -24.551  0.00  0.00    -0.004 C 
ATOM     23  C   UNL     1      30.671  -6.403 -22.766  0.00  0.00    -0.004 C 
ATOM     24  C   UNL     1      32.375  -5.705 -24.862  0.00  0.00    -0.000 C 
ATOM     25  C   UNL     1      30.881  -5.060 -23.077  0.00  0.00    -0.000 C 
ATOM     26  C   UNL     1      31.733  -4.711 -24.124  0.00  0.00    -0.000 C 
ENDBRANCH  20  21
ENDBRANCH   1  20
TORSDOF 9
ENDMDL
MODEL 5
REMARK VINA RESULT:      -6.4      2.138      6.204
REMARK  Name = 200742
REMARK  9 active torsions:
REMARK  status: ('A' for Active; 'I' for Inactive)
REMARK    1  A    between atoms: C_1  and  C_2
REMARK    2  A    between atoms: C_1  and  C_8
REMARK    3  A    between atoms: C_1  and  O_15
REMARK    4  A    between atoms: C_1  and  C_20
REMARK    5  A    between atoms: C_8  and  C_10
REMARK    6  A    between atoms: C_10  and  N_11
REMARK    7  A    between atoms: O_15  and  C_17
REMARK    8  A    between atoms: C_17  and  C_18
REMARK    9  A    between atoms: C_20  and  C_21
REMARK                            x       y       z     vdW  Elec       q    Type
REMARK                         _______ _______ _______ _____ _____    ______ ____
ROOT
ATOM      1  C   UNL     1      34.703 -23.856 -14.453  0.00  0.00    +0.156 C 
ENDROOT
BRANCH   1   2
ATOM      2  C   UNL     1      35.480 -23.772 -13.128  0.00  0.00    +0.014 C 
ATOM      3  C   UNL     1      35.076 -24.566 -12.084  0.00  0.00    -0.001 C 
ATOM      4  C   UNL     1      36.542 -22.906 -13.051  0.00  0.00    -0.001 C 
ATOM      5  C   UNL     1      35.781 -24.490 -10.883  0.00  0.00    -0.000 C 
ATOM      6  C   UNL     1      37.247 -22.831 -11.850  0.00  0.00    -0.000 C 
ATOM      7  C   UNL     1      36.867 -23.621 -10.766  0.00  0.00    -0.000 C 
ENDBRANCH   1   2
BRANCH   1   8
ATOM      8  C   UNL     1      33.171 -24.144 -14.182  0.00  0.00    +0.020 C 
ATOM      9  C   UNL     1      32.484 -23.027 -13.371  0.00  0.00    +0.002 C 
BRANCH   8  10
ATOM     10  C   UNL     1      32.402 -24.381 -15.512  0.00  0.00    -0.074 C 
BRANCH  10  11
ATOM     11  N   UNL     1      31.056 -23.808 -15.500  0.00  0.00    +0.384 N 
ATOM     12  C   UNL     1      30.049 -24.866 -15.579  0.00  0.00    -0.101 C 
ATOM     13  C   UNL     1      30.893 -22.863 -16.604  0.00  0.00    -0.101 C 
ATOM     14  H   UNL     1      30.929 -23.305 -14.621  0.00  0.00    -0.080 HD
ENDBRANCH  10  11
ENDBRANCH   8  10
ENDBRANCH   1   8
BRANCH   1  15
ATOM     15  O   UNL     1      34.778 -22.598 -15.140  0.00  0.00    -0.451 OA
BRANCH  15  17
ATOM     16  O   UNL     1      34.492 -23.216 -17.345  0.00  0.00    -0.250 OA
ATOM     17  C   UNL     1      35.133 -22.671 -16.456  0.00  0.00    +0.317 C 
BRANCH  17  18
ATOM     18  C   UNL     1      36.455 -21.965 -16.642  0.00  0.00    +0.110 C 
ATOM     19  C   UNL     1      36.707 -21.595 -18.093  0.00  0.00    +0.012 C 
ENDBRANCH  17  18
ENDBRANCH  15  17
ENDBRANCH   1  15
BRANCH   1  20
ATOM     20  C   UNL     1      35.341 -24.941 -15.379  0.00  0.00    +0.071 C 
BRANCH  20  21
ATOM     21  C   UNL     1      36.756 -25.356 -15.024  0.00  0.00    -0.018 C 
ATOM     22  C   UNL     1      36.969 -26.590 -14.440  0.00  0.00    -0.004 C 
ATOM     23  C   UNL     1      37.798 -24.488 -15.295  0.00  0.00    -0.004 C 
ATOM     24  C   UNL     1      38.271 -26.973 -14.115  0.00  0.00    -0.000 C 
ATOM     25  C   UNL     1      39.100 -24.871 -14.971  0.00  0.00    -0.000 C 
ATOM     26  C   UNL     1      39.335 -26.112 -14.380  0.00  0.00    -0.000 C 
ENDBRANCH  20  21
ENDBRANCH   1  20
TORSDOF 9
ENDMDL
MODEL 6
REMARK VINA RESULT:      -6.4      1.738      5.468
REMARK  Name = 200742
REMARK  9 active torsions:
REMARK  status: ('A' for Active; 'I' for Inactive)
REMARK    1  A    between atoms: C_1  and  C_2
REMARK    2  A    between atoms: C_1  and  C_8
REMARK    3  A    between atoms: C_1  and  O_15
REMARK    4  A    between atoms: C_1  and  C_20
REMARK    5  A    between atoms: C_8  and  C_10
REMARK    6  A    between atoms: C_10  and  N_11
REMARK    7  A    between atoms: O_15  and  C_17
REMARK    8  A    between atoms: C_17  and  C_18
REMARK    9  A    between atoms: C_20  and  C_21
REMARK                            x       y       z     vdW  Elec       q    Type
REMARK                         _______ _______ _______ _____ _____    ______ ____
ROOT
ATOM      1  C   UNL     1      34.810 -23.738 -14.436  0.00  0.00    +0.156 C 
ENDROOT
BRANCH   1   2
ATOM      2  C   UNL     1      33.310 -23.880 -14.126  0.00  0.00    +0.014 C 
ATOM      3  C   UNL     1      32.590 -22.743 -13.859  0.00  0.00    -0.001 C 
ATOM      4  C   UNL     1      32.761 -25.137 -14.132  0.00  0.00    -0.001 C 
ATOM      5  C   UNL     1      31.230 -22.871 -13.579  0.00  0.00    -0.000 C 
ATOM      6  C   UNL     1      31.400 -25.266 -13.853  0.00  0.00    -0.000 C 
ATOM      7  C   UNL     1      30.634 -24.133 -13.575  0.00  0.00    -0.000 C 
ENDBRANCH   1   2
BRANCH   1   8
ATOM      8  C   UNL     1      35.040 -22.709 -15.616  0.00  0.00    +0.020 C 
ATOM      9  C   UNL     1      36.460 -22.108 -15.619  0.00  0.00    +0.002 C 
BRANCH   8  10
ATOM     10  C   UNL     1      34.739 -23.361 -16.994  0.00  0.00    -0.074 C 
BRANCH  10  11
ATOM     11  N   UNL     1      33.805 -22.578 -17.801  0.00  0.00    +0.384 N 
ATOM     12  C   UNL     1      32.424 -22.950 -17.492  0.00  0.00    -0.101 C 
ATOM     13  C   UNL     1      34.077 -22.767 -19.226  0.00  0.00    -0.101 C 
ATOM     14  H   UNL     1      33.933 -21.591 -17.575  0.00  0.00    -0.080 HD
ENDBRANCH  10  11
ENDBRANCH   8  10
ENDBRANCH   1   8
BRANCH   1  15
ATOM     15  O   UNL     1      35.496 -23.220 -13.286  0.00  0.00    -0.451 OA
BRANCH  15  17
ATOM     16  O   UNL     1      34.465 -24.763 -11.916  0.00  0.00    -0.250 OA
ATOM     17  C   UNL     1      35.347 -23.945 -12.141  0.00  0.00    +0.317 C 
BRANCH  17  18
ATOM     18  C   UNL     1      36.456 -23.576 -11.185  0.00  0.00    +0.110 C 
ATOM     19  C   UNL     1      37.558 -22.784 -11.865  0.00  0.00    +0.012 C 
ENDBRANCH  17  18
ENDBRANCH  15  17
ENDBRANCH   1  15
BRANCH   1  20
ATOM     20  C   UNL     1      35.423 -25.138 -14.762  0.00  0.00    +0.071 C 
BRANCH  20  21
ATOM     21  C   UNL     1      36.898 -25.298 -14.447  0.00  0.00    -0.018 C 
ATOM     22  C   UNL     1      37.827 -24.628 -15.220  0.00  0.00    -0.004 C 
ATOM     23  C   UNL     1      37.276 -26.109 -13.393  0.00  0.00    -0.004 C 
ATOM     24  C   UNL     1      39.184 -24.773 -14.930  0.00  0.00    -0.000 C 
ATOM     25  C   UNL     1      38.633 -26.254 -13.103  0.00  0.00    -0.000 C 
ATOM     26  C   UNL     1      39.586 -25.586 -13.872  0.00  0.00    -0.000 C 
ENDBRANCH  20  21
ENDBRANCH   1  20
TORSDOF 9
ENDMDL
MODEL 7
REMARK VINA RESULT:      -6.0      1.705      4.905
REMARK  Name = 200742
REMARK  9 active torsions:
REMARK  status: ('A' for Active; 'I' for Inactive)
REMARK    1  A    between atoms: C_1  and  C_2
REMARK    2  A    between atoms: C_1  and  C_8
REMARK    3  A    between atoms: C_1  and  O_15
REMARK    4  A    between atoms: C_1  and  C_20
REMARK    5  A    between atoms: C_8  and  C_10
REMARK    6  A    between atoms: C_10  and  N_11
REMARK    7  A    between atoms: O_15  and  C_17
REMARK    8  A    between atoms: C_17  and  C_18
REMARK    9  A    between atoms: C_20  and  C_21
REMARK                            x       y       z     vdW  Elec       q    Type
REMARK                         _______ _______ _______ _____ _____    ______ ____
ROOT
ATOM      1  C   UNL     1      35.108 -23.705 -14.869  0.00  0.00    +0.156 C 
ENDROOT
BRANCH   1   2
ATOM      2  C   UNL     1      33.598 -23.822 -14.598  0.00  0.00    +0.014 C 
ATOM      3  C   UNL     1      32.826 -22.694 -14.720  0.00  0.00    -0.001 C 
ATOM      4  C   UNL     1      33.092 -25.048 -14.248  0.00  0.00    -0.001 C 
ATOM      5  C   UNL     1      31.457 -22.800 -14.475  0.00  0.00    -0.000 C 
ATOM      6  C   UNL     1      31.723 -25.154 -14.004  0.00  0.00    -0.000 C 
ATOM      7  C   UNL     1      30.905 -24.030 -14.117  0.00  0.00    -0.000 C 
ENDBRANCH   1   2
BRANCH   1   8
ATOM      8  C   UNL     1      35.932 -23.960 -13.542  0.00  0.00    +0.020 C 
ATOM      9  C   UNL     1      36.969 -22.855 -13.258  0.00  0.00    +0.002 C 
BRANCH   8  10
ATOM     10  C   UNL     1      34.987 -24.123 -12.319  0.00  0.00    -0.074 C 
BRANCH  10  11
ATOM     11  N   UNL     1      35.543 -24.992 -11.283  0.00  0.00    +0.384 N 
ATOM     12  C   UNL     1      35.765 -24.240 -10.048  0.00  0.00    -0.101 C 
ATOM     13  C   UNL     1      36.792 -25.600 -11.742  0.00  0.00    -0.101 C 
ATOM     14  H   UNL     1      34.872 -25.737 -11.092  0.00  0.00    -0.080 HD
ENDBRANCH  10  11
ENDBRANCH   8  10
ENDBRANCH   1   8
BRANCH   1  15
ATOM     15  O   UNL     1      35.510 -24.709 -15.812  0.00  0.00    -0.451 OA
BRANCH  15  17
ATOM     16  O   UNL     1      36.074 -26.778 -14.960  0.00  0.00    -0.250 OA
ATOM     17  C   UNL     1      36.373 -25.651 -15.332  0.00  0.00    +0.317 C 
BRANCH  17  18
ATOM     18  C   UNL     1      37.770 -25.075 -15.333  0.00  0.00    +0.110 C 
ATOM     19  C   UNL     1      38.775 -26.013 -14.690  0.00  0.00    +0.012 C 
ENDBRANCH  17  18
ENDBRANCH  15  17
ENDBRANCH   1  15
BRANCH   1  20
ATOM     20  C   UNL     1      35.433 -22.310 -15.493  0.00  0.00    +0.071 C 
BRANCH  20  21
ATOM     21  C   UNL     1      35.396 -22.246 -17.009  0.00  0.00    -0.018 C 
ATOM     22  C   UNL     1      34.261 -22.672 -17.672  0.00  0.00    -0.004 C 
ATOM     23  C   UNL     1      36.499 -21.760 -17.687  0.00  0.00    -0.004 C 
ATOM     24  C   UNL     1      34.226 -22.611 -19.065  0.00  0.00    -0.000 C 
ATOM     25  C   UNL     1      36.464 -21.699 -19.080  0.00  0.00    -0.000 C 
ATOM     26  C   UNL     1      35.328 -22.125 -19.769  0.00  0.00    -0.000 C 
ENDBRANCH  20  21
ENDBRANCH   1  20
TORSDOF 9
ENDMDL
MODEL 8
REMARK VINA RESULT:      -5.9     14.279     17.422
REMARK  Name = 200742
REMARK  9 active torsions:
REMARK  status: ('A' for Active; 'I' for Inactive)
REMARK    1  A    between atoms: C_1  and  C_2
REMARK    2  A    between atoms: C_1  and  C_8
REMARK    3  A    between atoms: C_1  and  O_15
REMARK    4  A    between atoms: C_1  and  C_20
REMARK    5  A    between atoms: C_8  and  C_10
REMARK    6  A    between atoms: C_10  and  N_11
REMARK    7  A    between atoms: O_15  and  C_17
REMARK    8  A    between atoms: C_17  and  C_18
REMARK    9  A    between atoms: C_20  and  C_21
REMARK                            x       y       z     vdW  Elec       q    Type
REMARK                         _______ _______ _______ _____ _____    ______ ____
ROOT
ATOM      1  C   UNL     1      32.553  -9.486 -22.828  0.00  0.00    +0.156 C 
ENDROOT
BRANCH   1   2
ATOM      2  C   UNL     1      31.980  -9.851 -21.447  0.00  0.00    +0.014 C 
ATOM      3  C   UNL     1      30.812 -10.569 -21.396  0.00  0.00    -0.001 C 
ATOM      4  C   UNL     1      32.665  -9.442 -20.330  0.00  0.00    -0.001 C 
ATOM      5  C   UNL     1      30.293 -10.900 -20.144  0.00  0.00    -0.000 C 
ATOM      6  C   UNL     1      32.146  -9.774 -19.079  0.00  0.00    -0.000 C 
ATOM      7  C   UNL     1      30.961 -10.502 -18.985  0.00  0.00    -0.000 C 
ENDBRANCH   1   2
BRANCH   1   8
ATOM      8  C   UNL     1      31.910  -8.141 -23.358  0.00  0.00    +0.020 C 
ATOM      9  C   UNL     1      30.561  -8.361 -24.072  0.00  0.00    +0.002 C 
BRANCH   8  10
ATOM     10  C   UNL     1      31.736  -7.111 -22.207  0.00  0.00    -0.074 C 
BRANCH  10  11
ATOM     11  N   UNL     1      30.892  -5.977 -22.581  0.00  0.00    +0.384 N 
ATOM     12  C   UNL     1      31.658  -5.002 -23.357  0.00  0.00    -0.101 C 
ATOM     13  C   UNL     1      30.324  -5.348 -21.389  0.00  0.00    -0.101 C 
ATOM     14  H   UNL     1      30.127  -6.323 -23.160  0.00  0.00    -0.080 HD
ENDBRANCH  10  11
ENDBRANCH   8  10
ENDBRANCH   1   8
BRANCH   1  15
ATOM     15  O   UNL     1      33.967  -9.263 -22.723  0.00  0.00    -0.451 OA
BRANCH  15  17
ATOM     16  O   UNL     1      34.849  -9.508 -24.840  0.00  0.00    -0.250 OA
ATOM     17  C   UNL     1      34.575  -8.825 -23.863  0.00  0.00    +0.317 C 
BRANCH  17  18
ATOM     18  C   UNL     1      34.859  -7.348 -23.725  0.00  0.00    +0.110 C 
ATOM     19  C   UNL     1      34.563  -6.586 -25.004  0.00  0.00    +0.012 C 
ENDBRANCH  17  18
ENDBRANCH  15  17
ENDBRANCH   1  15
BRANCH   1  20
ATOM     20  C   UNL     1      32.332 -10.667 -23.827  0.00  0.00    +0.071 C 
BRANCH  20  21
ATOM     21  C   UNL     1      32.780 -12.031 -23.339  0.00  0.00    -0.018 C 
ATOM     22  C   UNL     1      32.017 -12.691 -22.393  0.00  0.00    -0.004 C 
ATOM     23  C   UNL     1      33.939 -12.581 -23.854  0.00  0.00    -0.004 C 
ATOM     24  C   UNL     1      32.428 -13.946 -21.946  0.00  0.00    -0.000 C 
ATOM     25  C   UNL     1      34.350 -13.837 -23.406  0.00  0.00    -0.000 C 
ATOM     26  C   UNL     1      33.595 -14.519 -22.452  0.00  0.00    -0.000 C 
ENDBRANCH  20  21
ENDBRANCH   1  20
TORSDOF 9
ENDMDL
MODEL 9
REMARK VINA RESULT:      -5.9     11.432     14.217
REMARK  Name = 200742
REMARK  9 active torsions:
REMARK  status: ('A' for Active; 'I' for Inactive)
REMARK    1  A    between atoms: C_1  and  C_2
REMARK    2  A    between atoms: C_1  and  C_8
REMARK    3  A    between atoms: C_1  and  O_15
REMARK    4  A    between atoms: C_1  and  C_20
REMARK    5  A    between atoms: C_8  and  C_10
REMARK    6  A    between atoms: C_10  and  N_11
REMARK    7  A    between atoms: O_15  and  C_17
REMARK    8  A    between atoms: C_17  and  C_18
REMARK    9  A    between atoms: C_20  and  C_21
REMARK                            x       y       z     vdW  Elec       q    Type
REMARK                         _______ _______ _______ _____ _____    ______ ____
ROOT
ATOM      1  C   UNL     1      33.175 -13.121 -23.612  0.00  0.00    +0.156 C 
ENDROOT
BRANCH   1   2
ATOM      2  C   UNL     1      33.939 -12.088 -24.458  0.00  0.00    +0.014 C 
ATOM      3  C   UNL     1      34.513 -11.019 -23.818  0.00  0.00    -0.001 C 
ATOM      4  C   UNL     1      34.012 -12.284 -25.814  0.00  0.00    -0.001 C 
ATOM      5  C   UNL     1      35.207 -10.083 -24.585  0.00  0.00    -0.000 C 
ATOM      6  C   UNL     1      34.705 -11.348 -26.582  0.00  0.00    -0.000 C 
ATOM      7  C   UNL     1      35.302 -10.247 -25.968  0.00  0.00    -0.000 C 
ENDBRANCH   1   2
BRANCH   1   8
ATOM      8  C   UNL     1      33.078 -14.503 -24.375  0.00  0.00    +0.020 C 
ATOM      9  C   UNL     1      32.522 -14.361 -25.806  0.00  0.00    +0.002 C 
BRANCH   8  10
ATOM     10  C   UNL     1      34.457 -15.220 -24.414  0.00  0.00    -0.074 C 
BRANCH  10  11
ATOM     11  N   UNL     1      34.355 -16.660 -24.183  0.00  0.00    +0.384 N 
ATOM     12  C   UNL     1      35.482 -17.130 -23.378  0.00  0.00    -0.101 C 
ATOM     13  C   UNL     1      34.302 -17.379 -25.456  0.00  0.00    -0.101 C 
ATOM     14  H   UNL     1      33.492 -16.844 -23.671  0.00  0.00    -0.080 HD
ENDBRANCH  10  11
ENDBRANCH   8  10
ENDBRANCH   1   8
BRANCH   1  15
ATOM     15  O   UNL     1      33.884 -13.365 -22.388  0.00  0.00    -0.451 OA
BRANCH  15  17
ATOM     16  O   UNL     1      32.357 -14.986 -21.784  0.00  0.00    -0.250 OA
ATOM     17  C   UNL     1      33.439 -14.427 -21.657  0.00  0.00    +0.317 C 
BRANCH  17  18
ATOM     18  C   UNL     1      34.504 -14.808 -20.656  0.00  0.00    +0.110 C 
ATOM     19  C   UNL     1      34.587 -16.310 -20.452  0.00  0.00    +0.012 C 
ENDBRANCH  17  18
ENDBRANCH  15  17
ENDBRANCH   1  15
BRANCH   1  20
ATOM     20  C   UNL     1      31.763 -12.565 -23.238  0.00  0.00    +0.071 C 
BRANCH  20  21
ATOM     21  C   UNL     1      31.741 -11.509 -22.150  0.00  0.00    -0.018 C 
ATOM     22  C   UNL     1      31.524 -11.896 -20.841  0.00  0.00    -0.004 C 
ATOM     23  C   UNL     1      31.939 -10.185 -22.495  0.00  0.00    -0.004 C 
ATOM     24  C   UNL     1      31.505 -10.925 -19.840  0.00  0.00    -0.000 C 
ATOM     25  C   UNL     1      31.920  -9.214 -21.494  0.00  0.00    -0.000 C 
ATOM     26  C   UNL     1      31.703  -9.584 -20.167  0.00  0.00    -0.000 C 
ENDBRANCH  20  21
ENDBRANCH   1  20
TORSDOF 9
ENDMDL
