MODEL 1
REMARK VINA RESULT:      -8.6      0.000      0.000
REMARK  Name = 90334
REMARK  3 active torsions:
REMARK  status: ('A' for Active; 'I' for Inactive)
REMARK    1  A    between atoms: C_2  and  O_10
REMARK    2  A    between atoms: O_10  and  C_11
REMARK    3  A    between atoms: C_11  and  C_12
REMARK                            x       y       z     vdW  Elec       q    Type
REMARK                         _______ _______ _______ _____ _____    ______ ____
ROOT
ATOM      1  N   UNL     1      34.736 -14.891 -23.342  0.00  0.00    -0.226 NA
ATOM      2  C   UNL     1      34.918 -17.014 -22.223  0.00  0.00    +0.170 C 
ATOM      3  C   UNL     1      34.956 -16.224 -23.353  0.00  0.00    +0.160 C 
ATOM      4  C   UNL     1      34.639 -16.420 -21.004  0.00  0.00    +0.041 C 
ATOM      5  C   UNL     1      34.408 -15.049 -20.952  0.00  0.00    +0.024 C 
ATOM      6  C   UNL     1      34.468 -14.336 -22.138  0.00  0.00    +0.101 C 
ATOM      7  N   UNL     1      35.242 -16.842 -24.596  0.00  0.00    -0.340 N 
ATOM      8  H   UNL     1      35.276 -16.301 -25.418  0.00  0.00    +0.144 HD
ATOM      9  H   UNL     1      35.407 -17.812 -24.637  0.00  0.00    +0.144 HD
ENDROOT
BRANCH   2  10
ATOM     10  O   UNL     1      35.147 -18.364 -22.276  0.00  0.00    -0.468 OA
BRANCH  10  11
ATOM     11  C   UNL     1      36.009 -18.907 -21.284  0.00  0.00    +0.232 C 
BRANCH  11  12
ATOM     12  C   UNL     1      35.296 -19.994 -20.551  0.00  0.00    +0.021 C 
ATOM     13  C   UNL     1      33.904 -20.069 -20.596  0.00  0.00    -0.001 C 
ATOM     14  C   UNL     1      36.023 -20.937 -19.823  0.00  0.00    -0.001 C 
ATOM     15  C   UNL     1      33.239 -21.086 -19.911  0.00  0.00    -0.000 C 
ATOM     16  C   UNL     1      35.356 -21.954 -19.139  0.00  0.00    -0.000 C 
ATOM     17  C   UNL     1      33.964 -22.028 -19.183  0.00  0.00    -0.000 C 
ENDBRANCH  11  12
ENDBRANCH  10  11
ENDBRANCH   2  10
TORSDOF 3
ENDMDL
MODEL 2
REMARK VINA RESULT:      -8.5      0.143      1.256
REMARK  Name = 90334
REMARK  3 active torsions:
REMARK  status: ('A' for Active; 'I' for Inactive)
REMARK    1  A    between atoms: C_2  and  O_10
REMARK    2  A    between atoms: O_10  and  C_11
REMARK    3  A    between atoms: C_11  and  C_12
REMARK                            x       y       z     vdW  Elec       q    Type
REMARK                         _______ _______ _______ _____ _____    ______ ____
ROOT
ATOM      1  N   UNL     1      34.664 -14.777 -23.356  0.00  0.00    -0.226 NA
ATOM      2  C   UNL     1      34.828 -16.925 -22.285  0.00  0.00    +0.170 C 
ATOM      3  C   UNL     1      34.900 -16.107 -23.393  0.00  0.00    +0.160 C 
ATOM      4  C   UNL     1      34.496 -16.366 -21.063  0.00  0.00    +0.041 C 
ATOM      5  C   UNL     1      34.246 -15.000 -20.986  0.00  0.00    +0.024 C 
ATOM      6  C   UNL     1      34.343 -14.256 -22.151  0.00  0.00    +0.101 C 
ATOM      7  N   UNL     1      35.242 -16.690 -24.639  0.00  0.00    -0.340 N 
ATOM      8  H   UNL     1      35.300 -16.128 -25.445  0.00  0.00    +0.144 HD
ATOM      9  H   UNL     1      35.420 -17.656 -24.698  0.00  0.00    +0.144 HD
ENDROOT
BRANCH   2  10
ATOM     10  O   UNL     1      35.076 -18.271 -22.363  0.00  0.00    -0.468 OA
BRANCH  10  11
ATOM     11  C   UNL     1      35.953 -18.819 -21.387  0.00  0.00    +0.232 C 
BRANCH  11  12
ATOM     12  C   UNL     1      35.249 -19.906 -20.644  0.00  0.00    +0.021 C 
ATOM     13  C   UNL     1      35.985 -20.859 -19.940  0.00  0.00    -0.001 C 
ATOM     14  C   UNL     1      33.856 -19.967 -20.653  0.00  0.00    -0.001 C 
ATOM     15  C   UNL     1      35.327 -21.875 -19.247  0.00  0.00    -0.000 C 
ATOM     16  C   UNL     1      33.198 -20.982 -19.958  0.00  0.00    -0.000 C 
ATOM     17  C   UNL     1      33.934 -21.936 -19.256  0.00  0.00    -0.000 C 
ENDBRANCH  11  12
ENDBRANCH  10  11
ENDBRANCH   2  10
TORSDOF 3
ENDMDL
MODEL 3
REMARK VINA RESULT:      -8.4      1.202      2.056
REMARK  Name = 90334
REMARK  3 active torsions:
REMARK  status: ('A' for Active; 'I' for Inactive)
REMARK    1  A    between atoms: C_2  and  O_10
REMARK    2  A    between atoms: O_10  and  C_11
REMARK    3  A    between atoms: C_11  and  C_12
REMARK                            x       y       z     vdW  Elec       q    Type
REMARK                         _______ _______ _______ _____ _____    ______ ____
ROOT
ATOM      1  N   UNL     1      33.800 -14.965 -23.901  0.00  0.00    -0.226 NA
ATOM      2  C   UNL     1      34.865 -16.811 -22.784  0.00  0.00    +0.170 C 
ATOM      3  C   UNL     1      34.306 -15.550 -22.793  0.00  0.00    +0.160 C 
ATOM      4  C   UNL     1      34.918 -17.526 -23.968  0.00  0.00    +0.041 C 
ATOM      5  C   UNL     1      34.406 -16.956 -25.129  0.00  0.00    +0.024 C 
ATOM      6  C   UNL     1      33.863 -15.685 -25.043  0.00  0.00    +0.101 C 
ATOM      7  N   UNL     1      34.256 -14.827 -21.575  0.00  0.00    -0.340 N 
ATOM      8  H   UNL     1      33.862 -13.925 -21.554  0.00  0.00    +0.144 HD
ATOM      9  H   UNL     1      34.616 -15.226 -20.750  0.00  0.00    +0.144 HD
ENDROOT
BRANCH   2  10
ATOM     10  O   UNL     1      35.366 -17.371 -21.637  0.00  0.00    -0.468 OA
BRANCH  10  11
ATOM     11  C   UNL     1      35.921 -18.676 -21.751  0.00  0.00    +0.232 C 
BRANCH  11  12
ATOM     12  C   UNL     1      35.089 -19.636 -20.968  0.00  0.00    +0.021 C 
ATOM     13  C   UNL     1      33.699 -19.511 -20.962  0.00  0.00    -0.001 C 
ATOM     14  C   UNL     1      35.701 -20.659 -20.244  0.00  0.00    -0.001 C 
ATOM     15  C   UNL     1      32.923 -20.408 -20.230  0.00  0.00    -0.000 C 
ATOM     16  C   UNL     1      34.923 -21.557 -19.513  0.00  0.00    -0.000 C 
ATOM     17  C   UNL     1      33.534 -21.431 -19.505  0.00  0.00    -0.000 C 
ENDBRANCH  11  12
ENDBRANCH  10  11
ENDBRANCH   2  10
TORSDOF 3
ENDMDL
MODEL 4
REMARK VINA RESULT:      -8.2      5.261      7.780
REMARK  Name = 90334
REMARK  3 active torsions:
REMARK  status: ('A' for Active; 'I' for Inactive)
REMARK    1  A    between atoms: C_2  and  O_10
REMARK    2  A    between atoms: O_10  and  C_11
REMARK    3  A    between atoms: C_11  and  C_12
REMARK                            x       y       z     vdW  Elec       q    Type
REMARK                         _______ _______ _______ _____ _____    ______ ____
ROOT
ATOM      1  N   UNL     1      31.089 -23.473 -14.864  0.00  0.00    -0.226 NA
ATOM      2  C   UNL     1      32.441 -23.034 -16.806  0.00  0.00    +0.170 C 
ATOM      3  C   UNL     1      31.229 -23.083 -16.151  0.00  0.00    +0.160 C 
ATOM      4  C   UNL     1      33.585 -23.404 -16.119  0.00  0.00    +0.041 C 
ATOM      5  C   UNL     1      33.481 -23.810 -14.793  0.00  0.00    +0.024 C 
ATOM      6  C   UNL     1      32.221 -23.827 -14.217  0.00  0.00    +0.101 C 
ATOM      7  N   UNL     1      30.063 -22.703 -16.863  0.00  0.00    -0.340 N 
ATOM      8  H   UNL     1      29.185 -22.729 -16.418  0.00  0.00    +0.144 HD
ATOM      9  H   UNL     1      30.132 -22.414 -17.801  0.00  0.00    +0.144 HD
ENDROOT
BRANCH   2  10
ATOM     10  O   UNL     1      32.541 -22.632 -18.112  0.00  0.00    -0.468 OA
BRANCH  10  11
ATOM     11  C   UNL     1      33.832 -22.696 -18.705  0.00  0.00    +0.232 C 
BRANCH  11  12
ATOM     12  C   UNL     1      34.043 -21.494 -19.563  0.00  0.00    +0.021 C 
ATOM     13  C   UNL     1      32.949 -20.738 -19.984  0.00  0.00    -0.001 C 
ATOM     14  C   UNL     1      35.333 -21.125 -19.943  0.00  0.00    -0.001 C 
ATOM     15  C   UNL     1      33.146 -19.614 -20.786  0.00  0.00    -0.000 C 
ATOM     16  C   UNL     1      35.530 -20.000 -20.744  0.00  0.00    -0.000 C 
ATOM     17  C   UNL     1      34.435 -19.245 -21.167  0.00  0.00    -0.000 C 
ENDBRANCH  11  12
ENDBRANCH  10  11
ENDBRANCH   2  10
TORSDOF 3
ENDMDL
MODEL 5
REMARK VINA RESULT:      -8.2      2.760      5.827
REMARK  Name = 90334
REMARK  3 active torsions:
REMARK  status: ('A' for Active; 'I' for Inactive)
REMARK    1  A    between atoms: C_2  and  O_10
REMARK    2  A    between atoms: O_10  and  C_11
REMARK    3  A    between atoms: C_11  and  C_12
REMARK                            x       y       z     vdW  Elec       q    Type
REMARK                         _______ _______ _______ _____ _____    ______ ____
ROOT
ATOM      1  N   UNL     1      33.005 -21.867 -19.691  0.00  0.00    -0.226 NA
ATOM      2  C   UNL     1      34.620 -20.154 -20.191  0.00  0.00    +0.170 C 
ATOM      3  C   UNL     1      33.330 -20.640 -20.157  0.00  0.00    +0.160 C 
ATOM      4  C   UNL     1      35.647 -20.957 -19.728  0.00  0.00    +0.041 C 
ATOM      5  C   UNL     1      35.352 -22.226 -19.241  0.00  0.00    +0.024 C 
ATOM      6  C   UNL     1      34.028 -22.630 -19.244  0.00  0.00    +0.101 C 
ATOM      7  N   UNL     1      32.284 -19.810 -20.633  0.00  0.00    -0.340 N 
ATOM      8  H   UNL     1      31.354 -20.133 -20.619  0.00  0.00    +0.144 HD
ATOM      9  H   UNL     1      32.488 -18.911 -20.978  0.00  0.00    +0.144 HD
ENDROOT
BRANCH   2  10
ATOM     10  O   UNL     1      34.908 -18.903 -20.671  0.00  0.00    -0.468 OA
BRANCH  10  11
ATOM     11  C   UNL     1      35.924 -18.814 -21.661  0.00  0.00    +0.232 C 
BRANCH  11  12
ATOM     12  C   UNL     1      35.366 -18.173 -22.887  0.00  0.00    +0.021 C 
ATOM     13  C   UNL     1      34.918 -18.963 -23.946  0.00  0.00    -0.001 C 
ATOM     14  C   UNL     1      35.289 -16.782 -22.973  0.00  0.00    -0.001 C 
ATOM     15  C   UNL     1      34.397 -18.362 -25.092  0.00  0.00    -0.000 C 
ATOM     16  C   UNL     1      34.766 -16.182 -24.119  0.00  0.00    -0.000 C 
ATOM     17  C   UNL     1      34.320 -16.972 -25.178  0.00  0.00    -0.000 C 
ENDBRANCH  11  12
ENDBRANCH  10  11
ENDBRANCH   2  10
TORSDOF 3
ENDMDL
MODEL 6
REMARK VINA RESULT:      -8.0      1.711      2.547
REMARK  Name = 90334
REMARK  3 active torsions:
REMARK  status: ('A' for Active; 'I' for Inactive)
REMARK    1  A    between atoms: C_2  and  O_10
REMARK    2  A    between atoms: O_10  and  C_11
REMARK    3  A    between atoms: C_11  and  C_12
REMARK                            x       y       z     vdW  Elec       q    Type
REMARK                         _______ _______ _______ _____ _____    ______ ____
ROOT
ATOM      1  N   UNL     1      33.479 -16.060 -26.055  0.00  0.00    -0.226 NA
ATOM      2  C   UNL     1      34.540 -15.968 -23.897  0.00  0.00    +0.170 C 
ATOM      3  C   UNL     1      34.219 -16.617 -25.071  0.00  0.00    +0.160 C 
ATOM      4  C   UNL     1      34.084 -14.676 -23.704  0.00  0.00    +0.041 C 
ATOM      5  C   UNL     1      33.320 -14.069 -24.696  0.00  0.00    +0.024 C 
ATOM      6  C   UNL     1      33.048 -14.797 -25.842  0.00  0.00    +0.101 C 
ATOM      7  N   UNL     1      34.691 -17.940 -25.258  0.00  0.00    -0.340 N 
ATOM      8  H   UNL     1      34.476 -18.426 -26.088  0.00  0.00    +0.144 HD
ATOM      9  H   UNL     1      35.233 -18.374 -24.560  0.00  0.00    +0.144 HD
ENDROOT
BRANCH   2  10
ATOM     10  O   UNL     1      35.293 -16.568 -22.922  0.00  0.00    -0.468 OA
BRANCH  10  11
ATOM     11  C   UNL     1      34.687 -16.716 -21.644  0.00  0.00    +0.232 C 
BRANCH  11  12
ATOM     12  C   UNL     1      34.811 -18.135 -21.200  0.00  0.00    +0.021 C 
ATOM     13  C   UNL     1      33.664 -18.889 -20.948  0.00  0.00    -0.001 C 
ATOM     14  C   UNL     1      36.072 -18.709 -21.039  0.00  0.00    -0.001 C 
ATOM     15  C   UNL     1      33.780 -20.216 -20.533  0.00  0.00    -0.000 C 
ATOM     16  C   UNL     1      36.187 -20.036 -20.625  0.00  0.00    -0.000 C 
ATOM     17  C   UNL     1      35.041 -20.789 -20.371  0.00  0.00    -0.000 C 
ENDBRANCH  11  12
ENDBRANCH  10  11
ENDBRANCH   2  10
TORSDOF 3
ENDMDL
MODEL 7
REMARK VINA RESULT:      -8.0      2.513      5.902
REMARK  Name = 90334
REMARK  3 active torsions:
REMARK  status: ('A' for Active; 'I' for Inactive)
REMARK    1  A    between atoms: C_2  and  O_10
REMARK    2  A    between atoms: O_10  and  C_11
REMARK    3  A    between atoms: C_11  and  C_12
REMARK                            x       y       z     vdW  Elec       q    Type
REMARK                         _______ _______ _______ _____ _____    ______ ____
ROOT
ATOM      1  N   UNL     1      33.051 -21.580 -19.267  0.00  0.00    -0.226 NA
ATOM      2  C   UNL     1      34.605 -20.279 -20.565  0.00  0.00    +0.170 C 
ATOM      3  C   UNL     1      33.327 -20.609 -20.167  0.00  0.00    +0.160 C 
ATOM      4  C   UNL     1      35.673 -20.974 -20.023  0.00  0.00    +0.041 C 
ATOM      5  C   UNL     1      35.428 -21.980 -19.094  0.00  0.00    +0.024 C 
ATOM      6  C   UNL     1      34.112 -22.242 -18.753  0.00  0.00    +0.101 C 
ATOM      7  N   UNL     1      32.241 -19.892 -20.727  0.00  0.00    -0.340 N 
ATOM      8  H   UNL     1      31.318 -20.108 -20.460  0.00  0.00    +0.144 HD
ATOM      9  H   UNL     1      32.409 -19.178 -21.385  0.00  0.00    +0.144 HD
ENDROOT
BRANCH   2  10
ATOM     10  O   UNL     1      34.843 -19.287 -21.480  0.00  0.00    -0.468 OA
BRANCH  10  11
ATOM     11  C   UNL     1      35.689 -18.221 -21.064  0.00  0.00    +0.232 C 
BRANCH  11  12
ATOM     12  C   UNL     1      35.165 -16.934 -21.607  0.00  0.00    +0.021 C 
ATOM     13  C   UNL     1      35.107 -16.731 -22.986  0.00  0.00    -0.001 C 
ATOM     14  C   UNL     1      34.731 -15.935 -20.736  0.00  0.00    -0.001 C 
ATOM     15  C   UNL     1      34.618 -15.527 -23.493  0.00  0.00    -0.000 C 
ATOM     16  C   UNL     1      34.240 -14.731 -21.244  0.00  0.00    -0.000 C 
ATOM     17  C   UNL     1      34.184 -14.528 -22.623  0.00  0.00    -0.000 C 
ENDBRANCH  11  12
ENDBRANCH  10  11
ENDBRANCH   2  10
TORSDOF 3
ENDMDL
MODEL 8
REMARK VINA RESULT:      -7.9      5.136      7.759
REMARK  Name = 90334
REMARK  3 active torsions:
REMARK  status: ('A' for Active; 'I' for Inactive)
REMARK    1  A    between atoms: C_2  and  O_10
REMARK    2  A    between atoms: O_10  and  C_11
REMARK    3  A    between atoms: C_11  and  C_12
REMARK                            x       y       z     vdW  Elec       q    Type
REMARK                         _______ _______ _______ _____ _____    ______ ____
ROOT
ATOM      1  N   UNL     1      36.529 -23.564 -14.382  0.00  0.00    -0.226 NA
ATOM      2  C   UNL     1      35.465 -22.885 -16.431  0.00  0.00    +0.170 C 
ATOM      3  C   UNL     1      36.581 -23.097 -15.649  0.00  0.00    +0.160 C 
ATOM      4  C   UNL     1      34.217 -23.161 -15.900  0.00  0.00    +0.041 C 
ATOM      5  C   UNL     1      34.123 -23.644 -14.599  0.00  0.00    +0.024 C 
ATOM      6  C   UNL     1      35.298 -23.827 -13.889  0.00  0.00    +0.101 C 
ATOM      7  N   UNL     1      37.855 -22.811 -16.202  0.00  0.00    -0.340 N 
ATOM      8  H   UNL     1      38.668 -22.953 -15.665  0.00  0.00    +0.144 HD
ATOM      9  H   UNL     1      37.926 -22.470 -17.123  0.00  0.00    +0.144 HD
ENDROOT
BRANCH   2  10
ATOM     10  O   UNL     1      35.561 -22.411 -17.713  0.00  0.00    -0.468 OA
BRANCH  10  11
ATOM     11  C   UNL     1      34.419 -22.578 -18.545  0.00  0.00    +0.232 C 
BRANCH  11  12
ATOM     12  C   UNL     1      34.326 -21.431 -19.494  0.00  0.00    +0.021 C 
ATOM     13  C   UNL     1      35.486 -20.890 -20.050  0.00  0.00    -0.001 C 
ATOM     14  C   UNL     1      33.080 -20.900 -19.828  0.00  0.00    -0.001 C 
ATOM     15  C   UNL     1      35.399 -19.817 -20.937  0.00  0.00    -0.000 C 
ATOM     16  C   UNL     1      32.993 -19.828 -20.716  0.00  0.00    -0.000 C 
ATOM     17  C   UNL     1      34.153 -19.286 -21.270  0.00  0.00    -0.000 C 
ENDBRANCH  11  12
ENDBRANCH  10  11
ENDBRANCH   2  10
TORSDOF 3
ENDMDL
MODEL 9
REMARK VINA RESULT:      -7.8      1.835      2.475
REMARK  Name = 90334
REMARK  3 active torsions:
REMARK  status: ('A' for Active; 'I' for Inactive)
REMARK    1  A    between atoms: C_2  and  O_10
REMARK    2  A    between atoms: O_10  and  C_11
REMARK    3  A    between atoms: C_11  and  C_12
REMARK                            x       y       z     vdW  Elec       q    Type
REMARK                         _______ _______ _______ _____ _____    ______ ____
ROOT
ATOM      1  N   UNL     1      32.369 -13.745 -22.164  0.00  0.00    -0.226 NA
ATOM      2  C   UNL     1      34.006 -15.501 -22.000  0.00  0.00    +0.170 C 
ATOM      3  C   UNL     1      33.003 -14.717 -21.471  0.00  0.00    +0.160 C 
ATOM      4  C   UNL     1      34.396 -15.291 -23.311  0.00  0.00    +0.041 C 
ATOM      5  C   UNL     1      33.766 -14.300 -24.057  0.00  0.00    +0.024 C 
ATOM      6  C   UNL     1      32.768 -13.561 -23.443  0.00  0.00    +0.101 C 
ATOM      7  N   UNL     1      32.611 -14.941 -20.127  0.00  0.00    -0.340 N 
ATOM      8  H   UNL     1      31.897 -14.394 -19.725  0.00  0.00    +0.144 HD
ATOM      9  H   UNL     1      33.053 -15.642 -19.596  0.00  0.00    +0.144 HD
ENDROOT
BRANCH   2  10
ATOM     10  O   UNL     1      34.624 -16.478 -21.263  0.00  0.00    -0.468 OA
BRANCH  10  11
ATOM     11  C   UNL     1      35.082 -17.623 -21.973  0.00  0.00    +0.232 C 
BRANCH  11  12
ATOM     12  C   UNL     1      34.693 -18.855 -21.227  0.00  0.00    +0.021 C 
ATOM     13  C   UNL     1      33.347 -19.123 -20.975  0.00  0.00    -0.001 C 
ATOM     14  C   UNL     1      35.675 -19.741 -20.783  0.00  0.00    -0.001 C 
ATOM     15  C   UNL     1      32.984 -20.274 -20.277  0.00  0.00    -0.000 C 
ATOM     16  C   UNL     1      35.311 -20.893 -20.086  0.00  0.00    -0.000 C 
ATOM     17  C   UNL     1      33.966 -21.160 -19.833  0.00  0.00    -0.000 C 
ENDBRANCH  11  12
ENDBRANCH  10  11
ENDBRANCH   2  10
TORSDOF 3
ENDMDL
