MODEL 1
REMARK VINA RESULT:      -3.2      0.000      0.000
REMARK  Name = 178
REMARK  0 active torsions:
REMARK  status: ('A' for Active; 'I' for Inactive)
REMARK                            x       y       z     vdW  Elec       q    Type
REMARK                         _______ _______ _______ _____ _____    ______ ____
ROOT
ATOM      1  O   UNL     1      27.674 -23.987 -17.604  0.00  0.00    -0.275 OA
ATOM      2  N   UNL     1      29.461 -22.705 -16.925  0.00  0.00    -0.329 N 
ATOM      3  C   UNL     1      27.313 -22.361 -15.884  0.00  0.00    +0.094 C 
ATOM      4  C   UNL     1      28.144 -23.101 -16.895  0.00  0.00    +0.220 C 
ATOM      5  H   UNL     1      30.088 -23.130 -17.555  0.00  0.00    +0.145 HD
ATOM      6  H   UNL     1      29.776 -21.997 -16.320  0.00  0.00    +0.145 HD
ENDROOT
TORSDOF 0
ENDMDL
MODEL 2
REMARK VINA RESULT:      -3.1      9.386      9.583
REMARK  Name = 178
REMARK  0 active torsions:
REMARK  status: ('A' for Active; 'I' for Inactive)
REMARK                            x       y       z     vdW  Elec       q    Type
REMARK                         _______ _______ _______ _____ _____    ______ ____
ROOT
ATOM      1  O   UNL     1      36.695 -27.370 -16.254  0.00  0.00    -0.275 OA
ATOM      2  N   UNL     1      37.789 -26.964 -14.270  0.00  0.00    -0.329 N 
ATOM      3  C   UNL     1      36.041 -25.457 -14.972  0.00  0.00    +0.094 C 
ATOM      4  C   UNL     1      36.864 -26.685 -15.249  0.00  0.00    +0.220 C 
ATOM      5  H   UNL     1      38.378 -27.748 -14.360  0.00  0.00    +0.145 HD
ATOM      6  H   UNL     1      37.863 -26.380 -13.482  0.00  0.00    +0.145 HD
ENDROOT
TORSDOF 0
ENDMDL
MODEL 3
REMARK VINA RESULT:      -3.1     11.704     11.934
REMARK  Name = 178
REMARK  0 active torsions:
REMARK  status: ('A' for Active; 'I' for Inactive)
REMARK                            x       y       z     vdW  Elec       q    Type
REMARK                         _______ _______ _______ _____ _____    ______ ____
ROOT
ATOM      1  O   UNL     1      34.595 -16.805 -25.885  0.00  0.00    -0.275 OA
ATOM      2  N   UNL     1      35.417 -16.504 -23.756  0.00  0.00    -0.329 N 
ATOM      3  C   UNL     1      34.624 -18.687 -24.405  0.00  0.00    +0.094 C 
ATOM      4  C   UNL     1      34.862 -17.248 -24.771  0.00  0.00    +0.220 C 
ATOM      5  H   UNL     1      35.611 -15.548 -23.897  0.00  0.00    +0.145 HD
ATOM      6  H   UNL     1      35.619 -16.924 -22.890  0.00  0.00    +0.145 HD
ENDROOT
TORSDOF 0
ENDMDL
MODEL 4
REMARK VINA RESULT:      -3.1     10.296     10.296
REMARK  Name = 178
REMARK  0 active torsions:
REMARK  status: ('A' for Active; 'I' for Inactive)
REMARK                            x       y       z     vdW  Elec       q    Type
REMARK                         _______ _______ _______ _____ _____    ______ ____
ROOT
ATOM      1  O   UNL     1      38.403 -27.158 -14.748  0.00  0.00    -0.275 OA
ATOM      2  N   UNL     1      36.140 -26.817 -14.998  0.00  0.00    -0.329 N 
ATOM      3  C   UNL     1      37.198 -26.172 -12.929  0.00  0.00    +0.094 C 
ATOM      4  C   UNL     1      37.326 -26.770 -14.302  0.00  0.00    +0.220 C 
ATOM      5  H   UNL     1      36.119 -27.192 -15.908  0.00  0.00    +0.145 HD
ATOM      6  H   UNL     1      35.314 -26.477 -14.586  0.00  0.00    +0.145 HD
ENDROOT
TORSDOF 0
ENDMDL
MODEL 5
REMARK VINA RESULT:      -3.1     15.913     15.980
REMARK  Name = 178
REMARK  0 active torsions:
REMARK  status: ('A' for Active; 'I' for Inactive)
REMARK                            x       y       z     vdW  Elec       q    Type
REMARK                         _______ _______ _______ _____ _____    ______ ____
ROOT
ATOM      1  O   UNL     1      40.743 -15.243 -14.625  0.00  0.00    -0.275 OA
ATOM      2  N   UNL     1      40.615 -13.117 -13.752  0.00  0.00    -0.329 N 
ATOM      3  C   UNL     1      41.717 -13.445 -15.872  0.00  0.00    +0.094 C 
ATOM      4  C   UNL     1      40.988 -14.041 -14.700  0.00  0.00    +0.220 C 
ATOM      5  H   UNL     1      40.132 -13.409 -12.945  0.00  0.00    +0.145 HD
ATOM      6  H   UNL     1      40.831 -12.166 -13.880  0.00  0.00    +0.145 HD
ENDROOT
TORSDOF 0
ENDMDL
MODEL 6
REMARK VINA RESULT:      -3.0      6.791      6.794
REMARK  Name = 178
REMARK  0 active torsions:
REMARK  status: ('A' for Active; 'I' for Inactive)
REMARK                            x       y       z     vdW  Elec       q    Type
REMARK                         _______ _______ _______ _____ _____    ______ ____
ROOT
ATOM      1  O   UNL     1      34.868 -20.934 -19.780  0.00  0.00    -0.275 OA
ATOM      2  N   UNL     1      32.912 -22.037 -19.276  0.00  0.00    -0.329 N 
ATOM      3  C   UNL     1      32.807 -20.002 -20.567  0.00  0.00    +0.094 C 
ATOM      4  C   UNL     1      33.643 -21.017 -19.838  0.00  0.00    +0.220 C 
ATOM      5  H   UNL     1      33.368 -22.752 -18.776  0.00  0.00    +0.145 HD
ATOM      6  H   UNL     1      31.932 -22.051 -19.371  0.00  0.00    +0.145 HD
ENDROOT
TORSDOF 0
ENDMDL
MODEL 7
REMARK VINA RESULT:      -3.0      9.463      9.544
REMARK  Name = 178
REMARK  0 active torsions:
REMARK  status: ('A' for Active; 'I' for Inactive)
REMARK                            x       y       z     vdW  Elec       q    Type
REMARK                         _______ _______ _______ _____ _____    ______ ____
ROOT
ATOM      1  O   UNL     1      35.327 -25.053 -10.363  0.00  0.00    -0.275 OA
ATOM      2  N   UNL     1      35.101 -24.822 -12.641  0.00  0.00    -0.329 N 
ATOM      3  C   UNL     1      36.728 -23.469 -11.485  0.00  0.00    +0.094 C 
ATOM      4  C   UNL     1      35.653 -24.518 -11.419  0.00  0.00    +0.220 C 
ATOM      5  H   UNL     1      34.387 -25.498 -12.704  0.00  0.00    +0.145 HD
ATOM      6  H   UNL     1      35.417 -24.365 -13.453  0.00  0.00    +0.145 HD
ENDROOT
TORSDOF 0
ENDMDL
MODEL 8
REMARK VINA RESULT:      -3.0     15.304     15.396
REMARK  Name = 178
REMARK  0 active torsions:
REMARK  status: ('A' for Active; 'I' for Inactive)
REMARK                            x       y       z     vdW  Elec       q    Type
REMARK                         _______ _______ _______ _____ _____    ______ ____
ROOT
ATOM      1  O   UNL     1      42.466 -16.560 -15.835  0.00  0.00    -0.275 OA
ATOM      2  N   UNL     1      40.535 -15.490 -15.185  0.00  0.00    -0.329 N 
ATOM      3  C   UNL     1      41.502 -14.956 -17.329  0.00  0.00    +0.094 C 
ATOM      4  C   UNL     1      41.570 -15.749 -16.053  0.00  0.00    +0.220 C 
ATOM      5  H   UNL     1      40.490 -15.959 -14.320  0.00  0.00    +0.145 HD
ATOM      6  H   UNL     1      39.841 -14.836 -15.427  0.00  0.00    +0.145 HD
ENDROOT
TORSDOF 0
ENDMDL
MODEL 9
REMARK VINA RESULT:      -3.0     10.527     10.710
REMARK  Name = 178
REMARK  0 active torsions:
REMARK  status: ('A' for Active; 'I' for Inactive)
REMARK                            x       y       z     vdW  Elec       q    Type
REMARK                         _______ _______ _______ _____ _____    ______ ____
ROOT
ATOM      1  O   UNL     1      36.747 -26.030 -11.719  0.00  0.00    -0.275 OA
ATOM      2  N   UNL     1      36.849 -26.944 -13.829  0.00  0.00    -0.329 N 
ATOM      3  C   UNL     1      38.621 -25.478 -13.103  0.00  0.00    +0.094 C 
ATOM      4  C   UNL     1      37.316 -26.160 -12.800  0.00  0.00    +0.220 C 
ATOM      5  H   UNL     1      35.999 -27.433 -13.728  0.00  0.00    +0.145 HD
ATOM      6  H   UNL     1      37.361 -27.015 -14.666  0.00  0.00    +0.145 HD
ENDROOT
TORSDOF 0
ENDMDL
