MODEL 1
REMARK VINA RESULT:      -6.5      0.000      0.000
REMARK  Name = 10668
REMARK  4 active torsions:
REMARK  status: ('A' for Active; 'I' for Inactive)
REMARK    1  A    between atoms: C_1  and  C_13
REMARK    2  A    between atoms: C_2  and  C_4
REMARK    3  A    between atoms: C_2  and  C_9
REMARK    4  A    between atoms: C_13  and  N_15
REMARK                            x       y       z     vdW  Elec       q    Type
REMARK                         _______ _______ _______ _____ _____    ______ ____
ROOT
ATOM      1  C   UNL     1      33.083 -23.318 -16.067  0.00  0.00    -0.046 C 
ATOM      2  C   UNL     1      34.430 -23.236 -16.153  0.00  0.00    +0.006 C 
ENDROOT
BRANCH   2   4
ATOM      3  S   UNL     1      34.149 -22.456 -18.724  0.00  0.00    -0.086 S 
ATOM      4  C   UNL     1      35.044 -22.599 -17.286  0.00  0.00    +0.030 C 
ATOM      5  C   UNL     1      36.298 -22.073 -17.367  0.00  0.00    +0.007 C 
ATOM      6  C   UNL     1      36.544 -21.526 -18.660  0.00  0.00    +0.007 C 
ATOM      7  C   UNL     1      35.458 -21.667 -19.496  0.00  0.00    +0.035 C 
ENDBRANCH   2   4
BRANCH   2   9
ATOM      8  S   UNL     1      35.737 -25.407 -15.216  0.00  0.00    -0.086 S 
ATOM      9  C   UNL     1      35.204 -23.801 -15.076  0.00  0.00    +0.030 C 
ATOM     10  C   UNL     1      35.581 -23.194 -13.919  0.00  0.00    +0.007 C 
ATOM     11  C   UNL     1      36.341 -24.079 -13.101  0.00  0.00    +0.007 C 
ATOM     12  C   UNL     1      36.502 -25.316 -13.686  0.00  0.00    +0.035 C 
ENDBRANCH   2   9
BRANCH   1  13
ATOM     13  C   UNL     1      32.253 -23.942 -14.968  0.00  0.00    -0.035 C 
ATOM     14  C   UNL     1      31.924 -22.905 -13.894  0.00  0.00    -0.018 C 
BRANCH  13  15
ATOM     15  N   UNL     1      31.011 -24.497 -15.520  0.00  0.00    +0.388 N 
ATOM     16  C   UNL     1      30.193 -23.433 -16.097  0.00  0.00    -0.100 C 
ATOM     17  C   UNL     1      30.271 -25.211 -14.483  0.00  0.00    -0.100 C 
ATOM     18  H   UNL     1      31.248 -25.158 -16.259  0.00  0.00    -0.079 HD
ENDBRANCH  13  15
ENDBRANCH   1  13
TORSDOF 4
ENDMDL
MODEL 2
REMARK VINA RESULT:      -6.1     14.012     16.970
REMARK  Name = 10668
REMARK  4 active torsions:
REMARK  status: ('A' for Active; 'I' for Inactive)
REMARK    1  A    between atoms: C_1  and  C_13
REMARK    2  A    between atoms: C_2  and  C_4
REMARK    3  A    between atoms: C_2  and  C_9
REMARK    4  A    between atoms: C_13  and  N_15
REMARK                            x       y       z     vdW  Elec       q    Type
REMARK                         _______ _______ _______ _____ _____    ______ ____
ROOT
ATOM      1  C   UNL     1      33.390  -9.878 -23.052  0.00  0.00    -0.046 C 
ATOM      2  C   UNL     1      32.422  -9.202 -22.393  0.00  0.00    +0.006 C 
ENDROOT
BRANCH   2   4
ATOM      3  S   UNL     1      30.915 -11.106 -21.209  0.00  0.00    -0.086 S 
ATOM      4  C   UNL     1      31.893  -9.717 -21.159  0.00  0.00    +0.030 C 
ATOM      5  C   UNL     1      32.078  -9.223 -19.904  0.00  0.00    +0.007 C 
ATOM      6  C   UNL     1      31.391 -10.011 -18.935  0.00  0.00    +0.007 C 
ATOM      7  C   UNL     1      30.718 -11.066 -19.509  0.00  0.00    +0.035 C 
ENDBRANCH   2   4
BRANCH   2   9
ATOM      8  S   UNL     1      32.449  -6.504 -22.258  0.00  0.00    -0.086 S 
ATOM      9  C   UNL     1      31.958  -7.965 -22.971  0.00  0.00    +0.030 C 
ATOM     10  C   UNL     1      31.151  -7.807 -24.052  0.00  0.00    +0.007 C 
ATOM     11  C   UNL     1      30.916  -6.427 -24.319  0.00  0.00    +0.007 C 
ATOM     12  C   UNL     1      31.563  -5.609 -23.419  0.00  0.00    +0.035 C 
ENDBRANCH   2   9
BRANCH   1  13
ATOM     13  C   UNL     1      34.070  -9.508 -24.351  0.00  0.00    -0.035 C 
ATOM     14  C   UNL     1      35.001  -8.313 -24.143  0.00  0.00    -0.018 C 
BRANCH  13  15
ATOM     15  N   UNL     1      34.833 -10.648 -24.870  0.00  0.00    +0.388 N 
ATOM     16  C   UNL     1      35.585 -10.257 -26.059  0.00  0.00    -0.100 C 
ATOM     17  C   UNL     1      33.937 -11.762 -25.170  0.00  0.00    -0.100 C 
ATOM     18  H   UNL     1      35.495 -10.952 -24.155  0.00  0.00    -0.079 HD
ENDBRANCH  13  15
ENDBRANCH   1  13
TORSDOF 4
ENDMDL
MODEL 3
REMARK VINA RESULT:      -6.1     13.735     16.616
REMARK  Name = 10668
REMARK  4 active torsions:
REMARK  status: ('A' for Active; 'I' for Inactive)
REMARK    1  A    between atoms: C_1  and  C_13
REMARK    2  A    between atoms: C_2  and  C_4
REMARK    3  A    between atoms: C_2  and  C_9
REMARK    4  A    between atoms: C_13  and  N_15
REMARK                            x       y       z     vdW  Elec       q    Type
REMARK                         _______ _______ _______ _____ _____    ______ ____
ROOT
ATOM      1  C   UNL     1      33.125 -10.475 -23.328  0.00  0.00    -0.046 C 
ATOM      2  C   UNL     1      32.421  -9.559 -22.625  0.00  0.00    +0.006 C 
ENDROOT
BRANCH   2   4
ATOM      3  S   UNL     1      31.059 -11.280 -21.050  0.00  0.00    -0.086 S 
ATOM      4  C   UNL     1      31.966  -9.864 -21.296  0.00  0.00    +0.030 C 
ATOM      5  C   UNL     1      32.171  -9.142 -20.159  0.00  0.00    +0.007 C 
ATOM      6  C   UNL     1      31.563  -9.770 -19.034  0.00  0.00    +0.007 C 
ATOM      7  C   UNL     1      30.924 -10.940 -19.377  0.00  0.00    +0.035 C 
ENDBRANCH   2   4
BRANCH   2   9
ATOM      8  S   UNL     1      33.336  -7.071 -23.144  0.00  0.00    -0.086 S 
ATOM      9  C   UNL     1      32.159  -8.290 -23.255  0.00  0.00    +0.030 C 
ATOM     10  C   UNL     1      31.052  -7.924 -23.954  0.00  0.00    +0.007 C 
ATOM     11  C   UNL     1      31.163  -6.583 -24.425  0.00  0.00    +0.007 C 
ATOM     12  C   UNL     1      32.356  -6.002 -24.055  0.00  0.00    +0.035 C 
ENDBRANCH   2   9
BRANCH   1  13
ATOM     13  C   UNL     1      33.687 -10.349 -24.727  0.00  0.00    -0.035 C 
ATOM     14  C   UNL     1      35.151  -9.911 -24.675  0.00  0.00    -0.018 C 
BRANCH  13  15
ATOM     15  N   UNL     1      33.576 -11.627 -25.438  0.00  0.00    +0.388 N 
ATOM     16  C   UNL     1      33.693 -12.741 -24.500  0.00  0.00    -0.100 C 
ATOM     17  C   UNL     1      34.598 -11.720 -26.477  0.00  0.00    -0.100 C 
ATOM     18  H   UNL     1      32.659 -11.675 -25.883  0.00  0.00    -0.079 HD
ENDBRANCH  13  15
ENDBRANCH   1  13
TORSDOF 4
ENDMDL
MODEL 4
REMARK VINA RESULT:      -6.1      2.098      5.273
REMARK  Name = 10668
REMARK  4 active torsions:
REMARK  status: ('A' for Active; 'I' for Inactive)
REMARK    1  A    between atoms: C_1  and  C_13
REMARK    2  A    between atoms: C_2  and  C_4
REMARK    3  A    between atoms: C_2  and  C_9
REMARK    4  A    between atoms: C_13  and  N_15
REMARK                            x       y       z     vdW  Elec       q    Type
REMARK                         _______ _______ _______ _____ _____    ______ ____
ROOT
ATOM      1  C   UNL     1      34.492 -24.289 -13.725  0.00  0.00    -0.046 C 
ATOM      2  C   UNL     1      33.760 -23.722 -14.710  0.00  0.00    +0.006 C 
ENDROOT
BRANCH   2   4
ATOM      3  S   UNL     1      31.506 -25.066 -14.069  0.00  0.00    -0.086 S 
ATOM      4  C   UNL     1      32.326 -23.679 -14.611  0.00  0.00    +0.030 C 
ATOM      5  C   UNL     1      31.501 -22.636 -14.905  0.00  0.00    +0.007 C 
ATOM      6  C   UNL     1      30.137 -22.979 -14.678  0.00  0.00    +0.007 C 
ATOM      7  C   UNL     1      29.997 -24.271 -14.223  0.00  0.00    +0.035 C 
ENDBRANCH   2   4
BRANCH   2   9
ATOM      8  S   UNL     1      33.736 -23.234 -17.367  0.00  0.00    -0.086 S 
ATOM      9  C   UNL     1      34.468 -23.169 -15.837  0.00  0.00    +0.030 C 
ATOM     10  C   UNL     1      35.692 -22.577 -15.837  0.00  0.00    +0.007 C 
ATOM     11  C   UNL     1      36.057 -22.155 -17.148  0.00  0.00    +0.007 C 
ATOM     12  C   UNL     1      35.083 -22.451 -18.077  0.00  0.00    +0.035 C 
ENDBRANCH   2   9
BRANCH   1  13
ATOM     13  C   UNL     1      35.995 -24.432 -13.642  0.00  0.00    -0.035 C 
ATOM     14  C   UNL     1      36.528 -23.741 -12.386  0.00  0.00    -0.018 C 
BRANCH  13  15
ATOM     15  N   UNL     1      36.372 -25.850 -13.627  0.00  0.00    +0.388 N 
ATOM     16  C   UNL     1      37.495 -26.067 -12.718  0.00  0.00    -0.100 C 
ATOM     17  C   UNL     1      36.707 -26.299 -14.976  0.00  0.00    -0.100 C 
ATOM     18  H   UNL     1      35.577 -26.396 -13.294  0.00  0.00    -0.079 HD
ENDBRANCH  13  15
ENDBRANCH   1  13
TORSDOF 4
ENDMDL
MODEL 5
REMARK VINA RESULT:      -6.1     14.424     16.724
REMARK  Name = 10668
REMARK  4 active torsions:
REMARK  status: ('A' for Active; 'I' for Inactive)
REMARK    1  A    between atoms: C_1  and  C_13
REMARK    2  A    between atoms: C_2  and  C_4
REMARK    3  A    between atoms: C_2  and  C_9
REMARK    4  A    between atoms: C_13  and  N_15
REMARK                            x       y       z     vdW  Elec       q    Type
REMARK                         _______ _______ _______ _____ _____    ______ ____
ROOT
ATOM      1  C   UNL     1      32.179  -7.625 -22.970  0.00  0.00    -0.046 C 
ATOM      2  C   UNL     1      32.557  -8.902 -22.733  0.00  0.00    +0.006 C 
ENDROOT
BRANCH   2   4
ATOM      3  S   UNL     1      34.831  -8.722 -24.180  0.00  0.00    -0.086 S 
ATOM      4  C   UNL     1      33.461  -9.566 -23.632  0.00  0.00    +0.030 C 
ATOM      5  C   UNL     1      33.367 -10.833 -24.124  0.00  0.00    +0.007 C 
ATOM      6  C   UNL     1      34.460 -11.132 -24.988  0.00  0.00    +0.007 C 
ATOM      7  C   UNL     1      35.330 -10.072 -25.107  0.00  0.00    +0.035 C 
ENDBRANCH   2   4
BRANCH   2   9
ATOM      8  S   UNL     1      30.900 -10.805 -21.767  0.00  0.00    -0.086 S 
ATOM      9  C   UNL     1      32.025  -9.550 -21.560  0.00  0.00    +0.030 C 
ATOM     10  C   UNL     1      32.318  -9.282 -20.261  0.00  0.00    +0.007 C 
ATOM     11  C   UNL     1      31.590 -10.138 -19.384  0.00  0.00    +0.007 C 
ATOM     12  C   UNL     1      30.780 -11.015 -20.072  0.00  0.00    +0.035 C 
ENDBRANCH   2   9
BRANCH   1  13
ATOM     13  C   UNL     1      31.246  -6.760 -22.153  0.00  0.00    -0.035 C 
ATOM     14  C   UNL     1      32.015  -6.050 -21.039  0.00  0.00    -0.018 C 
BRANCH  13  15
ATOM     15  N   UNL     1      30.587  -5.770 -23.012  0.00  0.00    +0.388 N 
ATOM     16  C   UNL     1      31.024  -5.929 -24.397  0.00  0.00    -0.100 C 
ATOM     17  C   UNL     1      30.869  -4.418 -22.535  0.00  0.00    -0.100 C 
ATOM     18  H   UNL     1      29.579  -5.921 -22.973  0.00  0.00    -0.079 HD
ENDBRANCH  13  15
ENDBRANCH   1  13
TORSDOF 4
ENDMDL
MODEL 6
REMARK VINA RESULT:      -6.0     14.582     17.197
REMARK  Name = 10668
REMARK  4 active torsions:
REMARK  status: ('A' for Active; 'I' for Inactive)
REMARK    1  A    between atoms: C_1  and  C_13
REMARK    2  A    between atoms: C_2  and  C_4
REMARK    3  A    between atoms: C_2  and  C_9
REMARK    4  A    between atoms: C_13  and  N_15
REMARK                            x       y       z     vdW  Elec       q    Type
REMARK                         _______ _______ _______ _____ _____    ______ ____
ROOT
ATOM      1  C   UNL     1      31.601  -7.632 -22.448  0.00  0.00    -0.046 C 
ATOM      2  C   UNL     1      32.250  -8.797 -22.222  0.00  0.00    +0.006 C 
ENDROOT
BRANCH   2   4
ATOM      3  S   UNL     1      31.198 -11.088 -21.252  0.00  0.00    -0.086 S 
ATOM      4  C   UNL     1      31.949  -9.576 -21.052  0.00  0.00    +0.030 C 
ATOM      5  C   UNL     1      32.194  -9.255 -19.752  0.00  0.00    +0.007 C 
ATOM      6  C   UNL     1      31.750 -10.287 -18.874  0.00  0.00    +0.007 C 
ATOM      7  C   UNL     1      31.188 -11.342 -19.559  0.00  0.00    +0.035 C 
ENDBRANCH   2   4
BRANCH   2   9
ATOM      8  S   UNL     1      34.550  -8.188 -23.501  0.00  0.00    -0.086 S 
ATOM      9  C   UNL     1      33.233  -9.213 -23.190  0.00  0.00    +0.030 C 
ATOM     10  C   UNL     1      33.247 -10.363 -23.915  0.00  0.00    +0.007 C 
ATOM     11  C   UNL     1      34.387 -10.416 -24.770  0.00  0.00    +0.007 C 
ATOM     12  C   UNL     1      35.180  -9.297 -24.645  0.00  0.00    +0.035 C 
ENDBRANCH   2   9
BRANCH   1  13
ATOM     13  C   UNL     1      31.772  -6.676 -23.608  0.00  0.00    -0.035 C 
ATOM     14  C   UNL     1      30.774  -7.003 -24.719  0.00  0.00    -0.018 C 
BRANCH  13  15
ATOM     15  N   UNL     1      31.581  -5.292 -23.159  0.00  0.00    +0.388 N 
ATOM     16  C   UNL     1      30.621  -5.243 -22.060  0.00  0.00    -0.100 C 
ATOM     17  C   UNL     1      31.135  -4.457 -24.271  0.00  0.00    -0.100 C 
ATOM     18  H   UNL     1      32.474  -4.931 -22.824  0.00  0.00    -0.079 HD
ENDBRANCH  13  15
ENDBRANCH   1  13
TORSDOF 4
ENDMDL
MODEL 7
REMARK VINA RESULT:      -6.0     13.864     16.249
REMARK  Name = 10668
REMARK  4 active torsions:
REMARK  status: ('A' for Active; 'I' for Inactive)
REMARK    1  A    between atoms: C_1  and  C_13
REMARK    2  A    between atoms: C_2  and  C_4
REMARK    3  A    between atoms: C_2  and  C_9
REMARK    4  A    between atoms: C_13  and  N_15
REMARK                            x       y       z     vdW  Elec       q    Type
REMARK                         _______ _______ _______ _____ _____    ______ ____
ROOT
ATOM      1  C   UNL     1      32.373 -10.385 -22.261  0.00  0.00    -0.046 C 
ATOM      2  C   UNL     1      32.857  -9.507 -23.168  0.00  0.00    +0.006 C 
ENDROOT
BRANCH   2   4
ATOM      3  S   UNL     1      33.508 -11.394 -24.988  0.00  0.00    -0.086 S 
ATOM      4  C   UNL     1      33.805  -9.941 -24.158  0.00  0.00    +0.030 C 
ATOM      5  C   UNL     1      34.956  -9.319 -24.538  0.00  0.00    +0.007 C 
ATOM      6  C   UNL     1      35.630 -10.059 -25.552  0.00  0.00    +0.007 C 
ATOM      7  C   UNL     1      34.952 -11.210 -25.890  0.00  0.00    +0.035 C 
ENDBRANCH   2   4
BRANCH   2   9
ATOM      8  S   UNL     1      30.914  -7.762 -23.859  0.00  0.00    -0.086 S 
ATOM      9  C   UNL     1      32.384  -8.147 -23.101  0.00  0.00    +0.030 C 
ATOM     10  C   UNL     1      32.980  -7.092 -22.487  0.00  0.00    +0.007 C 
ATOM     11  C   UNL     1      32.205  -5.905 -22.639  0.00  0.00    +0.007 C 
ATOM     12  C   UNL     1      31.055  -6.128 -23.364  0.00  0.00    +0.035 C 
ENDBRANCH   2   9
BRANCH   1  13
ATOM     13  C   UNL     1      31.379 -10.129 -21.150  0.00  0.00    -0.035 C 
ATOM     14  C   UNL     1      30.438 -11.323 -20.990  0.00  0.00    -0.018 C 
BRANCH  13  15
ATOM     15  N   UNL     1      32.081  -9.877 -19.887  0.00  0.00    +0.388 N 
ATOM     16  C   UNL     1      31.561 -10.746 -18.834  0.00  0.00    -0.100 C 
ATOM     17  C   UNL     1      31.950  -8.472 -19.506  0.00  0.00    -0.100 C 
ATOM     18  H   UNL     1      33.072 -10.083 -20.015  0.00  0.00    -0.079 HD
ENDBRANCH  13  15
ENDBRANCH   1  13
TORSDOF 4
ENDMDL
MODEL 8
REMARK VINA RESULT:      -5.9     10.520     13.630
REMARK  Name = 10668
REMARK  4 active torsions:
REMARK  status: ('A' for Active; 'I' for Inactive)
REMARK    1  A    between atoms: C_1  and  C_13
REMARK    2  A    between atoms: C_2  and  C_4
REMARK    3  A    between atoms: C_2  and  C_9
REMARK    4  A    between atoms: C_13  and  N_15
REMARK                            x       y       z     vdW  Elec       q    Type
REMARK                         _______ _______ _______ _____ _____    ______ ____
ROOT
ATOM      1  C   UNL     1      32.522 -12.714 -22.146  0.00  0.00    -0.046 C 
ATOM      2  C   UNL     1      33.297 -13.476 -22.951  0.00  0.00    +0.006 C 
ENDROOT
BRANCH   2   4
ATOM      3  S   UNL     1      33.874 -14.940 -20.755  0.00  0.00    -0.086 S 
ATOM      4  C   UNL     1      33.960 -14.639 -22.426  0.00  0.00    +0.030 C 
ATOM      5  C   UNL     1      34.677 -15.570 -23.113  0.00  0.00    +0.007 C 
ATOM      6  C   UNL     1      35.181 -16.578 -22.241  0.00  0.00    +0.007 C 
ATOM      7  C   UNL     1      34.819 -16.357 -20.931  0.00  0.00    +0.035 C 
ENDBRANCH   2   4
BRANCH   2   9
ATOM      8  S   UNL     1      32.741 -14.079 -25.525  0.00  0.00    -0.086 S 
ATOM      9  C   UNL     1      33.419 -13.080 -24.331  0.00  0.00    +0.030 C 
ATOM     10  C   UNL     1      34.027 -11.968 -24.824  0.00  0.00    +0.007 C 
ATOM     11  C   UNL     1      33.941 -11.924 -26.246  0.00  0.00    +0.007 C 
ATOM     12  C   UNL     1      33.266 -13.011 -26.757  0.00  0.00    +0.035 C 
ENDBRANCH   2   9
BRANCH   1  13
ATOM     13  C   UNL     1      31.748 -11.465 -22.503  0.00  0.00    -0.035 C 
ATOM     14  C   UNL     1      30.446 -11.398 -21.704  0.00  0.00    -0.018 C 
BRANCH  13  15
ATOM     15  N   UNL     1      32.557 -10.271 -22.236  0.00  0.00    +0.388 N 
ATOM     16  C   UNL     1      32.092  -9.604 -21.023  0.00  0.00    -0.100 C 
ATOM     17  C   UNL     1      32.507  -9.360 -23.376  0.00  0.00    -0.100 C 
ATOM     18  H   UNL     1      33.526 -10.557 -22.096  0.00  0.00    -0.079 HD
ENDBRANCH  13  15
ENDBRANCH   1  13
TORSDOF 4
ENDMDL
MODEL 9
REMARK VINA RESULT:      -5.9      2.247      4.352
REMARK  Name = 10668
REMARK  4 active torsions:
REMARK  status: ('A' for Active; 'I' for Inactive)
REMARK    1  A    between atoms: C_1  and  C_13
REMARK    2  A    between atoms: C_2  and  C_4
REMARK    3  A    between atoms: C_2  and  C_9
REMARK    4  A    between atoms: C_13  and  N_15
REMARK                            x       y       z     vdW  Elec       q    Type
REMARK                         _______ _______ _______ _____ _____    ______ ____
ROOT
ATOM      1  C   UNL     1      35.355 -23.989 -14.658  0.00  0.00    -0.046 C 
ATOM      2  C   UNL     1      34.209 -23.690 -15.312  0.00  0.00    +0.006 C 
ENDROOT
BRANCH   2   4
ATOM      3  S   UNL     1      35.683 -22.367 -17.150  0.00  0.00    -0.086 S 
ATOM      4  C   UNL     1      34.258 -23.142 -16.641  0.00  0.00    +0.030 C 
ATOM      5  C   UNL     1      33.277 -23.159 -17.585  0.00  0.00    +0.007 C 
ATOM      6  C   UNL     1      33.703 -22.513 -18.782  0.00  0.00    +0.007 C 
ATOM      7  C   UNL     1      34.991 -22.035 -18.681  0.00  0.00    +0.035 C 
ENDBRANCH   2   4
BRANCH   2   9
ATOM      8  S   UNL     1      31.960 -22.631 -14.256  0.00  0.00    -0.086 S 
ATOM      9  C   UNL     1      32.964 -23.947 -14.633  0.00  0.00    +0.030 C 
ATOM     10  C   UNL     1      32.467 -25.149 -14.239  0.00  0.00    +0.007 C 
ATOM     11  C   UNL     1      31.204 -24.996 -13.596  0.00  0.00    +0.007 C 
ATOM     12  C   UNL     1      30.810 -23.678 -13.538  0.00  0.00    +0.035 C 
ENDBRANCH   2   9
BRANCH   1  13
ATOM     13  C   UNL     1      35.514 -24.567 -13.270  0.00  0.00    -0.035 C 
ATOM     14  C   UNL     1      36.639 -25.602 -13.250  0.00  0.00    -0.018 C 
BRANCH  13  15
ATOM     15  N   UNL     1      35.803 -23.500 -12.304  0.00  0.00    +0.388 N 
ATOM     16  C   UNL     1      37.137 -22.953 -12.537  0.00  0.00    -0.100 C 
ATOM     17  C   UNL     1      35.686 -24.008 -10.940  0.00  0.00    -0.100 C 
ATOM     18  H   UNL     1      35.121 -22.752 -12.429  0.00  0.00    -0.079 HD
ENDBRANCH  13  15
ENDBRANCH   1  13
TORSDOF 4
ENDMDL
