MODEL 1
REMARK VINA RESULT:     -10.8      0.000      0.000
REMARK  Name = 119404
REMARK  3 active torsions:
REMARK  status: ('A' for Active; 'I' for Inactive)
REMARK    1  A    between atoms: CA_9  and  CB_13
REMARK    2  A    between atoms: CB_13  and  CG_14
REMARK    3  A    between atoms: CZ_19  and  OH_20
REMARK                            x       y       z     vdW  Elec       q    Type
REMARK                         _______ _______ _______ _____ _____    ______ ____
ROOT
ATOM      1  O   TYR A   2      35.129 -16.159 -20.618  0.00  0.00    -0.273 OA
ATOM      2  O   PRO A   1      34.937 -16.751 -25.881  0.00  0.00    -0.273 OA
ATOM      3  N   PRO A   1      34.362 -15.446 -22.683  0.00  0.00    -0.272 N 
ATOM      4  N   TYR A   2      35.369 -17.623 -23.787  0.00  0.00    -0.297 N 
ATOM      5  CA  PRO A   1      33.792 -15.804 -23.974  0.00  0.00    +0.152 C 
ATOM      6  CB  PRO A   1      33.578 -14.462 -24.665  0.00  0.00    +0.031 C 
ATOM      7  CD  PRO A   1      34.221 -14.028 -22.401  0.00  0.00    +0.094 C 
ATOM      8  CG  PRO A   1      33.293 -13.521 -23.496  0.00  0.00    +0.024 C 
ATOM      9  CA  TYR A   2      34.907 -17.781 -22.410  0.00  0.00    +0.153 C 
ATOM     10  C   TYR A   2      34.856 -16.385 -21.794  0.00  0.00    +0.244 C 
ATOM     11  C   PRO A   1      34.776 -16.724 -24.664  0.00  0.00    +0.241 C 
ATOM     12  H   TYR A   2      36.124 -18.170 -24.103  0.00  0.00    +0.150 HD
ENDROOT
BRANCH   9  13
ATOM     13  CB  TYR A   2      35.819 -18.715 -21.629  0.00  0.00    +0.055 C 
BRANCH  13  14
ATOM     14  CG  TYR A   2      35.035 -19.736 -20.845  0.00  0.00    -0.020 C 
ATOM     15  CD1 TYR A   2      35.711 -20.735 -20.159  0.00  0.00    -0.001 C 
ATOM     16  CD2 TYR A   2      33.651 -19.662 -20.822  0.00  0.00    -0.001 C 
ATOM     17  CE1 TYR A   2      34.986 -21.679 -19.433  0.00  0.00    +0.036 C 
ATOM     18  CE2 TYR A   2      32.925 -20.608 -20.097  0.00  0.00    +0.036 C 
ATOM     19  CZ  TYR A   2      33.593 -21.615 -19.402  0.00  0.00    +0.134 C 
BRANCH  19  20
ATOM     20  OH  TYR A   2      32.886 -22.538 -18.695  0.00  0.00    -0.506 OA
ATOM     21  HH  TYR A   2      32.732 -22.410 -17.779  0.00  0.00    +0.292 HD
ENDBRANCH  19  20
ENDBRANCH  13  14
ENDBRANCH   9  13
TORSDOF 3
ENDMDL
MODEL 2
REMARK VINA RESULT:     -10.7      0.223      1.130
REMARK  Name = 119404
REMARK  3 active torsions:
REMARK  status: ('A' for Active; 'I' for Inactive)
REMARK    1  A    between atoms: CA_9  and  CB_13
REMARK    2  A    between atoms: CB_13  and  CG_14
REMARK    3  A    between atoms: CZ_19  and  OH_20
REMARK                            x       y       z     vdW  Elec       q    Type
REMARK                         _______ _______ _______ _____ _____    ______ ____
ROOT
ATOM      1  O   TYR A   2      35.158 -16.343 -20.480  0.00  0.00    -0.273 OA
ATOM      2  O   PRO A   1      35.024 -16.763 -25.761  0.00  0.00    -0.273 OA
ATOM      3  N   PRO A   1      34.384 -15.585 -22.527  0.00  0.00    -0.272 N 
ATOM      4  N   TYR A   2      35.468 -17.691 -23.694  0.00  0.00    -0.297 N 
ATOM      5  CA  PRO A   1      33.835 -15.918 -23.834  0.00  0.00    +0.152 C 
ATOM      6  CB  PRO A   1      33.583 -14.561 -24.481  0.00  0.00    +0.031 C 
ATOM      7  CD  PRO A   1      34.196 -14.183 -22.199  0.00  0.00    +0.094 C 
ATOM      8  CG  PRO A   1      33.259 -13.670 -23.283  0.00  0.00    +0.024 C 
ATOM      9  CA  TYR A   2      35.002 -17.910 -22.327  0.00  0.00    +0.153 C 
ATOM     10  C   TYR A   2      34.901 -16.538 -21.665  0.00  0.00    +0.244 C 
ATOM     11  C   PRO A   1      34.853 -16.783 -24.546  0.00  0.00    +0.241 C 
ATOM     12  H   TYR A   2      36.243 -18.203 -24.022  0.00  0.00    +0.150 HD
ENDROOT
BRANCH   9  13
ATOM     13  CB  TYR A   2      35.937 -18.840 -21.571  0.00  0.00    +0.055 C 
BRANCH  13  14
ATOM     14  CG  TYR A   2      35.179 -19.885 -20.792  0.00  0.00    -0.020 C 
ATOM     15  CD1 TYR A   2      33.795 -19.822 -20.733  0.00  0.00    -0.001 C 
ATOM     16  CD2 TYR A   2      35.878 -20.893 -20.146  0.00  0.00    -0.001 C 
ATOM     17  CE1 TYR A   2      33.094 -20.788 -20.012  0.00  0.00    +0.036 C 
ATOM     18  CE2 TYR A   2      35.177 -21.860 -19.425  0.00  0.00    +0.036 C 
ATOM     19  CZ  TYR A   2      33.786 -21.808 -19.358  0.00  0.00    +0.134 C 
BRANCH  19  20
ATOM     20  OH  TYR A   2      33.102 -22.750 -18.654  0.00  0.00    -0.506 OA
ATOM     21  HH  TYR A   2      33.422 -23.630 -18.615  0.00  0.00    +0.292 HD
ENDBRANCH  19  20
ENDBRANCH  13  14
ENDBRANCH   9  13
TORSDOF 3
ENDMDL
MODEL 3
REMARK VINA RESULT:      -9.1      8.948     11.217
REMARK  Name = 119404
REMARK  3 active torsions:
REMARK  status: ('A' for Active; 'I' for Inactive)
REMARK    1  A    between atoms: CA_9  and  CB_13
REMARK    2  A    between atoms: CB_13  and  CG_14
REMARK    3  A    between atoms: CZ_19  and  OH_20
REMARK                            x       y       z     vdW  Elec       q    Type
REMARK                         _______ _______ _______ _____ _____    ______ ____
ROOT
ATOM      1  O   TYR A   2      36.094 -23.471 -11.952  0.00  0.00    -0.273 OA
ATOM      2  O   PRO A   1      36.346 -27.074 -15.831  0.00  0.00    -0.273 OA
ATOM      3  N   PRO A   1      37.350 -24.700 -13.461  0.00  0.00    -0.272 N 
ATOM      4  N   TYR A   2      35.121 -25.573 -14.575  0.00  0.00    -0.297 N 
ATOM      5  CA  PRO A   1      37.493 -25.201 -14.821  0.00  0.00    +0.152 C 
ATOM      6  CB  PRO A   1      38.834 -25.926 -14.803  0.00  0.00    +0.031 C 
ATOM      7  CD  PRO A   1      38.596 -24.773 -12.720  0.00  0.00    +0.094 C 
ATOM      8  CG  PRO A   1      39.635 -25.132 -13.773  0.00  0.00    +0.024 C 
ATOM      9  CA  TYR A   2      35.045 -24.230 -14.006  0.00  0.00    +0.153 C 
ATOM     10  C   TYR A   2      36.186 -24.108 -12.999  0.00  0.00    +0.244 C 
ATOM     11  C   PRO A   1      36.297 -26.083 -15.106  0.00  0.00    +0.241 C 
ATOM     12  H   TYR A   2      34.311 -26.135 -14.581  0.00  0.00    +0.150 HD
ENDROOT
BRANCH   9  13
ATOM     13  CB  TYR A   2      33.690 -23.980 -13.364  0.00  0.00    +0.055 C 
BRANCH  13  14
ATOM     14  CG  TYR A   2      32.653 -23.580 -14.382  0.00  0.00    -0.020 C 
ATOM     15  CD1 TYR A   2      33.018 -23.450 -15.714  0.00  0.00    -0.001 C 
ATOM     16  CD2 TYR A   2      31.349 -23.347 -13.970  0.00  0.00    -0.001 C 
ATOM     17  CE1 TYR A   2      32.058 -23.080 -16.655  0.00  0.00    +0.036 C 
ATOM     18  CE2 TYR A   2      30.389 -22.976 -14.912  0.00  0.00    +0.036 C 
ATOM     19  CZ  TYR A   2      30.743 -22.843 -16.254  0.00  0.00    +0.134 C 
BRANCH  19  20
ATOM     20  OH  TYR A   2      29.807 -22.481 -17.173  0.00  0.00    -0.506 OA
ATOM     21  HH  TYR A   2      29.379 -23.136 -17.688  0.00  0.00    +0.292 HD
ENDBRANCH  19  20
ENDBRANCH  13  14
ENDBRANCH   9  13
TORSDOF 3
ENDMDL
MODEL 4
REMARK VINA RESULT:      -9.1      1.060      2.565
REMARK  Name = 119404
REMARK  3 active torsions:
REMARK  status: ('A' for Active; 'I' for Inactive)
REMARK    1  A    between atoms: CA_9  and  CB_13
REMARK    2  A    between atoms: CB_13  and  CG_14
REMARK    3  A    between atoms: CZ_19  and  OH_20
REMARK                            x       y       z     vdW  Elec       q    Type
REMARK                         _______ _______ _______ _____ _____    ______ ____
ROOT
ATOM      1  O   TYR A   2      34.910 -17.510 -24.872  0.00  0.00    -0.273 OA
ATOM      2  O   PRO A   1      33.777 -15.219 -20.229  0.00  0.00    -0.273 OA
ATOM      3  N   PRO A   1      34.250 -15.642 -23.672  0.00  0.00    -0.272 N 
ATOM      4  N   TYR A   2      34.772 -16.925 -21.424  0.00  0.00    -0.297 N 
ATOM      5  CA  PRO A   1      34.457 -14.791 -22.509  0.00  0.00    +0.152 C 
ATOM      6  CB  PRO A   1      33.439 -13.671 -22.690  0.00  0.00    +0.031 C 
ATOM      7  CD  PRO A   1      33.441 -14.989 -24.687  0.00  0.00    +0.094 C 
ATOM      8  CG  PRO A   1      33.337 -13.548 -24.209  0.00  0.00    +0.024 C 
ATOM      9  CA  TYR A   2      35.615 -17.292 -22.559  0.00  0.00    +0.153 C 
ATOM     10  C   TYR A   2      34.870 -16.871 -23.823  0.00  0.00    +0.244 C 
ATOM     11  C   PRO A   1      34.248 -15.647 -21.279  0.00  0.00    +0.241 C 
ATOM     12  H   TYR A   2      34.568 -17.605 -20.741  0.00  0.00    +0.150 HD
ENDROOT
BRANCH   9  13
ATOM     13  CB  TYR A   2      35.929 -18.780 -22.551  0.00  0.00    +0.055 C 
BRANCH  13  14
ATOM     14  CG  TYR A   2      35.054 -19.532 -21.581  0.00  0.00    -0.020 C 
ATOM     15  CD1 TYR A   2      33.675 -19.416 -21.673  0.00  0.00    -0.001 C 
ATOM     16  CD2 TYR A   2      35.643 -20.329 -20.611  0.00  0.00    -0.001 C 
ATOM     17  CE1 TYR A   2      32.867 -20.113 -20.776  0.00  0.00    +0.036 C 
ATOM     18  CE2 TYR A   2      34.834 -21.026 -19.712  0.00  0.00    +0.036 C 
ATOM     19  CZ  TYR A   2      33.447 -20.918 -19.795  0.00  0.00    +0.134 C 
BRANCH  19  20
ATOM     20  OH  TYR A   2      32.657 -21.596 -18.918  0.00  0.00    -0.506 OA
ATOM     21  HH  TYR A   2      32.178 -22.349 -19.205  0.00  0.00    +0.292 HD
ENDBRANCH  19  20
ENDBRANCH  13  14
ENDBRANCH   9  13
TORSDOF 3
ENDMDL
MODEL 5
REMARK VINA RESULT:      -9.0      2.139      6.538
REMARK  Name = 119404
REMARK  3 active torsions:
REMARK  status: ('A' for Active; 'I' for Inactive)
REMARK    1  A    between atoms: CA_9  and  CB_13
REMARK    2  A    between atoms: CB_13  and  CG_14
REMARK    3  A    between atoms: CZ_19  and  OH_20
REMARK                            x       y       z     vdW  Elec       q    Type
REMARK                         _______ _______ _______ _____ _____    ______ ____
ROOT
ATOM      1  O   TYR A   2      37.244 -19.849 -20.402  0.00  0.00    -0.273 OA
ATOM      2  O   PRO A   1      31.949 -19.700 -20.231  0.00  0.00    -0.273 OA
ATOM      3  N   PRO A   1      35.233 -20.841 -19.820  0.00  0.00    -0.272 N 
ATOM      4  N   TYR A   2      33.941 -18.932 -21.109  0.00  0.00    -0.297 N 
ATOM      5  CA  PRO A   1      33.868 -21.170 -20.205  0.00  0.00    +0.152 C 
ATOM      6  CB  PRO A   1      33.339 -21.974 -19.022  0.00  0.00    +0.031 C 
ATOM      7  CD  PRO A   1      35.682 -21.623 -18.682  0.00  0.00    +0.094 C 
ATOM      8  CG  PRO A   1      34.593 -22.672 -18.499  0.00  0.00    +0.024 C 
ATOM      9  CA  TYR A   2      35.248 -19.280 -21.662  0.00  0.00    +0.153 C 
ATOM     10  C   TYR A   2      36.031 -19.976 -20.551  0.00  0.00    +0.244 C 
ATOM     11  C   PRO A   1      33.143 -19.866 -20.461  0.00  0.00    +0.241 C 
ATOM     12  H   TYR A   2      33.616 -18.007 -21.198  0.00  0.00    +0.150 HD
ENDROOT
BRANCH   9  13
ATOM     13  CB  TYR A   2      35.970 -18.047 -22.181  0.00  0.00    +0.055 C 
BRANCH  13  14
ATOM     14  CG  TYR A   2      35.211 -17.382 -23.301  0.00  0.00    -0.020 C 
ATOM     15  CD1 TYR A   2      34.885 -18.114 -24.433  0.00  0.00    -0.001 C 
ATOM     16  CD2 TYR A   2      34.850 -16.048 -23.181  0.00  0.00    -0.001 C 
ATOM     17  CE1 TYR A   2      34.182 -17.498 -25.468  0.00  0.00    +0.036 C 
ATOM     18  CE2 TYR A   2      34.147 -15.433 -24.217  0.00  0.00    +0.036 C 
ATOM     19  CZ  TYR A   2      33.813 -16.157 -25.360  0.00  0.00    +0.134 C 
BRANCH  19  20
ATOM     20  OH  TYR A   2      33.128 -15.557 -26.371  0.00  0.00    -0.506 OA
ATOM     21  HH  TYR A   2      32.356 -15.959 -26.718  0.00  0.00    +0.292 HD
ENDBRANCH  19  20
ENDBRANCH  13  14
ENDBRANCH   9  13
TORSDOF 3
ENDMDL
MODEL 6
REMARK VINA RESULT:      -8.8      9.485     11.532
REMARK  Name = 119404
REMARK  3 active torsions:
REMARK  status: ('A' for Active; 'I' for Inactive)
REMARK    1  A    between atoms: CA_9  and  CB_13
REMARK    2  A    between atoms: CB_13  and  CG_14
REMARK    3  A    between atoms: CZ_19  and  OH_20
REMARK                            x       y       z     vdW  Elec       q    Type
REMARK                         _______ _______ _______ _____ _____    ______ ____
ROOT
ATOM      1  O   TYR A   2      36.277 -23.437 -16.214  0.00  0.00    -0.273 OA
ATOM      2  O   PRO A   1      35.940 -24.992 -11.158  0.00  0.00    -0.273 OA
ATOM      3  N   PRO A   1      37.136 -24.640 -14.431  0.00  0.00    -0.272 N 
ATOM      4  N   TYR A   2      34.946 -24.118 -13.050  0.00  0.00    -0.297 N 
ATOM      5  CA  PRO A   1      36.877 -25.544 -13.318  0.00  0.00    +0.152 C 
ATOM      6  CB  PRO A   1      38.260 -25.818 -12.740  0.00  0.00    +0.031 C 
ATOM      7  CD  PRO A   1      38.545 -24.594 -14.777  0.00  0.00    +0.094 C 
ATOM      8  CG  PRO A   1      39.164 -25.725 -13.968  0.00  0.00    +0.024 C 
ATOM      9  CA  TYR A   2      34.758 -24.229 -14.494  0.00  0.00    +0.153 C 
ATOM     10  C   TYR A   2      36.124 -24.014 -15.140  0.00  0.00    +0.244 C 
ATOM     11  C   PRO A   1      35.923 -24.840 -12.377  0.00  0.00    +0.241 C 
ATOM     12  H   TYR A   2      34.363 -23.512 -12.538  0.00  0.00    +0.150 HD
ENDROOT
BRANCH   9  13
ATOM     13  CB  TYR A   2      33.729 -23.227 -14.992  0.00  0.00    +0.055 C 
BRANCH  13  14
ATOM     14  CG  TYR A   2      32.324 -23.760 -14.873  0.00  0.00    -0.020 C 
ATOM     15  CD1 TYR A   2      31.347 -23.311 -15.749  0.00  0.00    -0.001 C 
ATOM     16  CD2 TYR A   2      32.030 -24.692 -13.889  0.00  0.00    -0.001 C 
ATOM     17  CE1 TYR A   2      30.047 -23.805 -15.639  0.00  0.00    +0.036 C 
ATOM     18  CE2 TYR A   2      30.730 -25.186 -13.779  0.00  0.00    +0.036 C 
ATOM     19  CZ  TYR A   2      29.739 -24.743 -14.654  0.00  0.00    +0.134 C 
BRANCH  19  20
ATOM     20  OH  TYR A   2      28.470 -25.223 -14.546  0.00  0.00    -0.506 OA
ATOM     21  HH  TYR A   2      28.174 -25.898 -15.124  0.00  0.00    +0.292 HD
ENDBRANCH  19  20
ENDBRANCH  13  14
ENDBRANCH   9  13
TORSDOF 3
ENDMDL
MODEL 7
REMARK VINA RESULT:      -8.8      3.820      7.885
REMARK  Name = 119404
REMARK  3 active torsions:
REMARK  status: ('A' for Active; 'I' for Inactive)
REMARK    1  A    between atoms: CA_9  and  CB_13
REMARK    2  A    between atoms: CB_13  and  CG_14
REMARK    3  A    between atoms: CZ_19  and  OH_20
REMARK                            x       y       z     vdW  Elec       q    Type
REMARK                         _______ _______ _______ _____ _____    ______ ____
ROOT
ATOM      1  O   TYR A   2      32.422 -14.312 -20.327  0.00  0.00    -0.273 OA
ATOM      2  O   PRO A   1      33.388 -14.729 -25.522  0.00  0.00    -0.273 OA
ATOM      3  N   PRO A   1      33.682 -15.187 -22.063  0.00  0.00    -0.272 N 
ATOM      4  N   TYR A   2      32.408 -13.611 -23.756  0.00  0.00    -0.297 N 
ATOM      5  CA  PRO A   1      34.371 -14.949 -23.324  0.00  0.00    +0.152 C 
ATOM      6  CB  PRO A   1      35.007 -16.295 -23.652  0.00  0.00    +0.031 C 
ATOM      7  CD  PRO A   1      34.096 -16.433 -21.444  0.00  0.00    +0.094 C 
ATOM      8  CG  PRO A   1      35.293 -16.880 -22.271  0.00  0.00    +0.024 C 
ATOM      9  CA  TYR A   2      32.572 -13.071 -22.408  0.00  0.00    +0.153 C 
ATOM     10  C   TYR A   2      32.837 -14.256 -21.482  0.00  0.00    +0.244 C 
ATOM     11  C   PRO A   1      33.336 -14.474 -24.322  0.00  0.00    +0.241 C 
ATOM     12  H   TYR A   2      31.613 -13.355 -24.279  0.00  0.00    +0.150 HD
ENDROOT
BRANCH   9  13
ATOM     13  CB  TYR A   2      31.347 -12.278 -21.982  0.00  0.00    +0.055 C 
BRANCH  13  14
ATOM     14  CG  TYR A   2      31.724 -10.972 -21.330  0.00  0.00    -0.020 C 
ATOM     15  CD1 TYR A   2      31.649 -10.851 -19.950  0.00  0.00    -0.001 C 
ATOM     16  CD2 TYR A   2      32.140  -9.911 -22.120  0.00  0.00    -0.001 C 
ATOM     17  CE1 TYR A   2      31.999  -9.643 -19.347  0.00  0.00    +0.036 C 
ATOM     18  CE2 TYR A   2      32.489  -8.702 -21.517  0.00  0.00    +0.036 C 
ATOM     19  CZ  TYR A   2      32.419  -8.569 -20.131  0.00  0.00    +0.134 C 
BRANCH  19  20
ATOM     20  OH  TYR A   2      32.759  -7.390 -19.542  0.00  0.00    -0.506 OA
ATOM     21  HH  TYR A   2      32.706  -7.299 -18.611  0.00  0.00    +0.292 HD
ENDBRANCH  19  20
ENDBRANCH  13  14
ENDBRANCH   9  13
TORSDOF 3
ENDMDL
MODEL 8
REMARK VINA RESULT:      -8.7      2.468      7.332
REMARK  Name = 119404
REMARK  3 active torsions:
REMARK  status: ('A' for Active; 'I' for Inactive)
REMARK    1  A    between atoms: CA_9  and  CB_13
REMARK    2  A    between atoms: CB_13  and  CG_14
REMARK    3  A    between atoms: CZ_19  and  OH_20
REMARK                            x       y       z     vdW  Elec       q    Type
REMARK                         _______ _______ _______ _____ _____    ______ ____
ROOT
ATOM      1  O   TYR A   2      34.453 -16.428 -25.405  0.00  0.00    -0.273 OA
ATOM      2  O   PRO A   1      35.022 -15.666 -20.191  0.00  0.00    -0.273 OA
ATOM      3  N   PRO A   1      34.636 -17.296 -23.265  0.00  0.00    -0.272 N 
ATOM      4  N   TYR A   2      34.474 -14.852 -22.280  0.00  0.00    -0.297 N 
ATOM      5  CA  PRO A   1      34.233 -17.218 -21.868  0.00  0.00    +0.152 C 
ATOM      6  CB  PRO A   1      34.936 -18.405 -21.219  0.00  0.00    +0.031 C 
ATOM      7  CD  PRO A   1      35.245 -18.575 -23.586  0.00  0.00    +0.094 C 
ATOM      8  CG  PRO A   1      34.989 -19.428 -22.352  0.00  0.00    +0.024 C 
ATOM      9  CA  TYR A   2      33.738 -15.070 -23.523  0.00  0.00    +0.153 C 
ATOM     10  C   TYR A   2      34.342 -16.305 -24.188  0.00  0.00    +0.244 C 
ATOM     11  C   PRO A   1      34.663 -15.863 -21.348  0.00  0.00    +0.241 C 
ATOM     12  H   TYR A   2      34.848 -13.959 -22.098  0.00  0.00    +0.150 HD
ENDROOT
BRANCH   9  13
ATOM     13  CB  TYR A   2      33.808 -13.848 -24.425  0.00  0.00    +0.055 C 
BRANCH  13  14
ATOM     14  CG  TYR A   2      33.232 -12.625 -23.757  0.00  0.00    -0.020 C 
ATOM     15  CD1 TYR A   2      32.248 -12.774 -22.791  0.00  0.00    -0.001 C 
ATOM     16  CD2 TYR A   2      33.697 -11.369 -24.119  0.00  0.00    -0.001 C 
ATOM     17  CE1 TYR A   2      31.716 -11.643 -22.174  0.00  0.00    +0.036 C 
ATOM     18  CE2 TYR A   2      33.164 -10.237 -23.501  0.00  0.00    +0.036 C 
ATOM     19  CZ  TYR A   2      32.174 -10.374 -22.528  0.00  0.00    +0.134 C 
BRANCH  19  20
ATOM     20  OH  TYR A   2      31.654  -9.270 -21.926  0.00  0.00    -0.506 OA
ATOM     21  HH  TYR A   2      30.855  -8.897 -22.242  0.00  0.00    +0.292 HD
ENDBRANCH  19  20
ENDBRANCH  13  14
ENDBRANCH   9  13
TORSDOF 3
ENDMDL
MODEL 9
REMARK VINA RESULT:      -8.6      2.898      7.639
REMARK  Name = 119404
REMARK  3 active torsions:
REMARK  status: ('A' for Active; 'I' for Inactive)
REMARK    1  A    between atoms: CA_9  and  CB_13
REMARK    2  A    between atoms: CB_13  and  CG_14
REMARK    3  A    between atoms: CZ_19  and  OH_20
REMARK                            x       y       z     vdW  Elec       q    Type
REMARK                         _______ _______ _______ _____ _____    ______ ____
ROOT
ATOM      1  O   TYR A   2      33.020 -14.963 -21.136  0.00  0.00    -0.273 OA
ATOM      2  O   PRO A   1      34.444 -16.906 -25.857  0.00  0.00    -0.273 OA
ATOM      3  N   PRO A   1      34.280 -16.448 -22.390  0.00  0.00    -0.272 N 
ATOM      4  N   TYR A   2      33.499 -15.221 -24.593  0.00  0.00    -0.297 N 
ATOM      5  CA  PRO A   1      35.131 -16.664 -23.552  0.00  0.00    +0.152 C 
ATOM      6  CB  PRO A   1      35.545 -18.126 -23.435  0.00  0.00    +0.031 C 
ATOM      7  CD  PRO A   1      34.394 -17.528 -21.425  0.00  0.00    +0.094 C 
ATOM      8  CG  PRO A   1      35.572 -18.351 -21.925  0.00  0.00    +0.024 C 
ATOM      9  CA  TYR A   2      33.613 -14.367 -23.414  0.00  0.00    +0.153 C 
ATOM     10  C   TYR A   2      33.559 -15.282 -22.193  0.00  0.00    +0.244 C 
ATOM     11  C   PRO A   1      34.311 -16.331 -24.780  0.00  0.00    +0.241 C 
ATOM     12  H   TYR A   2      32.824 -15.003 -25.277  0.00  0.00    +0.150 HD
ENDROOT
BRANCH   9  13
ATOM     13  CB  TYR A   2      32.513 -13.317 -23.387  0.00  0.00    +0.055 C 
BRANCH  13  14
ATOM     14  CG  TYR A   2      33.061 -11.926 -23.578  0.00  0.00    -0.020 C 
ATOM     15  CD1 TYR A   2      32.522 -10.875 -22.851  0.00  0.00    -0.001 C 
ATOM     16  CD2 TYR A   2      34.096 -11.719 -24.478  0.00  0.00    -0.001 C 
ATOM     17  CE1 TYR A   2      33.029  -9.588 -23.028  0.00  0.00    +0.036 C 
ATOM     18  CE2 TYR A   2      34.603 -10.432 -24.655  0.00  0.00    +0.036 C 
ATOM     19  CZ  TYR A   2      34.070  -9.366 -23.930  0.00  0.00    +0.134 C 
BRANCH  19  20
ATOM     20  OH  TYR A   2      34.564  -8.110 -24.103  0.00  0.00    -0.506 OA
ATOM     21  HH  TYR A   2      34.447  -7.670 -24.921  0.00  0.00    +0.292 HD
ENDBRANCH  19  20
ENDBRANCH  13  14
ENDBRANCH   9  13
TORSDOF 3
ENDMDL
