MODEL 1
REMARK VINA RESULT:      -5.2      0.000      0.000
REMARK  Name = 2551
REMARK  4 active torsions:
REMARK  status: ('A' for Active; 'I' for Inactive)
REMARK    1  A    between atoms: O_1  and  C_4
REMARK    2  A    between atoms: O_1  and  C_7
REMARK    3  A    between atoms: C_7  and  C_8
REMARK    4  A    between atoms: C_8  and  N_9
REMARK                            x       y       z     vdW  Elec       q    Type
REMARK                         _______ _______ _______ _____ _____    ______ ____
ROOT
ATOM      1  O   UNL     1      37.224 -24.102 -10.987  0.00  0.00    -0.437 OA
ENDROOT
BRANCH   1   4
ATOM      2  O   UNL     1      35.232 -25.137 -10.472  0.00  0.00    -0.227 OA
ATOM      3  N   UNL     1      35.350 -23.520 -12.102  0.00  0.00    -0.295 N 
ATOM      4  C   UNL     1      35.880 -24.326 -11.126  0.00  0.00    +0.398 C 
ATOM      5  H   UNL     1      35.930 -22.890 -12.589  0.00  0.00    +0.148 HD
ATOM      6  H   UNL     1      34.390 -23.570 -12.315  0.00  0.00    +0.148 HD
ENDBRANCH   1   4
BRANCH   1   7
ATOM      7  C   UNL     1      37.986 -24.105 -12.187  0.00  0.00    +0.188 C 
BRANCH   7   8
ATOM      8  C   UNL     1      38.236 -25.534 -12.627  0.00  0.00    -0.025 C 
BRANCH   8   9
ATOM      9  N   UNL     1      38.322 -25.584 -14.144  0.00  0.00    +0.388 N 
ATOM     10  C   UNL     1      39.770 -25.793 -14.565  0.00  0.00    -0.096 C 
ATOM     11  C   UNL     1      37.472 -26.737 -14.662  0.00  0.00    -0.096 C 
ATOM     12  C   UNL     1      37.808 -24.275 -14.726  0.00  0.00    -0.096 C 
ENDBRANCH   8   9
ENDBRANCH   7   8
ENDBRANCH   1   7
TORSDOF 4
ENDMDL
MODEL 2
REMARK VINA RESULT:      -5.1      9.217     10.099
REMARK  Name = 2551
REMARK  4 active torsions:
REMARK  status: ('A' for Active; 'I' for Inactive)
REMARK    1  A    between atoms: O_1  and  C_4
REMARK    2  A    between atoms: O_1  and  C_7
REMARK    3  A    between atoms: C_7  and  C_8
REMARK    4  A    between atoms: C_8  and  N_9
REMARK                            x       y       z     vdW  Elec       q    Type
REMARK                         _______ _______ _______ _____ _____    ______ ____
ROOT
ATOM      1  O   UNL     1      27.614 -21.653 -17.055  0.00  0.00    -0.437 OA
ENDROOT
BRANCH   1   4
ATOM      2  O   UNL     1      25.596 -22.026 -16.010  0.00  0.00    -0.227 OA
ATOM      3  N   UNL     1      25.714 -20.885 -18.003  0.00  0.00    -0.295 N 
ATOM      4  C   UNL     1      26.252 -21.564 -16.938  0.00  0.00    +0.398 C 
ATOM      5  H   UNL     1      26.302 -20.540 -18.714  0.00  0.00    +0.148 HD
ATOM      6  H   UNL     1      24.742 -20.743 -18.055  0.00  0.00    +0.148 HD
ENDBRANCH   1   4
BRANCH   1   7
ATOM      7  C   UNL     1      28.204 -22.857 -16.585  0.00  0.00    +0.188 C 
BRANCH   7   8
ATOM      8  C   UNL     1      29.063 -22.561 -15.370  0.00  0.00    -0.025 C 
BRANCH   8   9
ATOM      9  N   UNL     1      30.252 -23.509 -15.353  0.00  0.00    +0.388 N 
ATOM     10  C   UNL     1      30.875 -23.518 -13.965  0.00  0.00    -0.096 C 
ATOM     11  C   UNL     1      29.786 -24.914 -15.709  0.00  0.00    -0.096 C 
ATOM     12  C   UNL     1      31.286 -23.045 -16.370  0.00  0.00    -0.096 C 
ENDBRANCH   8   9
ENDBRANCH   7   8
ENDBRANCH   1   7
TORSDOF 4
ENDMDL
MODEL 3
REMARK VINA RESULT:      -5.1      2.656      4.390
REMARK  Name = 2551
REMARK  4 active torsions:
REMARK  status: ('A' for Active; 'I' for Inactive)
REMARK    1  A    between atoms: O_1  and  C_4
REMARK    2  A    between atoms: O_1  and  C_7
REMARK    3  A    between atoms: C_7  and  C_8
REMARK    4  A    between atoms: C_8  and  N_9
REMARK                            x       y       z     vdW  Elec       q    Type
REMARK                         _______ _______ _______ _____ _____    ______ ____
ROOT
ATOM      1  O   UNL     1      38.901 -26.899 -14.601  0.00  0.00    -0.437 OA
ENDROOT
BRANCH   1   4
ATOM      2  O   UNL     1      41.104 -26.363 -14.195  0.00  0.00    -0.227 OA
ATOM      3  N   UNL     1      39.740 -24.967 -15.412  0.00  0.00    -0.295 N 
ATOM      4  C   UNL     1      40.012 -26.103 -14.691  0.00  0.00    +0.398 C 
ATOM      5  H   UNL     1      38.839 -24.822 -15.781  0.00  0.00    +0.148 HD
ATOM      6  H   UNL     1      40.447 -24.297 -15.559  0.00  0.00    +0.148 HD
ENDBRANCH   1   4
BRANCH   1   7
ATOM      7  C   UNL     1      37.653 -26.224 -14.507  0.00  0.00    +0.188 C 
BRANCH   7   8
ATOM      8  C   UNL     1      37.216 -26.165 -13.056  0.00  0.00    -0.025 C 
BRANCH   8   9
ATOM      9  N   UNL     1      36.947 -24.719 -12.672  0.00  0.00    +0.388 N 
ATOM     10  C   UNL     1      36.574 -23.923 -13.914  0.00  0.00    -0.096 C 
ATOM     11  C   UNL     1      35.800 -24.666 -11.672  0.00  0.00    -0.096 C 
ATOM     12  C   UNL     1      38.196 -24.119 -12.041  0.00  0.00    -0.096 C 
ENDBRANCH   8   9
ENDBRANCH   7   8
ENDBRANCH   1   7
TORSDOF 4
ENDMDL
MODEL 4
REMARK VINA RESULT:      -4.9      2.612      4.137
REMARK  Name = 2551
REMARK  4 active torsions:
REMARK  status: ('A' for Active; 'I' for Inactive)
REMARK    1  A    between atoms: O_1  and  C_4
REMARK    2  A    between atoms: O_1  and  C_7
REMARK    3  A    between atoms: C_7  and  C_8
REMARK    4  A    between atoms: C_8  and  N_9
REMARK                            x       y       z     vdW  Elec       q    Type
REMARK                         _______ _______ _______ _____ _____    ______ ____
ROOT
ATOM      1  O   UNL     1      39.049 -26.196 -13.470  0.00  0.00    -0.437 OA
ENDROOT
BRANCH   1   4
ATOM      2  O   UNL     1      41.157 -26.531 -14.335  0.00  0.00    -0.227 OA
ATOM      3  N   UNL     1      39.662 -25.111 -15.352  0.00  0.00    -0.295 N 
ATOM      4  C   UNL     1      40.054 -25.996 -14.379  0.00  0.00    +0.398 C 
ATOM      5  H   UNL     1      38.759 -24.718 -15.326  0.00  0.00    +0.148 HD
ATOM      6  H   UNL     1      40.283 -24.869 -16.077  0.00  0.00    +0.148 HD
ENDBRANCH   1   4
BRANCH   1   7
ATOM      7  C   UNL     1      38.433 -25.025 -12.951  0.00  0.00    +0.188 C 
BRANCH   7   8
ATOM      8  C   UNL     1      36.965 -25.298 -12.688  0.00  0.00    -0.025 C 
BRANCH   8   9
ATOM      9  N   UNL     1      36.124 -24.545 -13.708  0.00  0.00    +0.388 N 
ATOM     10  C   UNL     1      35.947 -25.403 -14.953  0.00  0.00    -0.096 C 
ATOM     11  C   UNL     1      34.760 -24.233 -13.109  0.00  0.00    -0.096 C 
ATOM     12  C   UNL     1      36.822 -23.245 -14.083  0.00  0.00    -0.096 C 
ENDBRANCH   8   9
ENDBRANCH   7   8
ENDBRANCH   1   7
TORSDOF 4
ENDMDL
MODEL 5
REMARK VINA RESULT:      -4.7      2.879      4.123
REMARK  Name = 2551
REMARK  4 active torsions:
REMARK  status: ('A' for Active; 'I' for Inactive)
REMARK    1  A    between atoms: O_1  and  C_4
REMARK    2  A    between atoms: O_1  and  C_7
REMARK    3  A    between atoms: C_7  and  C_8
REMARK    4  A    between atoms: C_8  and  N_9
REMARK                            x       y       z     vdW  Elec       q    Type
REMARK                         _______ _______ _______ _____ _____    ______ ____
ROOT
ATOM      1  O   UNL     1      37.719 -26.673 -14.490  0.00  0.00    -0.437 OA
ENDROOT
BRANCH   1   4
ATOM      2  O   UNL     1      36.904 -27.542 -16.461  0.00  0.00    -0.227 OA
ATOM      3  N   UNL     1      35.554 -26.343 -15.037  0.00  0.00    -0.295 N 
ATOM      4  C   UNL     1      36.743 -26.910 -15.421  0.00  0.00    +0.398 C 
ATOM      5  H   UNL     1      35.497 -25.848 -14.187  0.00  0.00    +0.148 HD
ATOM      6  H   UNL     1      34.758 -26.431 -15.610  0.00  0.00    +0.148 HD
ENDBRANCH   1   4
BRANCH   1   7
ATOM      7  C   UNL     1      37.271 -26.259 -13.206  0.00  0.00    +0.188 C 
BRANCH   7   8
ATOM      8  C   UNL     1      37.914 -24.934 -12.847  0.00  0.00    -0.025 C 
BRANCH   8   9
ATOM      9  N   UNL     1      36.827 -23.906 -12.574  0.00  0.00    +0.388 N 
ATOM     10  C   UNL     1      37.357 -22.847 -11.619  0.00  0.00    -0.096 C 
ATOM     11  C   UNL     1      36.413 -23.247 -13.883  0.00  0.00    -0.096 C 
ATOM     12  C   UNL     1      35.621 -24.594 -11.950  0.00  0.00    -0.096 C 
ENDBRANCH   8   9
ENDBRANCH   7   8
ENDBRANCH   1   7
TORSDOF 4
ENDMDL
MODEL 6
REMARK VINA RESULT:      -4.6      9.060     10.109
REMARK  Name = 2551
REMARK  4 active torsions:
REMARK  status: ('A' for Active; 'I' for Inactive)
REMARK    1  A    between atoms: O_1  and  C_4
REMARK    2  A    between atoms: O_1  and  C_7
REMARK    3  A    between atoms: C_7  and  C_8
REMARK    4  A    between atoms: C_8  and  N_9
REMARK                            x       y       z     vdW  Elec       q    Type
REMARK                         _______ _______ _______ _____ _____    ______ ____
ROOT
ATOM      1  O   UNL     1      33.499 -20.898 -19.733  0.00  0.00    -0.437 OA
ENDROOT
BRANCH   1   4
ATOM      2  O   UNL     1      34.793 -22.746 -19.271  0.00  0.00    -0.227 OA
ATOM      3  N   UNL     1      32.710 -22.483 -18.334  0.00  0.00    -0.295 N 
ATOM      4  C   UNL     1      33.761 -22.097 -19.127  0.00  0.00    +0.398 C 
ATOM      5  H   UNL     1      31.910 -21.913 -18.264  0.00  0.00    +0.148 HD
ATOM      6  H   UNL     1      32.756 -23.330 -17.833  0.00  0.00    +0.148 HD
ENDBRANCH   1   4
BRANCH   1   7
ATOM      7  C   UNL     1      34.569 -20.321 -20.469  0.00  0.00    +0.188 C 
BRANCH   7   8
ATOM      8  C   UNL     1      34.036 -19.218 -21.362  0.00  0.00    -0.025 C 
BRANCH   8   9
ATOM      9  N   UNL     1      35.172 -18.276 -21.730  0.00  0.00    +0.388 N 
ATOM     10  C   UNL     1      34.917 -16.907 -21.117  0.00  0.00    -0.096 C 
ATOM     11  C   UNL     1      36.485 -18.834 -21.198  0.00  0.00    -0.096 C 
ATOM     12  C   UNL     1      35.254 -18.147 -23.245  0.00  0.00    -0.096 C 
ENDBRANCH   8   9
ENDBRANCH   7   8
ENDBRANCH   1   7
TORSDOF 4
ENDMDL
MODEL 7
REMARK VINA RESULT:      -4.6      7.818      8.824
REMARK  Name = 2551
REMARK  4 active torsions:
REMARK  status: ('A' for Active; 'I' for Inactive)
REMARK    1  A    between atoms: O_1  and  C_4
REMARK    2  A    between atoms: O_1  and  C_7
REMARK    3  A    between atoms: C_7  and  C_8
REMARK    4  A    between atoms: C_8  and  N_9
REMARK                            x       y       z     vdW  Elec       q    Type
REMARK                         _______ _______ _______ _____ _____    ______ ____
ROOT
ATOM      1  O   UNL     1      29.218 -22.287 -16.940  0.00  0.00    -0.437 OA
ENDROOT
BRANCH   1   4
ATOM      2  O   UNL     1      27.674 -23.857 -17.615  0.00  0.00    -0.227 OA
ATOM      3  N   UNL     1      27.165 -22.300 -16.001  0.00  0.00    -0.295 N 
ATOM      4  C   UNL     1      27.994 -22.900 -16.916  0.00  0.00    +0.398 C 
ATOM      5  H   UNL     1      27.489 -21.534 -15.472  0.00  0.00    +0.148 HD
ATOM      6  H   UNL     1      26.248 -22.635 -15.873  0.00  0.00    +0.148 HD
ENDBRANCH   1   4
BRANCH   1   7
ATOM      7  C   UNL     1      30.325 -23.084 -16.540  0.00  0.00    +0.188 C 
BRANCH   7   8
ATOM      8  C   UNL     1      30.650 -22.808 -15.085  0.00  0.00    -0.025 C 
BRANCH   8   9
ATOM      9  N   UNL     1      30.965 -24.120 -14.383  0.00  0.00    +0.388 N 
ATOM     10  C   UNL     1      30.283 -25.265 -15.116  0.00  0.00    -0.096 C 
ATOM     11  C   UNL     1      32.471 -24.344 -14.381  0.00  0.00    -0.096 C 
ATOM     12  C   UNL     1      30.460 -24.062 -12.948  0.00  0.00    -0.096 C 
ENDBRANCH   8   9
ENDBRANCH   7   8
ENDBRANCH   1   7
TORSDOF 4
ENDMDL
MODEL 8
REMARK VINA RESULT:      -4.6     12.912     13.982
REMARK  Name = 2551
REMARK  4 active torsions:
REMARK  status: ('A' for Active; 'I' for Inactive)
REMARK    1  A    between atoms: O_1  and  C_4
REMARK    2  A    between atoms: O_1  and  C_7
REMARK    3  A    between atoms: C_7  and  C_8
REMARK    4  A    between atoms: C_8  and  N_9
REMARK                            x       y       z     vdW  Elec       q    Type
REMARK                         _______ _______ _______ _____ _____    ______ ____
ROOT
ATOM      1  O   UNL     1      34.497 -16.965 -25.188  0.00  0.00    -0.437 OA
ENDROOT
BRANCH   1   4
ATOM      2  O   UNL     1      33.441 -15.517 -26.634  0.00  0.00    -0.227 OA
ATOM      3  N   UNL     1      33.522 -15.099 -24.374  0.00  0.00    -0.295 N 
ATOM      4  C   UNL     1      33.790 -15.835 -25.501  0.00  0.00    +0.398 C 
ATOM      5  H   UNL     1      33.834 -15.414 -23.495  0.00  0.00    +0.148 HD
ATOM      6  H   UNL     1      33.018 -14.256 -24.445  0.00  0.00    +0.148 HD
ENDBRANCH   1   4
BRANCH   1   7
ATOM      7  C   UNL     1      34.991 -17.045 -23.858  0.00  0.00    +0.188 C 
BRANCH   7   8
ATOM      8  C   UNL     1      34.844 -18.464 -23.346  0.00  0.00    -0.025 C 
BRANCH   8   9
ATOM      9  N   UNL     1      34.830 -18.451 -21.825  0.00  0.00    +0.388 N 
ATOM     10  C   UNL     1      36.233 -18.719 -21.301  0.00  0.00    -0.096 C 
ATOM     11  C   UNL     1      34.356 -17.090 -21.335  0.00  0.00    -0.096 C 
ATOM     12  C   UNL     1      33.883 -19.530 -21.317  0.00  0.00    -0.096 C 
ENDBRANCH   8   9
ENDBRANCH   7   8
ENDBRANCH   1   7
TORSDOF 4
ENDMDL
MODEL 9
REMARK VINA RESULT:      -4.6      8.909      9.958
REMARK  Name = 2551
REMARK  4 active torsions:
REMARK  status: ('A' for Active; 'I' for Inactive)
REMARK    1  A    between atoms: O_1  and  C_4
REMARK    2  A    between atoms: O_1  and  C_7
REMARK    3  A    between atoms: C_7  and  C_8
REMARK    4  A    between atoms: C_8  and  N_9
REMARK                            x       y       z     vdW  Elec       q    Type
REMARK                         _______ _______ _______ _____ _____    ______ ____
ROOT
ATOM      1  O   UNL     1      33.152 -21.262 -19.701  0.00  0.00    -0.437 OA
ENDROOT
BRANCH   1   4
ATOM      2  O   UNL     1      34.570 -22.883 -18.886  0.00  0.00    -0.227 OA
ATOM      3  N   UNL     1      32.457 -22.602 -18.023  0.00  0.00    -0.295 N 
ATOM      4  C   UNL     1      33.491 -22.299 -18.874  0.00  0.00    +0.398 C 
ATOM      5  H   UNL     1      31.617 -22.091 -18.069  0.00  0.00    +0.148 HD
ATOM      6  H   UNL     1      32.556 -23.330 -17.368  0.00  0.00    +0.148 HD
ENDBRANCH   1   4
BRANCH   1   7
ATOM      7  C   UNL     1      34.234 -20.520 -20.249  0.00  0.00    +0.188 C 
BRANCH   7   8
ATOM      8  C   UNL     1      33.694 -19.335 -21.026  0.00  0.00    -0.025 C 
BRANCH   8   9
ATOM      9  N   UNL     1      34.855 -18.555 -21.624  0.00  0.00    +0.388 N 
ATOM     10  C   UNL     1      34.883 -18.759 -23.131  0.00  0.00    -0.096 C 
ATOM     11  C   UNL     1      34.683 -17.074 -21.315  0.00  0.00    -0.096 C 
ATOM     12  C   UNL     1      36.163 -19.049 -21.020  0.00  0.00    -0.096 C 
ENDBRANCH   8   9
ENDBRANCH   7   8
ENDBRANCH   1   7
TORSDOF 4
ENDMDL
