MODEL 1
REMARK VINA RESULT:      -9.7      0.000      0.000
REMARK  Name = 3241
REMARK  0 active torsions:
REMARK  status: ('A' for Active; 'I' for Inactive)
REMARK                            x       y       z     vdW  Elec       q    Type
REMARK                         _______ _______ _______ _____ _____    ______ ____
ROOT
ATOM      1  N   UNL     1      32.909 -12.565 -23.599  0.00  0.00    -0.257 N 
ATOM      2  N   UNL     1      33.776 -12.974 -25.681  0.00  0.00    -0.241 NA
ATOM      3  N   UNL     1      34.570 -11.092 -24.497  0.00  0.00    -0.331 N 
ATOM      4  C   UNL     1      32.518 -13.948 -23.846  0.00  0.00    +0.126 C 
ATOM      5  C   UNL     1      33.365 -14.839 -22.960  0.00  0.00    -0.006 C 
ATOM      6  C   UNL     1      32.753 -14.011 -25.369  0.00  0.00    +0.153 C 
ATOM      7  C   UNL     1      32.436 -11.851 -22.484  0.00  0.00    +0.050 C 
ATOM      8  C   UNL     1      33.111 -14.799 -21.572  0.00  0.00    -0.020 C 
ATOM      9  C   UNL     1      31.969 -13.972 -21.031  0.00  0.00    +0.054 C 
ATOM     10  C   UNL     1      32.030 -12.470 -21.270  0.00  0.00    -0.004 C 
ATOM     11  C   UNL     1      33.749 -12.177 -24.629  0.00  0.00    +0.182 C 
ATOM     12  C   UNL     1      34.420 -15.633 -23.431  0.00  0.00    -0.003 C 
ATOM     13  C   UNL     1      33.900 -15.560 -20.696  0.00  0.00    -0.004 C 
ATOM     14  C   UNL     1      32.324 -10.442 -22.554  0.00  0.00    +0.015 C 
ATOM     15  C   UNL     1      31.565 -11.668 -20.201  0.00  0.00    -0.003 C 
ATOM     16  C   UNL     1      35.197 -16.387 -22.549  0.00  0.00    -0.000 C 
ATOM     17  C   UNL     1      34.937 -16.351 -21.184  0.00  0.00    -0.000 C 
ATOM     18  C   UNL     1      31.873  -9.669 -21.483  0.00  0.00    +0.001 C 
ATOM     19  C   UNL     1      31.499 -10.283 -20.301  0.00  0.00    -0.000 C 
ATOM     20  H   UNL     1      34.513 -10.526 -23.693  0.00  0.00    +0.145 HD
ATOM     21  H   UNL     1      35.218 -10.875 -25.206  0.00  0.00    +0.145 HD
ENDROOT
TORSDOF 0
ENDMDL
MODEL 2
REMARK VINA RESULT:      -9.3      1.487      4.913
REMARK  Name = 3241
REMARK  0 active torsions:
REMARK  status: ('A' for Active; 'I' for Inactive)
REMARK                            x       y       z     vdW  Elec       q    Type
REMARK                         _______ _______ _______ _____ _____    ______ ____
ROOT
ATOM      1  N   UNL     1      33.775 -14.455 -24.794  0.00  0.00    -0.257 N 
ATOM      2  N   UNL     1      33.101 -12.757 -26.180  0.00  0.00    -0.241 NA
ATOM      3  N   UNL     1      32.154 -14.896 -26.502  0.00  0.00    -0.331 N 
ATOM      4  C   UNL     1      34.225 -13.262 -24.087  0.00  0.00    +0.126 C 
ATOM      5  C   UNL     1      33.332 -13.070 -22.878  0.00  0.00    -0.006 C 
ATOM      6  C   UNL     1      34.123 -12.233 -25.231  0.00  0.00    +0.153 C 
ATOM      7  C   UNL     1      34.129 -15.746 -24.367  0.00  0.00    +0.050 C 
ATOM      8  C   UNL     1      33.464 -13.998 -21.823  0.00  0.00    -0.020 C 
ATOM      9  C   UNL     1      34.531 -15.065 -21.877  0.00  0.00    +0.054 C 
ATOM     10  C   UNL     1      34.448 -16.067 -23.019  0.00  0.00    -0.004 C 
ATOM     11  C   UNL     1      33.014 -14.038 -25.875  0.00  0.00    +0.182 C 
ATOM     12  C   UNL     1      32.344 -12.079 -22.786  0.00  0.00    -0.003 C 
ATOM     13  C   UNL     1      32.626 -13.903 -20.701  0.00  0.00    -0.004 C 
ATOM     14  C   UNL     1      34.206 -16.797 -25.312  0.00  0.00    +0.015 C 
ATOM     15  C   UNL     1      34.796 -17.397 -22.684  0.00  0.00    -0.003 C 
ATOM     16  C   UNL     1      31.517 -11.995 -21.664  0.00  0.00    -0.000 C 
ATOM     17  C   UNL     1      31.658 -12.906 -20.623  0.00  0.00    -0.000 C 
ATOM     18  C   UNL     1      34.541 -18.105 -24.957  0.00  0.00    +0.001 C 
ATOM     19  C   UNL     1      34.831 -18.407 -23.638  0.00  0.00    -0.000 C 
ATOM     20  H   UNL     1      32.125 -15.845 -26.239  0.00  0.00    +0.145 HD
ATOM     21  H   UNL     1      31.563 -14.565 -27.217  0.00  0.00    +0.145 HD
ENDROOT
TORSDOF 0
ENDMDL
MODEL 3
REMARK VINA RESULT:      -9.1      1.978      4.297
REMARK  Name = 3241
REMARK  0 active torsions:
REMARK  status: ('A' for Active; 'I' for Inactive)
REMARK                            x       y       z     vdW  Elec       q    Type
REMARK                         _______ _______ _______ _____ _____    ______ ____
ROOT
ATOM      1  N   UNL     1      32.872 -11.608 -22.751  0.00  0.00    -0.257 N 
ATOM      2  N   UNL     1      31.938 -13.445 -21.750  0.00  0.00    -0.241 NA
ATOM      3  N   UNL     1      30.604 -11.512 -21.986  0.00  0.00    -0.331 N 
ATOM      4  C   UNL     1      33.788 -12.679 -23.123  0.00  0.00    +0.126 C 
ATOM      5  C   UNL     1      33.589 -12.973 -24.596  0.00  0.00    -0.006 C 
ATOM      6  C   UNL     1      33.351 -13.753 -22.106  0.00  0.00    +0.153 C 
ATOM      7  C   UNL     1      33.160 -10.259 -23.027  0.00  0.00    +0.050 C 
ATOM      8  C   UNL     1      34.029 -11.998 -25.516  0.00  0.00    -0.020 C 
ATOM      9  C   UNL     1      34.758 -10.768 -25.030  0.00  0.00    +0.054 C 
ATOM     10  C   UNL     1      33.997  -9.838 -24.096  0.00  0.00    -0.004 C 
ATOM     11  C   UNL     1      31.785 -12.187 -22.116  0.00  0.00    +0.182 C 
ATOM     12  C   UNL     1      32.933 -14.114 -25.083  0.00  0.00    -0.003 C 
ATOM     13  C   UNL     1      33.821 -12.191 -26.891  0.00  0.00    -0.004 C 
ATOM     14  C   UNL     1      32.621  -9.247 -22.197  0.00  0.00    +0.015 C 
ATOM     15  C   UNL     1      34.231  -8.457 -24.295  0.00  0.00    -0.003 C 
ATOM     16  C   UNL     1      32.733 -14.294 -26.453  0.00  0.00    -0.000 C 
ATOM     17  C   UNL     1      33.177 -13.334 -27.356  0.00  0.00    -0.000 C 
ATOM     18  C   UNL     1      32.856  -7.889 -22.419  0.00  0.00    +0.001 C 
ATOM     19  C   UNL     1      33.658  -7.492 -23.474  0.00  0.00    -0.000 C 
ATOM     20  H   UNL     1      30.539 -10.573 -22.275  0.00  0.00    +0.145 HD
ATOM     21  H   UNL     1      29.817 -11.965 -21.604  0.00  0.00    +0.145 HD
ENDROOT
TORSDOF 0
ENDMDL
MODEL 4
REMARK VINA RESULT:      -9.1      3.761      5.969
REMARK  Name = 3241
REMARK  0 active torsions:
REMARK  status: ('A' for Active; 'I' for Inactive)
REMARK                            x       y       z     vdW  Elec       q    Type
REMARK                         _______ _______ _______ _____ _____    ______ ____
ROOT
ATOM      1  N   UNL     1      31.902  -8.205 -21.279  0.00  0.00    -0.257 N 
ATOM      2  N   UNL     1      31.951  -5.915 -21.342  0.00  0.00    -0.241 NA
ATOM      3  N   UNL     1      32.901  -6.994 -19.470  0.00  0.00    -0.331 N 
ATOM      4  C   UNL     1      31.618  -7.915 -22.679  0.00  0.00    +0.126 C 
ATOM      5  C   UNL     1      32.841  -8.289 -23.491  0.00  0.00    -0.006 C 
ATOM      6  C   UNL     1      31.260  -6.419 -22.561  0.00  0.00    +0.153 C 
ATOM      7  C   UNL     1      31.808  -9.509 -20.760  0.00  0.00    +0.050 C 
ATOM      8  C   UNL     1      33.135  -9.663 -23.622  0.00  0.00    -0.020 C 
ATOM      9  C   UNL     1      32.194 -10.699 -23.054  0.00  0.00    +0.054 C 
ATOM     10  C   UNL     1      31.976 -10.681 -21.548  0.00  0.00    -0.004 C 
ATOM     11  C   UNL     1      32.232  -7.010 -20.661  0.00  0.00    +0.182 C 
ATOM     12  C   UNL     1      33.725  -7.354 -24.049  0.00  0.00    -0.003 C 
ATOM     13  C   UNL     1      34.285 -10.068 -24.317  0.00  0.00    -0.004 C 
ATOM     14  C   UNL     1      31.507  -9.695 -19.390  0.00  0.00    +0.015 C 
ATOM     15  C   UNL     1      31.861 -11.952 -20.938  0.00  0.00    -0.003 C 
ATOM     16  C   UNL     1      34.866  -7.770 -24.739  0.00  0.00    -0.000 C 
ATOM     17  C   UNL     1      35.145  -9.125 -24.873  0.00  0.00    -0.000 C 
ATOM     18  C   UNL     1      31.409 -10.959 -18.806  0.00  0.00    +0.001 C 
ATOM     19  C   UNL     1      31.592 -12.091 -19.581  0.00  0.00    -0.000 C 
ATOM     20  H   UNL     1      33.088  -7.839 -18.998  0.00  0.00    +0.145 HD
ATOM     21  H   UNL     1      33.198  -6.139 -19.082  0.00  0.00    +0.145 HD
ENDROOT
TORSDOF 0
ENDMDL
MODEL 5
REMARK VINA RESULT:      -9.1      9.607     12.267
REMARK  Name = 3241
REMARK  0 active torsions:
REMARK  status: ('A' for Active; 'I' for Inactive)
REMARK                            x       y       z     vdW  Elec       q    Type
REMARK                         _______ _______ _______ _____ _____    ______ ____
ROOT
ATOM      1  N   UNL     1      35.657 -23.105 -16.456  0.00  0.00    -0.257 N 
ATOM      2  N   UNL     1      36.890 -23.811 -14.658  0.00  0.00    -0.241 NA
ATOM      3  N   UNL     1      37.233 -21.612 -15.444  0.00  0.00    -0.331 N 
ATOM      4  C   UNL     1      34.934 -24.292 -16.014  0.00  0.00    +0.126 C 
ATOM      5  C   UNL     1      33.642 -23.838 -15.365  0.00  0.00    -0.006 C 
ATOM      6  C   UNL     1      36.012 -24.926 -15.112  0.00  0.00    +0.153 C 
ATOM      7  C   UNL     1      35.327 -22.440 -17.650  0.00  0.00    +0.050 C 
ATOM      8  C   UNL     1      32.650 -23.296 -16.209  0.00  0.00    -0.020 C 
ATOM      9  C   UNL     1      32.852 -23.276 -17.705  0.00  0.00    +0.054 C 
ATOM     10  C   UNL     1      34.030 -22.470 -18.233  0.00  0.00    -0.004 C 
ATOM     11  C   UNL     1      36.643 -22.842 -15.519  0.00  0.00    +0.182 C 
ATOM     12  C   UNL     1      33.414 -23.860 -13.982  0.00  0.00    -0.003 C 
ATOM     13  C   UNL     1      31.455 -22.809 -15.658  0.00  0.00    -0.004 C 
ATOM     14  C   UNL     1      36.326 -21.717 -18.344  0.00  0.00    +0.015 C 
ATOM     15  C   UNL     1      33.793 -21.771 -19.440  0.00  0.00    -0.003 C 
ATOM     16  C   UNL     1      32.219 -23.373 -13.446  0.00  0.00    -0.000 C 
ATOM     17  C   UNL     1      31.241 -22.848 -14.283  0.00  0.00    -0.000 C 
ATOM     18  C   UNL     1      36.067 -21.025 -19.529  0.00  0.00    +0.001 C 
ATOM     19  C   UNL     1      34.796 -21.047 -20.075  0.00  0.00    -0.000 C 
ATOM     20  H   UNL     1      37.015 -20.920 -16.111  0.00  0.00    +0.145 HD
ATOM     21  H   UNL     1      37.874 -21.416 -14.724  0.00  0.00    +0.145 HD
ENDROOT
TORSDOF 0
ENDMDL
MODEL 6
REMARK VINA RESULT:      -9.0      1.980      3.818
REMARK  Name = 3241
REMARK  0 active torsions:
REMARK  status: ('A' for Active; 'I' for Inactive)
REMARK                            x       y       z     vdW  Elec       q    Type
REMARK                         _______ _______ _______ _____ _____    ______ ____
ROOT
ATOM      1  N   UNL     1      33.253 -14.493 -21.625  0.00  0.00    -0.257 N 
ATOM      2  N   UNL     1      33.907 -16.605 -21.022  0.00  0.00    -0.241 NA
ATOM      3  N   UNL     1      31.725 -15.913 -20.448  0.00  0.00    -0.331 N 
ATOM      4  C   UNL     1      34.435 -14.714 -22.450  0.00  0.00    +0.126 C 
ATOM      5  C   UNL     1      33.976 -14.911 -23.881  0.00  0.00    -0.006 C 
ATOM      6  C   UNL     1      35.039 -15.926 -21.712  0.00  0.00    +0.153 C 
ATOM      7  C   UNL     1      32.619 -13.240 -21.561  0.00  0.00    +0.050 C 
ATOM      8  C   UNL     1      33.461 -13.783 -24.556  0.00  0.00    -0.020 C 
ATOM      9  C   UNL     1      33.475 -12.427 -23.892  0.00  0.00    +0.054 C 
ATOM     10  C   UNL     1      32.672 -12.279 -22.608  0.00  0.00    -0.004 C 
ATOM     11  C   UNL     1      32.961 -15.686 -20.985  0.00  0.00    +0.182 C 
ATOM     12  C   UNL     1      33.967 -16.152 -24.534  0.00  0.00    -0.003 C 
ATOM     13  C   UNL     1      32.970 -13.917 -25.864  0.00  0.00    -0.004 C 
ATOM     14  C   UNL     1      31.905 -12.879 -20.394  0.00  0.00    +0.015 C 
ATOM     15  C   UNL     1      32.004 -11.042 -22.451  0.00  0.00    -0.003 C 
ATOM     16  C   UNL     1      33.476 -16.271 -25.837  0.00  0.00    -0.000 C 
ATOM     17  C   UNL     1      32.978 -15.155 -26.500  0.00  0.00    -0.000 C 
ATOM     18  C   UNL     1      31.243 -11.656 -20.266  0.00  0.00    +0.001 C 
ATOM     19  C   UNL     1      31.287 -10.738 -21.300  0.00  0.00    -0.000 C 
ATOM     20  H   UNL     1      31.050 -15.195 -20.444  0.00  0.00    +0.145 HD
ATOM     21  H   UNL     1      31.507 -16.794 -20.067  0.00  0.00    +0.145 HD
ENDROOT
TORSDOF 0
ENDMDL
MODEL 7
REMARK VINA RESULT:      -8.7      1.985      5.621
REMARK  Name = 3241
REMARK  0 active torsions:
REMARK  status: ('A' for Active; 'I' for Inactive)
REMARK                            x       y       z     vdW  Elec       q    Type
REMARK                         _______ _______ _______ _____ _____    ______ ____
ROOT
ATOM      1  N   UNL     1      33.353 -14.607 -22.452  0.00  0.00    -0.257 N 
ATOM      2  N   UNL     1      32.883 -13.482 -20.511  0.00  0.00    -0.241 NA
ATOM      3  N   UNL     1      34.837 -14.805 -20.582  0.00  0.00    -0.331 N 
ATOM      4  C   UNL     1      32.359 -13.629 -22.878  0.00  0.00    +0.126 C 
ATOM      5  C   UNL     1      33.067 -12.573 -23.703  0.00  0.00    -0.006 C 
ATOM      6  C   UNL     1      31.802 -13.215 -21.501  0.00  0.00    +0.153 C 
ATOM      7  C   UNL     1      33.803 -15.625 -23.310  0.00  0.00    +0.050 C 
ATOM      8  C   UNL     1      33.537 -12.956 -24.977  0.00  0.00    -0.020 C 
ATOM      9  C   UNL     1      33.243 -14.337 -25.513  0.00  0.00    +0.054 C 
ATOM     10  C   UNL     1      33.800 -15.515 -24.728  0.00  0.00    -0.004 C 
ATOM     11  C   UNL     1      33.686 -14.321 -21.138  0.00  0.00    +0.182 C 
ATOM     12  C   UNL     1      33.339 -11.276 -23.244  0.00  0.00    -0.003 C 
ATOM     13  C   UNL     1      34.248 -12.036 -25.764  0.00  0.00    -0.004 C 
ATOM     14  C   UNL     1      34.266 -16.845 -22.762  0.00  0.00    +0.015 C 
ATOM     15  C   UNL     1      34.272 -16.595 -25.511  0.00  0.00    -0.003 C 
ATOM     16  C   UNL     1      34.047 -10.370 -24.038  0.00  0.00    -0.000 C 
ATOM     17  C   UNL     1      34.501 -10.750 -25.296  0.00  0.00    -0.000 C 
ATOM     18  C   UNL     1      34.738 -17.894 -23.554  0.00  0.00    +0.001 C 
ATOM     19  C   UNL     1      34.747 -17.766 -24.932  0.00  0.00    -0.000 C 
ATOM     20  H   UNL     1      35.404 -15.429 -21.090  0.00  0.00    +0.145 HD
ATOM     21  H   UNL     1      35.099 -14.529 -19.674  0.00  0.00    +0.145 HD
ENDROOT
TORSDOF 0
ENDMDL
MODEL 8
REMARK VINA RESULT:      -8.6     11.229     13.995
REMARK  Name = 3241
REMARK  0 active torsions:
REMARK  status: ('A' for Active; 'I' for Inactive)
REMARK                            x       y       z     vdW  Elec       q    Type
REMARK                         _______ _______ _______ _____ _____    ______ ____
ROOT
ATOM      1  N   UNL     1      35.026 -23.618 -14.366  0.00  0.00    -0.257 N 
ATOM      2  N   UNL     1      34.431 -24.461 -12.320  0.00  0.00    -0.241 NA
ATOM      3  N   UNL     1      33.367 -25.341 -14.234  0.00  0.00    -0.331 N 
ATOM      4  C   UNL     1      36.110 -23.165 -13.503  0.00  0.00    +0.126 C 
ATOM      5  C   UNL     1      37.346 -23.974 -13.841  0.00  0.00    -0.006 C 
ATOM      6  C   UNL     1      35.452 -23.394 -12.126  0.00  0.00    +0.153 C 
ATOM      7  C   UNL     1      34.908 -23.180 -15.697  0.00  0.00    +0.050 C 
ATOM      8  C   UNL     1      37.959 -23.726 -15.088  0.00  0.00    -0.020 C 
ATOM      9  C   UNL     1      37.445 -22.623 -15.982  0.00  0.00    +0.054 C 
ATOM     10  C   UNL     1      36.013 -22.750 -16.482  0.00  0.00    -0.004 C 
ATOM     11  C   UNL     1      34.227 -24.473 -13.623  0.00  0.00    +0.182 C 
ATOM     12  C   UNL     1      37.861 -24.991 -13.026  0.00  0.00    -0.003 C 
ATOM     13  C   UNL     1      39.074 -24.482 -15.480  0.00  0.00    -0.004 C 
ATOM     14  C   UNL     1      33.631 -23.130 -16.305  0.00  0.00    +0.015 C 
ATOM     15  C   UNL     1      35.797 -22.324 -17.814  0.00  0.00    -0.003 C 
ATOM     16  C   UNL     1      38.972 -25.736 -13.427  0.00  0.00    -0.000 C 
ATOM     17  C   UNL     1      39.578 -25.482 -14.652  0.00  0.00    -0.000 C 
ATOM     18  C   UNL     1      33.442 -22.717 -17.625  0.00  0.00    +0.001 C 
ATOM     19  C   UNL     1      34.529 -22.319 -18.384  0.00  0.00    -0.000 C 
ATOM     20  H   UNL     1      33.249 -25.311 -15.212  0.00  0.00    +0.145 HD
ATOM     21  H   UNL     1      32.865 -25.996 -13.698  0.00  0.00    +0.145 HD
ENDROOT
TORSDOF 0
ENDMDL
MODEL 9
REMARK VINA RESULT:      -8.3      2.052      5.392
REMARK  Name = 3241
REMARK  0 active torsions:
REMARK  status: ('A' for Active; 'I' for Inactive)
REMARK                            x       y       z     vdW  Elec       q    Type
REMARK                         _______ _______ _______ _____ _____    ______ ____
ROOT
ATOM      1  N   UNL     1      32.009 -12.181 -21.889  0.00  0.00    -0.257 N 
ATOM      2  N   UNL     1      30.624 -10.781 -20.716  0.00  0.00    -0.241 NA
ATOM      3  N   UNL     1      32.139 -12.120 -19.498  0.00  0.00    -0.331 N 
ATOM      4  C   UNL     1      31.530 -11.264 -22.917  0.00  0.00    +0.126 C 
ATOM      5  C   UNL     1      32.675 -10.348 -23.296  0.00  0.00    -0.006 C 
ATOM      6  C   UNL     1      30.329 -10.649 -22.171  0.00  0.00    +0.153 C 
ATOM      7  C   UNL     1      32.771 -13.318 -22.209  0.00  0.00    +0.050 C 
ATOM      8  C   UNL     1      33.749 -10.917 -24.013  0.00  0.00    -0.020 C 
ATOM      9  C   UNL     1      33.686 -12.358 -24.460  0.00  0.00    +0.054 C 
ATOM     10  C   UNL     1      33.585 -13.415 -23.371  0.00  0.00    -0.004 C 
ATOM     11  C   UNL     1      31.559 -11.710 -20.666  0.00  0.00    +0.182 C 
ATOM     12  C   UNL     1      32.757  -9.001 -22.914  0.00  0.00    -0.003 C 
ATOM     13  C   UNL     1      34.863 -10.130 -24.344  0.00  0.00    -0.004 C 
ATOM     14  C   UNL     1      32.724 -14.450 -21.362  0.00  0.00    +0.015 C 
ATOM     15  C   UNL     1      34.316 -14.603 -23.611  0.00  0.00    -0.003 C 
ATOM     16  C   UNL     1      33.871  -8.228 -23.251  0.00  0.00    -0.000 C 
ATOM     17  C   UNL     1      34.922  -8.792 -23.965  0.00  0.00    -0.000 C 
ATOM     18  C   UNL     1      33.463 -15.608 -21.612  0.00  0.00    +0.001 C 
ATOM     19  C   UNL     1      34.266 -15.682 -22.736  0.00  0.00    -0.000 C 
ATOM     20  H   UNL     1      32.834 -12.818 -19.512  0.00  0.00    +0.145 HD
ATOM     21  H   UNL     1      31.862 -11.718 -18.643  0.00  0.00    +0.145 HD
ENDROOT
TORSDOF 0
ENDMDL
