MODEL 1
REMARK VINA RESULT:     -10.3      0.000      0.000
REMARK  Name = 439246
REMARK  4 active torsions:
REMARK  status: ('A' for Active; 'I' for Inactive)
REMARK    1  A    between atoms: C_3  and  C_12
REMARK    2  A    between atoms: C_8  and  O_20
REMARK    3  A    between atoms: C_11  and  O_22
REMARK    4  A    between atoms: C_17  and  O_18
REMARK                            x       y       z     vdW  Elec       q    Type
REMARK                         _______ _______ _______ _____ _____    ______ ____
ROOT
ATOM      1  O   UNL     1      34.385 -17.345 -21.697  0.00  0.00    -0.474 OA
ATOM      2  O   UNL     1      34.730 -18.040 -25.725  0.00  0.00    -0.291 OA
ATOM      3  C   UNL     1      34.222 -18.669 -22.230  0.00  0.00    +0.196 C 
ATOM      4  C   UNL     1      35.058 -18.858 -23.494  0.00  0.00    +0.117 C 
ATOM      5  C   UNL     1      34.161 -16.545 -23.990  0.00  0.00    +0.103 C 
ATOM      6  C   UNL     1      34.635 -17.839 -24.521  0.00  0.00    +0.183 C 
ATOM      7  C   UNL     1      34.084 -16.364 -22.606  0.00  0.00    +0.148 C 
ATOM      8  C   UNL     1      33.835 -15.499 -24.857  0.00  0.00    +0.142 C 
ATOM      9  C   UNL     1      33.713 -15.122 -22.088  0.00  0.00    +0.074 C 
ATOM     10  C   UNL     1      33.445 -14.266 -24.334  0.00  0.00    +0.073 C 
ATOM     11  C   UNL     1      33.389 -14.076 -22.952  0.00  0.00    +0.140 C 
ENDROOT
BRANCH   3  12
ATOM     12  C   UNL     1      34.615 -19.667 -21.161  0.00  0.00    +0.018 C 
ATOM     13  C   UNL     1      33.633 -20.413 -20.510  0.00  0.00    +0.002 C 
ATOM     14  C   UNL     1      35.958 -19.841 -20.830  0.00  0.00    +0.002 C 
ATOM     15  C   UNL     1      33.995 -21.332 -19.526  0.00  0.00    +0.036 C 
ATOM     16  C   UNL     1      36.320 -20.759 -19.845  0.00  0.00    +0.036 C 
ATOM     17  C   UNL     1      35.338 -21.506 -19.193  0.00  0.00    +0.134 C 
BRANCH  17  18
ATOM     18  O   UNL     1      35.692 -22.403 -18.233  0.00  0.00    -0.506 OA
ATOM     19  H   UNL     1      35.029 -22.874 -17.765  0.00  0.00    +0.292 HD
ENDBRANCH  17  18
ENDBRANCH   3  12
BRANCH   8  20
ATOM     20  O   UNL     1      33.889 -15.623 -26.212  0.00  0.00    -0.505 OA
ATOM     21  H   UNL     1      34.607 -15.254 -26.689  0.00  0.00    +0.292 HD
ENDBRANCH   8  20
BRANCH  11  22
ATOM     22  O   UNL     1      33.015 -12.868 -22.447  0.00  0.00    -0.505 OA
ATOM     23  H   UNL     1      32.678 -12.206 -23.017  0.00  0.00    +0.292 HD
ENDBRANCH  11  22
TORSDOF 4
ENDMDL
MODEL 2
REMARK VINA RESULT:     -10.0      0.855      1.407
REMARK  Name = 439246
REMARK  4 active torsions:
REMARK  status: ('A' for Active; 'I' for Inactive)
REMARK    1  A    between atoms: C_3  and  C_12
REMARK    2  A    between atoms: C_8  and  O_20
REMARK    3  A    between atoms: C_11  and  O_22
REMARK    4  A    between atoms: C_17  and  O_18
REMARK                            x       y       z     vdW  Elec       q    Type
REMARK                         _______ _______ _______ _____ _____    ______ ____
ROOT
ATOM      1  O   UNL     1      34.194 -16.910 -21.414  0.00  0.00    -0.474 OA
ATOM      2  O   UNL     1      34.862 -16.853 -25.461  0.00  0.00    -0.291 OA
ATOM      3  C   UNL     1      34.341 -18.134 -22.151  0.00  0.00    +0.196 C 
ATOM      4  C   UNL     1      35.255 -17.941 -23.359  0.00  0.00    +0.117 C 
ATOM      5  C   UNL     1      33.911 -15.808 -23.570  0.00  0.00    +0.103 C 
ATOM      6  C   UNL     1      34.672 -16.875 -24.252  0.00  0.00    +0.183 C 
ATOM      7  C   UNL     1      33.734 -15.875 -22.185  0.00  0.00    +0.148 C 
ATOM      8  C   UNL     1      33.410 -14.723 -24.294  0.00  0.00    +0.142 C 
ATOM      9  C   UNL     1      33.085 -14.836 -21.518  0.00  0.00    +0.074 C 
ATOM     10  C   UNL     1      32.743 -13.697 -23.624  0.00  0.00    +0.073 C 
ATOM     11  C   UNL     1      32.585 -13.750 -22.238  0.00  0.00    +0.140 C 
ENDROOT
BRANCH   3  12
ATOM     12  C   UNL     1      34.888 -19.193 -21.216  0.00  0.00    +0.018 C 
ATOM     13  C   UNL     1      36.251 -19.223 -20.920  0.00  0.00    +0.002 C 
ATOM     14  C   UNL     1      34.030 -20.135 -20.652  0.00  0.00    +0.002 C 
ATOM     15  C   UNL     1      36.754 -20.198 -20.060  0.00  0.00    +0.036 C 
ATOM     16  C   UNL     1      34.534 -21.111 -19.793  0.00  0.00    +0.036 C 
ATOM     17  C   UNL     1      35.897 -21.142 -19.495  0.00  0.00    +0.134 C 
BRANCH  17  18
ATOM     18  O   UNL     1      36.389 -22.093 -18.656  0.00  0.00    -0.506 OA
ATOM     19  H   UNL     1      36.394 -22.993 -18.920  0.00  0.00    +0.292 HD
ENDBRANCH  17  18
ENDBRANCH   3  12
BRANCH   8  20
ATOM     20  O   UNL     1      33.550 -14.610 -25.644  0.00  0.00    -0.505 OA
ATOM     21  H   UNL     1      32.936 -14.101 -26.138  0.00  0.00    +0.292 HD
ENDBRANCH   8  20
BRANCH  11  22
ATOM     22  O   UNL     1      31.940 -12.742 -21.588  0.00  0.00    -0.505 OA
ATOM     23  H   UNL     1      31.038 -12.570 -21.769  0.00  0.00    +0.292 HD
ENDBRANCH  11  22
TORSDOF 4
ENDMDL
MODEL 3
REMARK VINA RESULT:      -9.9      2.524      7.412
REMARK  Name = 439246
REMARK  4 active torsions:
REMARK  status: ('A' for Active; 'I' for Inactive)
REMARK    1  A    between atoms: C_3  and  C_12
REMARK    2  A    between atoms: C_8  and  O_20
REMARK    3  A    between atoms: C_11  and  O_22
REMARK    4  A    between atoms: C_17  and  O_18
REMARK                            x       y       z     vdW  Elec       q    Type
REMARK                         _______ _______ _______ _____ _____    ______ ____
ROOT
ATOM      1  O   UNL     1      33.745 -14.244 -22.636  0.00  0.00    -0.474 OA
ATOM      2  O   UNL     1      33.543 -15.870 -26.397  0.00  0.00    -0.291 OA
ATOM      3  C   UNL     1      33.754 -13.404 -23.800  0.00  0.00    +0.196 C 
ATOM      4  C   UNL     1      32.975 -14.045 -24.946  0.00  0.00    +0.117 C 
ATOM      5  C   UNL     1      34.210 -16.103 -24.144  0.00  0.00    +0.103 C 
ATOM      6  C   UNL     1      33.594 -15.379 -25.276  0.00  0.00    +0.183 C 
ATOM      7  C   UNL     1      34.230 -15.502 -22.882  0.00  0.00    +0.148 C 
ATOM      8  C   UNL     1      34.727 -17.388 -24.323  0.00  0.00    +0.142 C 
ATOM      9  C   UNL     1      34.737 -16.204 -21.788  0.00  0.00    +0.074 C 
ATOM     10  C   UNL     1      35.252 -18.077 -23.229  0.00  0.00    +0.073 C 
ATOM     11  C   UNL     1      35.253 -17.489 -21.963  0.00  0.00    +0.140 C 
ENDROOT
BRANCH   3  12
ATOM     12  C   UNL     1      33.165 -12.059 -23.425  0.00  0.00    +0.018 C 
ATOM     13  C   UNL     1      33.654 -10.896 -24.018  0.00  0.00    +0.002 C 
ATOM     14  C   UNL     1      32.136 -11.987 -22.488  0.00  0.00    +0.002 C 
ATOM     15  C   UNL     1      33.112  -9.658 -23.672  0.00  0.00    +0.036 C 
ATOM     16  C   UNL     1      31.594 -10.750 -22.142  0.00  0.00    +0.036 C 
ATOM     17  C   UNL     1      32.082  -9.584 -22.735  0.00  0.00    +0.134 C 
BRANCH  17  18
ATOM     18  O   UNL     1      31.552  -8.376 -22.398  0.00  0.00    -0.506 OA
ATOM     19  H   UNL     1      31.786  -7.974 -21.585  0.00  0.00    +0.292 HD
ENDBRANCH  17  18
ENDBRANCH   3  12
BRANCH   8  20
ATOM     20  O   UNL     1      34.736 -18.017 -25.531  0.00  0.00    -0.505 OA
ATOM     21  H   UNL     1      33.979 -17.982 -26.083  0.00  0.00    +0.292 HD
ENDBRANCH   8  20
BRANCH  11  22
ATOM     22  O   UNL     1      35.760 -18.169 -20.898  0.00  0.00    -0.505 OA
ATOM     23  H   UNL     1      36.360 -18.874 -21.035  0.00  0.00    +0.292 HD
ENDBRANCH  11  22
TORSDOF 4
ENDMDL
MODEL 4
REMARK VINA RESULT:      -9.7      1.973      6.774
REMARK  Name = 439246
REMARK  4 active torsions:
REMARK  status: ('A' for Active; 'I' for Inactive)
REMARK    1  A    between atoms: C_3  and  C_12
REMARK    2  A    between atoms: C_8  and  O_20
REMARK    3  A    between atoms: C_11  and  O_22
REMARK    4  A    between atoms: C_17  and  O_18
REMARK                            x       y       z     vdW  Elec       q    Type
REMARK                         _______ _______ _______ _____ _____    ______ ____
ROOT
ATOM      1  O   UNL     1      33.686 -18.307 -21.136  0.00  0.00    -0.474 OA
ATOM      2  O   UNL     1      37.680 -19.235 -21.215  0.00  0.00    -0.291 OA
ATOM      3  C   UNL     1      34.680 -17.272 -21.120  0.00  0.00    +0.196 C 
ATOM      4  C   UNL     1      35.942 -17.712 -21.858  0.00  0.00    +0.117 C 
ATOM      5  C   UNL     1      35.489 -19.856 -20.595  0.00  0.00    +0.103 C 
ATOM      6  C   UNL     1      36.489 -18.953 -21.201  0.00  0.00    +0.183 C 
ATOM      7  C   UNL     1      34.140 -19.491 -20.617  0.00  0.00    +0.148 C 
ATOM      8  C   UNL     1      35.881 -21.079 -20.044  0.00  0.00    +0.142 C 
ATOM      9  C   UNL     1      33.176 -20.368 -20.118  0.00  0.00    +0.074 C 
ATOM     10  C   UNL     1      34.915 -21.943 -19.527  0.00  0.00    +0.073 C 
ATOM     11  C   UNL     1      33.564 -21.591 -19.569  0.00  0.00    +0.140 C 
ENDROOT
BRANCH   3  12
ATOM     12  C   UNL     1      34.086 -16.028 -21.748  0.00  0.00    +0.018 C 
ATOM     13  C   UNL     1      32.970 -15.422 -21.171  0.00  0.00    +0.002 C 
ATOM     14  C   UNL     1      34.656 -15.490 -22.901  0.00  0.00    +0.002 C 
ATOM     15  C   UNL     1      32.424 -14.276 -21.750  0.00  0.00    +0.036 C 
ATOM     16  C   UNL     1      34.109 -14.345 -23.480  0.00  0.00    +0.036 C 
ATOM     17  C   UNL     1      32.992 -13.737 -22.904  0.00  0.00    +0.134 C 
BRANCH  17  18
ATOM     18  O   UNL     1      32.459 -12.620 -23.468  0.00  0.00    -0.506 OA
ATOM     19  H   UNL     1      31.530 -12.494 -23.470  0.00  0.00    +0.292 HD
ENDBRANCH  17  18
ENDBRANCH   3  12
BRANCH   8  20
ATOM     20  O   UNL     1      37.181 -21.481 -19.993  0.00  0.00    -0.505 OA
ATOM     21  H   UNL     1      37.583 -21.664 -19.165  0.00  0.00    +0.292 HD
ENDBRANCH   8  20
BRANCH  11  22
ATOM     22  O   UNL     1      32.625 -22.441 -19.070  0.00  0.00    -0.505 OA
ATOM     23  H   UNL     1      32.477 -22.487 -18.147  0.00  0.00    +0.292 HD
ENDBRANCH  11  22
TORSDOF 4
ENDMDL
MODEL 5
REMARK VINA RESULT:      -9.5      1.303      2.896
REMARK  Name = 439246
REMARK  4 active torsions:
REMARK  status: ('A' for Active; 'I' for Inactive)
REMARK    1  A    between atoms: C_3  and  C_12
REMARK    2  A    between atoms: C_8  and  O_20
REMARK    3  A    between atoms: C_11  and  O_22
REMARK    4  A    between atoms: C_17  and  O_18
REMARK                            x       y       z     vdW  Elec       q    Type
REMARK                         _______ _______ _______ _____ _____    ______ ____
ROOT
ATOM      1  O   UNL     1      34.182 -17.236 -23.118  0.00  0.00    -0.474 OA
ATOM      2  O   UNL     1      33.120 -13.953 -20.900  0.00  0.00    -0.291 OA
ATOM      3  C   UNL     1      34.671 -17.066 -21.779  0.00  0.00    +0.196 C 
ATOM      4  C   UNL     1      33.673 -16.287 -20.925  0.00  0.00    +0.117 C 
ATOM      5  C   UNL     1      33.525 -14.890 -23.029  0.00  0.00    +0.103 C 
ATOM      6  C   UNL     1      33.433 -14.939 -21.555  0.00  0.00    +0.183 C 
ATOM      7  C   UNL     1      33.874 -16.048 -23.728  0.00  0.00    +0.148 C 
ATOM      8  C   UNL     1      33.227 -13.711 -23.718  0.00  0.00    +0.142 C 
ATOM      9  C   UNL     1      33.890 -16.037 -25.124  0.00  0.00    +0.074 C 
ATOM     10  C   UNL     1      33.266 -13.701 -25.113  0.00  0.00    +0.073 C 
ATOM     11  C   UNL     1      33.591 -14.862 -25.815  0.00  0.00    +0.140 C 
ENDROOT
BRANCH   3  12
ATOM     12  C   UNL     1      34.942 -18.435 -21.190  0.00  0.00    +0.018 C 
ATOM     13  C   UNL     1      33.878 -19.280 -20.877  0.00  0.00    +0.002 C 
ATOM     14  C   UNL     1      36.253 -18.849 -20.963  0.00  0.00    +0.002 C 
ATOM     15  C   UNL     1      34.127 -20.541 -20.335  0.00  0.00    +0.036 C 
ATOM     16  C   UNL     1      36.503 -20.109 -20.420  0.00  0.00    +0.036 C 
ATOM     17  C   UNL     1      35.439 -20.956 -20.106  0.00  0.00    +0.134 C 
BRANCH  17  18
ATOM     18  O   UNL     1      35.682 -22.186 -19.577  0.00  0.00    -0.506 OA
ATOM     19  H   UNL     1      35.419 -22.378 -18.698  0.00  0.00    +0.292 HD
ENDBRANCH  17  18
ENDBRANCH   3  12
BRANCH   8  20
ATOM     20  O   UNL     1      32.887 -12.554 -23.085  0.00  0.00    -0.505 OA
ATOM     21  H   UNL     1      33.150 -11.729 -23.445  0.00  0.00    +0.292 HD
ENDBRANCH   8  20
BRANCH  11  22
ATOM     22  O   UNL     1      33.619 -14.848 -27.176  0.00  0.00    -0.505 OA
ATOM     23  H   UNL     1      33.378 -14.073 -27.641  0.00  0.00    +0.292 HD
ENDBRANCH  11  22
TORSDOF 4
ENDMDL
MODEL 6
REMARK VINA RESULT:      -9.4      5.327     11.346
REMARK  Name = 439246
REMARK  4 active torsions:
REMARK  status: ('A' for Active; 'I' for Inactive)
REMARK    1  A    between atoms: C_3  and  C_12
REMARK    2  A    between atoms: C_8  and  O_20
REMARK    3  A    between atoms: C_11  and  O_22
REMARK    4  A    between atoms: C_17  and  O_18
REMARK                            x       y       z     vdW  Elec       q    Type
REMARK                         _______ _______ _______ _____ _____    ______ ____
ROOT
ATOM      1  O   UNL     1      36.667 -23.668 -15.909  0.00  0.00    -0.474 OA
ATOM      2  O   UNL     1      34.066 -24.025 -12.757  0.00  0.00    -0.291 OA
ATOM      3  C   UNL     1      35.247 -23.628 -16.120  0.00  0.00    +0.196 C 
ATOM      4  C   UNL     1      34.527 -23.056 -14.902  0.00  0.00    +0.117 C 
ATOM      5  C   UNL     1      36.171 -24.547 -13.689  0.00  0.00    +0.103 C 
ATOM      6  C   UNL     1      34.838 -23.909 -13.700  0.00  0.00    +0.183 C 
ATOM      7  C   UNL     1      37.019 -24.372 -14.786  0.00  0.00    +0.148 C 
ATOM      8  C   UNL     1      36.596 -25.281 -12.579  0.00  0.00    +0.142 C 
ATOM      9  C   UNL     1      38.309 -24.903 -14.758  0.00  0.00    +0.074 C 
ATOM     10  C   UNL     1      37.880 -25.828 -12.565  0.00  0.00    +0.073 C 
ATOM     11  C   UNL     1      38.737 -25.635 -13.649  0.00  0.00    +0.140 C 
ENDROOT
BRANCH   3  12
ATOM     12  C   UNL     1      34.971 -22.799 -17.358  0.00  0.00    +0.018 C 
ATOM     13  C   UNL     1      36.002 -22.072 -17.952  0.00  0.00    +0.002 C 
ATOM     14  C   UNL     1      33.688 -22.764 -17.901  0.00  0.00    +0.002 C 
ATOM     15  C   UNL     1      35.747 -21.309 -19.091  0.00  0.00    +0.036 C 
ATOM     16  C   UNL     1      33.433 -22.000 -19.039  0.00  0.00    +0.036 C 
ATOM     17  C   UNL     1      34.463 -21.272 -19.636  0.00  0.00    +0.134 C 
BRANCH  17  18
ATOM     18  O   UNL     1      34.215 -20.527 -20.747  0.00  0.00    -0.506 OA
ATOM     19  H   UNL     1      34.420 -20.869 -21.595  0.00  0.00    +0.292 HD
ENDBRANCH  17  18
ENDBRANCH   3  12
BRANCH   8  20
ATOM     20  O   UNL     1      35.809 -25.486 -11.486  0.00  0.00    -0.505 OA
ATOM     21  H   UNL     1      35.681 -24.796 -10.864  0.00  0.00    +0.292 HD
ENDBRANCH   8  20
BRANCH  11  22
ATOM     22  O   UNL     1      39.991 -26.164 -13.627  0.00  0.00    -0.505 OA
ATOM     23  H   UNL     1      40.715 -25.665 -13.950  0.00  0.00    +0.292 HD
ENDBRANCH  11  22
TORSDOF 4
ENDMDL
MODEL 7
REMARK VINA RESULT:      -9.3      4.872      7.875
REMARK  Name = 439246
REMARK  4 active torsions:
REMARK  status: ('A' for Active; 'I' for Inactive)
REMARK    1  A    between atoms: C_3  and  C_12
REMARK    2  A    between atoms: C_8  and  O_20
REMARK    3  A    between atoms: C_11  and  O_22
REMARK    4  A    between atoms: C_17  and  O_18
REMARK                            x       y       z     vdW  Elec       q    Type
REMARK                         _______ _______ _______ _____ _____    ______ ____
ROOT
ATOM      1  O   UNL     1      36.034 -22.763 -17.045  0.00  0.00    -0.474 OA
ATOM      2  O   UNL     1      32.087 -22.725 -18.164  0.00  0.00    -0.291 OA
ATOM      3  C   UNL     1      34.994 -22.957 -16.074  0.00  0.00    +0.196 C 
ATOM      4  C   UNL     1      33.770 -23.617 -16.706  0.00  0.00    +0.117 C 
ATOM      5  C   UNL     1      34.289 -21.966 -18.550  0.00  0.00    +0.103 C 
ATOM      6  C   UNL     1      33.264 -22.746 -17.826  0.00  0.00    +0.183 C 
ATOM      7  C   UNL     1      35.620 -22.036 -18.131  0.00  0.00    +0.148 C 
ATOM      8  C   UNL     1      33.939 -21.200 -19.666  0.00  0.00    +0.142 C 
ATOM      9  C   UNL     1      36.610 -21.366 -18.851  0.00  0.00    +0.074 C 
ATOM     10  C   UNL     1      34.931 -20.516 -20.369  0.00  0.00    +0.073 C 
ATOM     11  C   UNL     1      36.264 -20.603 -19.967  0.00  0.00    +0.140 C 
ENDROOT
BRANCH   3  12
ATOM     12  C   UNL     1      35.546 -23.799 -14.943  0.00  0.00    +0.018 C 
ATOM     13  C   UNL     1      36.695 -24.564 -15.142  0.00  0.00    +0.002 C 
ATOM     14  C   UNL     1      34.906 -23.809 -13.705  0.00  0.00    +0.002 C 
ATOM     15  C   UNL     1      37.204 -25.339 -14.100  0.00  0.00    +0.036 C 
ATOM     16  C   UNL     1      35.414 -24.585 -12.663  0.00  0.00    +0.036 C 
ATOM     17  C   UNL     1      36.564 -25.351 -12.861  0.00  0.00    +0.134 C 
BRANCH  17  18
ATOM     18  O   UNL     1      37.060 -26.108 -11.845  0.00  0.00    -0.506 OA
ATOM     19  H   UNL     1      36.575 -26.197 -11.048  0.00  0.00    +0.292 HD
ENDBRANCH  17  18
ENDBRANCH   3  12
BRANCH   8  20
ATOM     20  O   UNL     1      32.657 -21.094 -20.113  0.00  0.00    -0.505 OA
ATOM     21  H   UNL     1      32.333 -21.697 -20.754  0.00  0.00    +0.292 HD
ENDBRANCH   8  20
BRANCH  11  22
ATOM     22  O   UNL     1      37.229 -19.939 -20.662  0.00  0.00    -0.505 OA
ATOM     23  H   UNL     1      37.707 -20.379 -21.336  0.00  0.00    +0.292 HD
ENDBRANCH  11  22
TORSDOF 4
ENDMDL
MODEL 8
REMARK VINA RESULT:      -9.2      3.442      9.386
REMARK  Name = 439246
REMARK  4 active torsions:
REMARK  status: ('A' for Active; 'I' for Inactive)
REMARK    1  A    between atoms: C_3  and  C_12
REMARK    2  A    between atoms: C_8  and  O_20
REMARK    3  A    between atoms: C_11  and  O_22
REMARK    4  A    between atoms: C_17  and  O_18
REMARK                            x       y       z     vdW  Elec       q    Type
REMARK                         _______ _______ _______ _____ _____    ______ ____
ROOT
ATOM      1  O   UNL     1      35.535 -22.088 -17.476  0.00  0.00    -0.474 OA
ATOM      2  O   UNL     1      32.195 -23.988 -16.038  0.00  0.00    -0.291 OA
ATOM      3  C   UNL     1      34.441 -22.410 -18.348  0.00  0.00    +0.196 C 
ATOM      4  C   UNL     1      33.115 -22.406 -17.590  0.00  0.00    +0.117 C 
ATOM      5  C   UNL     1      34.520 -23.616 -15.868  0.00  0.00    +0.103 C 
ATOM      6  C   UNL     1      33.186 -23.413 -16.470  0.00  0.00    +0.183 C 
ATOM      7  C   UNL     1      35.616 -22.924 -16.392  0.00  0.00    +0.148 C 
ATOM      8  C   UNL     1      34.678 -24.455 -14.763  0.00  0.00    +0.142 C 
ATOM      9  C   UNL     1      36.867 -23.046 -15.787  0.00  0.00    +0.074 C 
ATOM     10  C   UNL     1      35.936 -24.589 -14.174  0.00  0.00    +0.073 C 
ATOM     11  C   UNL     1      37.028 -23.882 -14.681  0.00  0.00    +0.140 C 
ENDROOT
BRANCH   3  12
ATOM     12  C   UNL     1      34.423 -21.406 -19.483  0.00  0.00    +0.018 C 
ATOM     13  C   UNL     1      33.209 -20.892 -19.938  0.00  0.00    +0.002 C 
ATOM     14  C   UNL     1      35.619 -20.998 -20.071  0.00  0.00    +0.002 C 
ATOM     15  C   UNL     1      33.193 -19.968 -20.982  0.00  0.00    +0.036 C 
ATOM     16  C   UNL     1      35.602 -20.074 -21.116  0.00  0.00    +0.036 C 
ATOM     17  C   UNL     1      34.388 -19.558 -21.572  0.00  0.00    +0.134 C 
BRANCH  17  18
ATOM     18  O   UNL     1      34.372 -18.657 -22.591  0.00  0.00    -0.506 OA
ATOM     19  H   UNL     1      34.790 -17.825 -22.487  0.00  0.00    +0.292 HD
ENDBRANCH  17  18
ENDBRANCH   3  12
BRANCH   8  20
ATOM     20  O   UNL     1      33.646 -25.155 -14.216  0.00  0.00    -0.505 OA
ATOM     21  H   UNL     1      32.792 -25.107 -14.600  0.00  0.00    +0.292 HD
ENDBRANCH   8  20
BRANCH  11  22
ATOM     22  O   UNL     1      38.251 -24.011 -14.098  0.00  0.00    -0.505 OA
ATOM     23  H   UNL     1      39.022 -23.765 -14.569  0.00  0.00    +0.292 HD
ENDBRANCH  11  22
TORSDOF 4
ENDMDL
MODEL 9
REMARK VINA RESULT:      -9.2      8.709     11.745
REMARK  Name = 439246
REMARK  4 active torsions:
REMARK  status: ('A' for Active; 'I' for Inactive)
REMARK    1  A    between atoms: C_3  and  C_12
REMARK    2  A    between atoms: C_8  and  O_20
REMARK    3  A    between atoms: C_11  and  O_22
REMARK    4  A    between atoms: C_17  and  O_18
REMARK                            x       y       z     vdW  Elec       q    Type
REMARK                         _______ _______ _______ _____ _____    ______ ____
ROOT
ATOM      1  O   UNL     1      34.837 -23.660 -15.121  0.00  0.00    -0.474 OA
ATOM      2  O   UNL     1      35.047 -24.935 -11.227  0.00  0.00    -0.291 OA
ATOM      3  C   UNL     1      33.704 -24.276 -14.488  0.00  0.00    +0.196 C 
ATOM      4  C   UNL     1      33.703 -24.007 -12.985  0.00  0.00    +0.117 C 
ATOM      5  C   UNL     1      36.165 -24.517 -13.264  0.00  0.00    +0.103 C 
ATOM      6  C   UNL     1      34.976 -24.548 -12.387  0.00  0.00    +0.183 C 
ATOM      7  C   UNL     1      36.031 -24.054 -14.576  0.00  0.00    +0.148 C 
ATOM      8  C   UNL     1      37.415 -24.906 -12.777  0.00  0.00    +0.142 C 
ATOM      9  C   UNL     1      37.158 -23.946 -15.392  0.00  0.00    +0.074 C 
ATOM     10  C   UNL     1      38.535 -24.816 -13.604  0.00  0.00    +0.073 C 
ATOM     11  C   UNL     1      38.409 -24.332 -14.907  0.00  0.00    +0.140 C 
ENDROOT
BRANCH   3  12
ATOM     12  C   UNL     1      32.444 -23.744 -15.139  0.00  0.00    +0.018 C 
ATOM     13  C   UNL     1      31.241 -23.751 -14.434  0.00  0.00    +0.002 C 
ATOM     14  C   UNL     1      32.489 -23.247 -16.440  0.00  0.00    +0.002 C 
ATOM     15  C   UNL     1      30.081 -23.261 -15.033  0.00  0.00    +0.036 C 
ATOM     16  C   UNL     1      31.328 -22.758 -17.040  0.00  0.00    +0.036 C 
ATOM     17  C   UNL     1      30.123 -22.764 -16.336  0.00  0.00    +0.134 C 
BRANCH  17  18
ATOM     18  O   UNL     1      28.991 -22.286 -16.921  0.00  0.00    -0.506 OA
ATOM     19  H   UNL     1      28.543 -22.801 -17.563  0.00  0.00    +0.292 HD
ENDBRANCH  17  18
ENDBRANCH   3  12
BRANCH   8  20
ATOM     20  O   UNL     1      37.600 -25.369 -11.509  0.00  0.00    -0.505 OA
ATOM     21  H   UNL     1      36.889 -25.773 -11.050  0.00  0.00    +0.292 HD
ENDBRANCH   8  20
BRANCH  11  22
ATOM     22  O   UNL     1      39.506 -24.239 -15.707  0.00  0.00    -0.505 OA
ATOM     23  H   UNL     1      40.095 -23.517 -15.613  0.00  0.00    +0.292 HD
ENDBRANCH  11  22
TORSDOF 4
ENDMDL
