MODEL 1
REMARK VINA RESULT:     -10.6      0.000      0.000
REMARK  Name = 6914625
REMARK  5 active torsions:
REMARK  status: ('A' for Active; 'I' for Inactive)
REMARK    1  A    between atoms: N_3  and  C_28
REMARK    2  A    between atoms: C_11  and  C_18
REMARK    3  A    between atoms: C_19  and  C_26
REMARK    4  A    between atoms: C_28  and  C_29
REMARK    5  A    between atoms: C_29  and  N_31
REMARK                            x       y       z     vdW  Elec       q    Type
REMARK                         _______ _______ _______ _____ _____    ______ ____
ROOT
ATOM      1  S   UNL     1      31.088 -23.238 -13.921  0.00  0.00    -0.105 S 
ATOM      2  O   UNL     1      31.133 -22.114 -17.513  0.00  0.00    -0.274 OA
ATOM      3  N   UNL     1      32.934 -23.075 -16.421  0.00  0.00    -0.256 N 
ATOM      4  C   UNL     1      30.577 -23.499 -15.642  0.00  0.00    +0.112 C 
ATOM      5  C   UNL     1      33.504 -23.675 -15.243  0.00  0.00    +0.059 C 
ATOM      6  C   UNL     1      31.566 -22.807 -16.584  0.00  0.00    +0.238 C 
ATOM      7  C   UNL     1      32.768 -23.799 -14.054  0.00  0.00    +0.039 C 
ATOM      8  C   UNL     1      30.480 -24.996 -15.975  0.00  0.00    +0.020 C 
ATOM      9  C   UNL     1      29.178 -22.875 -15.781  0.00  0.00    +0.020 C 
ATOM     10  C   UNL     1      34.842 -24.116 -15.233  0.00  0.00    +0.012 C 
ATOM     11  C   UNL     1      35.421 -24.668 -14.088  0.00  0.00    -0.007 C 
ATOM     12  C   UNL     1      33.359 -24.344 -12.902  0.00  0.00    +0.007 C 
ATOM     13  C   UNL     1      34.679 -24.782 -12.920  0.00  0.00    -0.003 C 
ENDROOT
BRANCH  11  18
ATOM     14  N   UNL     1      39.119 -24.729 -13.619  0.00  0.00    -0.337 NA
ATOM     15  N   UNL     1      38.442 -26.782 -14.682  0.00  0.00    -0.317 NA
ATOM     16  N   UNL     1      36.167 -27.186 -15.179  0.00  0.00    -0.335 N 
ATOM     17  N   UNL     1      40.698 -26.371 -14.182  0.00  0.00    -0.283 N 
ATOM     18  C   UNL     1      36.796 -25.119 -14.116  0.00  0.00    +0.138 C 
ATOM     19  C   UNL     1      37.825 -24.348 -13.613  0.00  0.00    +0.112 C 
ATOM     20  C   UNL     1      37.169 -26.340 -14.644  0.00  0.00    +0.178 C 
ATOM     21  C   UNL     1      39.354 -25.940 -14.160  0.00  0.00    +0.196 C 
ATOM     22  H   UNL     1      36.412 -28.061 -15.559  0.00  0.00    +0.144 HD
ATOM     23  H   UNL     1      35.224 -26.901 -15.170  0.00  0.00    +0.144 HD
ATOM     24  H   UNL     1      41.406 -25.794 -13.814  0.00  0.00    +0.156 HD
ATOM     25  H   UNL     1      40.927 -27.248 -14.566  0.00  0.00    +0.156 HD
BRANCH  19  26
ATOM     26  C   UNL     1      37.557 -23.005 -13.013  0.00  0.00    +0.056 C 
ATOM     27  C   UNL     1      37.447 -23.064 -11.494  0.00  0.00    +0.008 C 
ENDBRANCH  19  26
ENDBRANCH  11  18
BRANCH   3  28
ATOM     28  C   UNL     1      33.846 -22.664 -17.491  0.00  0.00    +0.119 C 
BRANCH  28  29
ATOM     29  C   UNL     1      33.360 -23.108 -18.860  0.00  0.00    +0.111 C 
BRANCH  29  31
ATOM     30  O   UNL     1      34.947 -20.844 -19.745  0.00  0.00    -0.275 OA
ATOM     31  N   UNL     1      32.926 -21.998 -19.664  0.00  0.00    -0.303 N 
ATOM     32  C   UNL     1      33.760 -20.954 -20.040  0.00  0.00    +0.223 C 
ATOM     33  C   UNL     1      33.059 -19.937 -20.900  0.00  0.00    +0.095 C 
ATOM     34  H   UNL     1      31.988 -21.977 -19.962  0.00  0.00    +0.149 HD
ENDBRANCH  29  31
ENDBRANCH  28  29
ENDBRANCH   3  28
TORSDOF 5
ENDMDL
MODEL 2
REMARK VINA RESULT:      -8.7      0.961      2.125
REMARK  Name = 6914625
REMARK  5 active torsions:
REMARK  status: ('A' for Active; 'I' for Inactive)
REMARK    1  A    between atoms: N_3  and  C_28
REMARK    2  A    between atoms: C_11  and  C_18
REMARK    3  A    between atoms: C_19  and  C_26
REMARK    4  A    between atoms: C_28  and  C_29
REMARK    5  A    between atoms: C_29  and  N_31
REMARK                            x       y       z     vdW  Elec       q    Type
REMARK                         _______ _______ _______ _____ _____    ______ ____
ROOT
ATOM      1  S   UNL     1      31.317 -23.152 -13.744  0.00  0.00    -0.105 S 
ATOM      2  O   UNL     1      31.256 -22.390 -17.430  0.00  0.00    -0.274 OA
ATOM      3  N   UNL     1      33.088 -23.244 -16.301  0.00  0.00    -0.256 N 
ATOM      4  C   UNL     1      30.755 -23.581 -15.415  0.00  0.00    +0.112 C 
ATOM      5  C   UNL     1      33.693 -23.726 -15.087  0.00  0.00    +0.059 C 
ATOM      6  C   UNL     1      31.716 -22.989 -16.449  0.00  0.00    +0.238 C 
ATOM      7  C   UNL     1      32.991 -23.729 -13.870  0.00  0.00    +0.039 C 
ATOM      8  C   UNL     1      30.648 -25.103 -15.595  0.00  0.00    +0.020 C 
ATOM      9  C   UNL     1      29.353 -22.969 -15.575  0.00  0.00    +0.020 C 
ATOM     10  C   UNL     1      35.030 -24.169 -15.072  0.00  0.00    +0.012 C 
ATOM     11  C   UNL     1      35.642 -24.606 -13.895  0.00  0.00    -0.007 C 
ATOM     12  C   UNL     1      33.616 -24.159 -12.687  0.00  0.00    +0.007 C 
ATOM     13  C   UNL     1      34.935 -24.601 -12.701  0.00  0.00    -0.003 C 
ENDROOT
BRANCH  11  18
ATOM     14  N   UNL     1      38.641 -26.720 -14.556  0.00  0.00    -0.337 NA
ATOM     15  N   UNL     1      39.337 -24.743 -13.367  0.00  0.00    -0.317 NA
ATOM     16  N   UNL     1      37.757 -23.103 -12.731  0.00  0.00    -0.335 N 
ATOM     17  N   UNL     1      40.896 -26.378 -14.003  0.00  0.00    -0.283 N 
ATOM     18  C   UNL     1      37.015 -25.062 -13.919  0.00  0.00    +0.138 C 
ATOM     19  C   UNL     1      37.375 -26.256 -14.510  0.00  0.00    +0.112 C 
ATOM     20  C   UNL     1      38.050 -24.340 -13.357  0.00  0.00    +0.178 C 
ATOM     21  C   UNL     1      39.559 -25.924 -13.974  0.00  0.00    +0.196 C 
ATOM     22  H   UNL     1      38.481 -22.574 -12.325  0.00  0.00    +0.144 HD
ATOM     23  H   UNL     1      36.830 -22.772 -12.703  0.00  0.00    +0.144 HD
ATOM     24  H   UNL     1      41.116 -27.235 -14.435  0.00  0.00    +0.156 HD
ATOM     25  H   UNL     1      41.608 -25.836 -13.593  0.00  0.00    +0.156 HD
BRANCH  19  26
ATOM     26  C   UNL     1      36.351 -27.134 -15.156  0.00  0.00    +0.056 C 
ATOM     27  C   UNL     1      36.768 -27.574 -16.555  0.00  0.00    +0.008 C 
ENDBRANCH  19  26
ENDBRANCH  11  18
BRANCH   3  28
ATOM     28  C   UNL     1      33.969 -22.945 -17.433  0.00  0.00    +0.119 C 
BRANCH  28  29
ATOM     29  C   UNL     1      33.196 -22.458 -18.647  0.00  0.00    +0.111 C 
BRANCH  29  31
ATOM     30  O   UNL     1      32.376 -20.092 -20.114  0.00  0.00    -0.275 OA
ATOM     31  N   UNL     1      34.005 -21.641 -19.509  0.00  0.00    -0.303 N 
ATOM     32  C   UNL     1      33.524 -20.521 -20.174  0.00  0.00    +0.223 C 
ATOM     33  C   UNL     1      34.587 -19.835 -20.990  0.00  0.00    +0.095 C 
ATOM     34  H   UNL     1      34.949 -21.889 -19.635  0.00  0.00    +0.149 HD
ENDBRANCH  29  31
ENDBRANCH  28  29
ENDBRANCH   3  28
TORSDOF 5
ENDMDL
MODEL 3
REMARK VINA RESULT:      -8.4      9.870     13.998
REMARK  Name = 6914625
REMARK  5 active torsions:
REMARK  status: ('A' for Active; 'I' for Inactive)
REMARK    1  A    between atoms: N_3  and  C_28
REMARK    2  A    between atoms: C_11  and  C_18
REMARK    3  A    between atoms: C_19  and  C_26
REMARK    4  A    between atoms: C_28  and  C_29
REMARK    5  A    between atoms: C_29  and  N_31
REMARK                            x       y       z     vdW  Elec       q    Type
REMARK                         _______ _______ _______ _____ _____    ______ ____
ROOT
ATOM      1  S   UNL     1      33.300 -17.567 -21.345  0.00  0.00    -0.105 S 
ATOM      2  O   UNL     1      34.838 -18.404 -24.677  0.00  0.00    -0.274 OA
ATOM      3  N   UNL     1      34.147 -16.285 -24.050  0.00  0.00    -0.256 N 
ATOM      4  C   UNL     1      34.767 -18.004 -22.319  0.00  0.00    +0.112 C 
ATOM      5  C   UNL     1      33.593 -15.392 -23.066  0.00  0.00    +0.059 C 
ATOM      6  C   UNL     1      34.555 -17.600 -23.780  0.00  0.00    +0.238 C 
ATOM      7  C   UNL     1      33.171 -15.858 -21.810  0.00  0.00    +0.039 C 
ATOM      8  C   UNL     1      36.030 -17.334 -21.757  0.00  0.00    +0.020 C 
ATOM      9  C   UNL     1      34.929 -19.529 -22.203  0.00  0.00    +0.020 C 
ATOM     10  C   UNL     1      33.413 -14.025 -23.351  0.00  0.00    +0.012 C 
ATOM     11  C   UNL     1      32.843 -13.154 -22.419  0.00  0.00    -0.007 C 
ATOM     12  C   UNL     1      32.589 -14.979 -20.881  0.00  0.00    +0.007 C 
ATOM     13  C   UNL     1      32.431 -13.630 -21.183  0.00  0.00    -0.003 C 
ENDROOT
BRANCH  11  18
ATOM     14  N   UNL     1      31.564  -9.651 -22.370  0.00  0.00    -0.337 NA
ATOM     15  N   UNL     1      33.306  -9.814 -24.027  0.00  0.00    -0.317 NA
ATOM     16  N   UNL     1      34.415 -11.866 -24.409  0.00  0.00    -0.335 N 
ATOM     17  N   UNL     1      32.199  -7.782 -23.638  0.00  0.00    -0.283 N 
ATOM     18  C   UNL     1      32.680 -11.752 -22.743  0.00  0.00    +0.138 C 
ATOM     19  C   UNL     1      31.750 -10.960 -22.101  0.00  0.00    +0.112 C 
ATOM     20  C   UNL     1      33.438 -11.117 -23.707  0.00  0.00    +0.178 C 
ATOM     21  C   UNL     1      32.365  -9.149 -23.330  0.00  0.00    +0.196 C 
ATOM     22  H   UNL     1      34.966 -11.432 -25.100  0.00  0.00    +0.144 HD
ATOM     23  H   UNL     1      34.544 -12.821 -24.206  0.00  0.00    +0.144 HD
ATOM     24  H   UNL     1      31.524  -7.247 -23.159  0.00  0.00    +0.156 HD
ATOM     25  H   UNL     1      32.757  -7.362 -24.331  0.00  0.00    +0.156 HD
BRANCH  19  26
ATOM     26  C   UNL     1      30.865 -11.524 -21.036  0.00  0.00    +0.056 C 
ATOM     27  C   UNL     1      30.972 -10.749 -19.727  0.00  0.00    +0.008 C 
ENDBRANCH  19  26
ENDBRANCH  11  18
BRANCH   3  28
ATOM     28  C   UNL     1      34.236 -15.809 -25.433  0.00  0.00    +0.119 C 
BRANCH  28  29
ATOM     29  C   UNL     1      32.896 -15.867 -26.146  0.00  0.00    +0.111 C 
BRANCH  29  31
ATOM     30  O   UNL     1      34.083 -13.845 -27.857  0.00  0.00    -0.275 OA
ATOM     31  N   UNL     1      32.382 -14.556 -26.435  0.00  0.00    -0.303 N 
ATOM     32  C   UNL     1      33.022 -13.651 -27.270  0.00  0.00    +0.223 C 
ATOM     33  C   UNL     1      32.256 -12.363 -27.420  0.00  0.00    +0.095 C 
ATOM     34  H   UNL     1      31.531 -14.286 -26.018  0.00  0.00    +0.149 HD
ENDBRANCH  29  31
ENDBRANCH  28  29
ENDBRANCH   3  28
TORSDOF 5
ENDMDL
MODEL 4
REMARK VINA RESULT:      -8.0      9.961     14.221
REMARK  Name = 6914625
REMARK  5 active torsions:
REMARK  status: ('A' for Active; 'I' for Inactive)
REMARK    1  A    between atoms: N_3  and  C_28
REMARK    2  A    between atoms: C_11  and  C_18
REMARK    3  A    between atoms: C_19  and  C_26
REMARK    4  A    between atoms: C_28  and  C_29
REMARK    5  A    between atoms: C_29  and  N_31
REMARK                            x       y       z     vdW  Elec       q    Type
REMARK                         _______ _______ _______ _____ _____    ______ ____
ROOT
ATOM      1  S   UNL     1      33.250 -17.483 -21.373  0.00  0.00    -0.105 S 
ATOM      2  O   UNL     1      34.878 -18.230 -24.683  0.00  0.00    -0.274 OA
ATOM      3  N   UNL     1      34.092 -16.145 -24.053  0.00  0.00    -0.256 N 
ATOM      4  C   UNL     1      34.751 -17.852 -22.323  0.00  0.00    +0.112 C 
ATOM      5  C   UNL     1      33.486 -15.284 -23.072  0.00  0.00    +0.059 C 
ATOM      6  C   UNL     1      34.547 -17.445 -23.785  0.00  0.00    +0.238 C 
ATOM      7  C   UNL     1      33.061 -15.776 -21.827  0.00  0.00    +0.039 C 
ATOM      8  C   UNL     1      35.975 -17.137 -21.734  0.00  0.00    +0.020 C 
ATOM      9  C   UNL     1      34.971 -19.371 -22.216  0.00  0.00    +0.020 C 
ATOM     10  C   UNL     1      33.255 -13.922 -23.350  0.00  0.00    +0.012 C 
ATOM     11  C   UNL     1      32.635 -13.082 -22.422  0.00  0.00    -0.007 C 
ATOM     12  C   UNL     1      32.427 -14.929 -20.903  0.00  0.00    +0.007 C 
ATOM     13  C   UNL     1      32.220 -13.585 -21.198  0.00  0.00    -0.003 C 
ENDROOT
BRANCH  11  18
ATOM     14  N   UNL     1      33.037  -9.724 -23.991  0.00  0.00    -0.337 NA
ATOM     15  N   UNL     1      31.214  -9.628 -22.419  0.00  0.00    -0.317 NA
ATOM     16  N   UNL     1      30.592 -11.542 -21.179  0.00  0.00    -0.335 N 
ATOM     17  N   UNL     1      31.839  -7.734 -23.656  0.00  0.00    -0.283 N 
ATOM     18  C   UNL     1      32.421 -11.686 -22.739  0.00  0.00    +0.138 C 
ATOM     19  C   UNL     1      33.200 -11.023 -23.665  0.00  0.00    +0.112 C 
ATOM     20  C   UNL     1      31.432 -10.929 -22.141  0.00  0.00    +0.178 C 
ATOM     21  C   UNL     1      32.039  -9.095 -23.340  0.00  0.00    +0.196 C 
ATOM     22  H   UNL     1      29.881 -11.019 -20.742  0.00  0.00    +0.144 HD
ATOM     23  H   UNL     1      30.718 -12.491 -20.947  0.00  0.00    +0.144 HD
ATOM     24  H   UNL     1      32.414  -7.293 -24.323  0.00  0.00    +0.156 HD
ATOM     25  H   UNL     1      31.124  -7.225 -23.210  0.00  0.00    +0.156 HD
BRANCH  19  26
ATOM     26  C   UNL     1      34.306 -11.727 -24.385  0.00  0.00    +0.056 C 
ATOM     27  C   UNL     1      34.933 -10.858 -25.470  0.00  0.00    +0.008 C 
ENDBRANCH  19  26
ENDBRANCH  11  18
BRANCH   3  28
ATOM     28  C   UNL     1      34.186 -15.655 -25.431  0.00  0.00    +0.119 C 
BRANCH  28  29
ATOM     29  C   UNL     1      32.867 -15.780 -26.174  0.00  0.00    +0.111 C 
BRANCH  29  31
ATOM     30  O   UNL     1      34.040 -13.703 -27.827  0.00  0.00    -0.275 OA
ATOM     31  N   UNL     1      32.305 -14.497 -26.494  0.00  0.00    -0.303 N 
ATOM     32  C   UNL     1      32.942 -13.561 -27.297  0.00  0.00    +0.223 C 
ATOM     33  C   UNL     1      32.122 -12.314 -27.491  0.00  0.00    +0.095 C 
ATOM     34  H   UNL     1      31.421 -14.269 -26.123  0.00  0.00    +0.149 HD
ENDBRANCH  29  31
ENDBRANCH  28  29
ENDBRANCH   3  28
TORSDOF 5
ENDMDL
