MODEL 1
REMARK VINA RESULT:      -9.4      0.000      0.000
REMARK  Name = 4748
REMARK  7 active torsions:
REMARK  status: ('A' for Active; 'I' for Inactive)
REMARK    1  A    between atoms: N_3  and  C_16
REMARK    2  A    between atoms: C_16  and  C_17
REMARK    3  A    between atoms: C_17  and  C_18
REMARK    4  A    between atoms: C_18  and  N_19
REMARK    5  A    between atoms: N_20  and  C_27
REMARK    6  A    between atoms: C_27  and  C_28
REMARK    7  A    between atoms: C_28  and  O_29
REMARK                            x       y       z     vdW  Elec       q    Type
REMARK                         _______ _______ _______ _____ _____    ______ ____
ROOT
ATOM      1 CL   UNL     1      33.312 -21.727 -19.557  0.00  0.00    -0.082 Cl
ATOM      2  S   UNL     1      37.725 -23.112 -15.290  0.00  0.00    -0.084 S 
ATOM      3  N   UNL     1      34.704 -23.795 -15.020  0.00  0.00    -0.286 N 
ATOM      4  C   UNL     1      35.079 -23.125 -16.212  0.00  0.00    +0.058 C 
ATOM      5  C   UNL     1      35.441 -23.776 -13.808  0.00  0.00    +0.058 C 
ATOM      6  C   UNL     1      36.415 -22.741 -16.440  0.00  0.00    +0.043 C 
ATOM      7  C   UNL     1      36.814 -23.456 -13.799  0.00  0.00    +0.043 C 
ATOM      8  C   UNL     1      34.135 -22.780 -17.204  0.00  0.00    +0.027 C 
ATOM      9  C   UNL     1      34.835 -24.037 -12.560  0.00  0.00    +0.015 C 
ATOM     10  C   UNL     1      36.780 -22.070 -17.620  0.00  0.00    +0.009 C 
ATOM     11  C   UNL     1      37.538 -23.431 -12.593  0.00  0.00    +0.008 C 
ATOM     12  C   UNL     1      34.502 -22.108 -18.373  0.00  0.00    +0.059 C 
ATOM     13  C   UNL     1      35.558 -24.005 -11.365  0.00  0.00    +0.001 C 
ATOM     14  C   UNL     1      35.826 -21.755 -18.583  0.00  0.00    +0.012 C 
ATOM     15  C   UNL     1      36.912 -23.706 -11.382  0.00  0.00    +0.001 C 
ENDROOT
BRANCH   3  16
ATOM     16  C   UNL     1      33.419 -24.504 -15.017  0.00  0.00    +0.093 C 
BRANCH  16  17
ATOM     17  C   UNL     1      32.337 -23.660 -14.343  0.00  0.00    -0.001 C 
BRANCH  17  18
ATOM     18  C   UNL     1      31.111 -24.452 -13.877  0.00  0.00    -0.076 C 
BRANCH  18  19
ATOM     19  N   UNL     1      29.910 -24.090 -14.629  0.00  0.00    +0.384 N 
ATOM     20  N   UNL     1      28.547 -23.052 -16.958  0.00  0.00    +0.386 N 
ATOM     21  C   UNL     1      29.895 -22.653 -14.926  0.00  0.00    -0.101 C 
ATOM     22  C   UNL     1      29.816 -24.871 -15.869  0.00  0.00    -0.101 C 
ATOM     23  C   UNL     1      28.639 -22.271 -15.719  0.00  0.00    -0.101 C 
ATOM     24  C   UNL     1      28.560 -24.489 -16.660  0.00  0.00    -0.101 C 
ATOM     25  H   UNL     1      29.098 -24.306 -14.051  0.00  0.00    -0.080 HD
ATOM     26  H   UNL     1      29.359 -22.836 -17.536  0.00  0.00    -0.080 HD
BRANCH  20  27
ATOM     27  C   UNL     1      27.349 -22.690 -17.712  0.00  0.00    -0.045 C 
BRANCH  27  28
ATOM     28  C   UNL     1      26.548 -21.632 -16.970  0.00  0.00    +0.115 C 
BRANCH  28  29
ATOM     29  O   UNL     1      26.210 -20.593 -17.880  0.00  0.00    -0.384 OA
ATOM     30  H   UNL     1      26.037 -19.775 -17.387  0.00  0.00    +0.210 HD
ENDBRANCH  28  29
ENDBRANCH  27  28
ENDBRANCH  20  27
ENDBRANCH  18  19
ENDBRANCH  17  18
ENDBRANCH  16  17
ENDBRANCH   3  16
TORSDOF 7
ENDMDL
MODEL 2
REMARK VINA RESULT:      -9.2      4.065      6.949
REMARK  Name = 4748
REMARK  7 active torsions:
REMARK  status: ('A' for Active; 'I' for Inactive)
REMARK    1  A    between atoms: N_3  and  C_16
REMARK    2  A    between atoms: C_16  and  C_17
REMARK    3  A    between atoms: C_17  and  C_18
REMARK    4  A    between atoms: C_18  and  N_19
REMARK    5  A    between atoms: N_20  and  C_27
REMARK    6  A    between atoms: C_27  and  C_28
REMARK    7  A    between atoms: C_28  and  O_29
REMARK                            x       y       z     vdW  Elec       q    Type
REMARK                         _______ _______ _______ _____ _____    ______ ____
ROOT
ATOM      1 CL   UNL     1      38.363 -22.779 -16.121  0.00  0.00    -0.082 Cl
ATOM      2  S   UNL     1      32.782 -24.170 -13.567  0.00  0.00    -0.084 S 
ATOM      3  N   UNL     1      33.246 -23.439 -16.553  0.00  0.00    -0.286 N 
ATOM      4  C   UNL     1      34.404 -23.455 -15.736  0.00  0.00    +0.058 C 
ATOM      5  C   UNL     1      31.918 -23.280 -16.080  0.00  0.00    +0.058 C 
ATOM      6  C   UNL     1      34.321 -23.749 -14.361  0.00  0.00    +0.043 C 
ATOM      7  C   UNL     1      31.588 -23.557 -14.738  0.00  0.00    +0.043 C 
ATOM      8  C   UNL     1      35.684 -23.145 -16.248  0.00  0.00    +0.027 C 
ATOM      9  C   UNL     1      30.879 -22.807 -16.912  0.00  0.00    +0.015 C 
ATOM     10  C   UNL     1      35.472 -23.756 -13.555  0.00  0.00    +0.009 C 
ATOM     11  C   UNL     1      30.271 -23.391 -14.272  0.00  0.00    +0.008 C 
ATOM     12  C   UNL     1      36.824 -23.149 -15.441  0.00  0.00    +0.059 C 
ATOM     13  C   UNL     1      29.574 -22.638 -16.442  0.00  0.00    +0.001 C 
ATOM     14  C   UNL     1      36.719 -23.457 -14.093  0.00  0.00    +0.012 C 
ATOM     15  C   UNL     1      29.269 -22.934 -15.122  0.00  0.00    +0.001 C 
ENDROOT
BRANCH   3  16
ATOM     16  C   UNL     1      33.440 -23.521 -18.006  0.00  0.00    +0.093 C 
BRANCH  16  17
ATOM     17  C   UNL     1      33.481 -22.124 -18.626  0.00  0.00    -0.001 C 
BRANCH  17  18
ATOM     18  C   UNL     1      34.705 -21.855 -19.506  0.00  0.00    -0.076 C 
BRANCH  18  19
ATOM     19  N   UNL     1      34.801 -20.447 -19.891  0.00  0.00    +0.384 N 
ATOM     20  N   UNL     1      34.996 -18.319 -21.839  0.00  0.00    +0.386 N 
ATOM     21  C   UNL     1      36.050 -20.190 -20.617  0.00  0.00    -0.101 C 
ATOM     22  C   UNL     1      33.645 -20.049 -20.704  0.00  0.00    -0.101 C 
ATOM     23  C   UNL     1      36.152 -18.716 -21.026  0.00  0.00    -0.101 C 
ATOM     24  C   UNL     1      33.747 -18.575 -21.111  0.00  0.00    -0.101 C 
ATOM     25  H   UNL     1      34.804 -19.887 -19.039  0.00  0.00    -0.080 HD
ATOM     26  H   UNL     1      34.992 -18.880 -22.690  0.00  0.00    -0.080 HD
BRANCH  20  27
ATOM     27  C   UNL     1      35.091 -16.913 -22.226  0.00  0.00    -0.045 C 
BRANCH  27  28
ATOM     28  C   UNL     1      34.162 -16.059 -21.379  0.00  0.00    +0.115 C 
BRANCH  28  29
ATOM     29  O   UNL     1      34.930 -15.394 -20.385  0.00  0.00    -0.384 OA
ATOM     30  H   UNL     1      34.574 -14.503 -20.244  0.00  0.00    +0.210 HD
ENDBRANCH  28  29
ENDBRANCH  27  28
ENDBRANCH  20  27
ENDBRANCH  18  19
ENDBRANCH  17  18
ENDBRANCH  16  17
ENDBRANCH   3  16
TORSDOF 7
ENDMDL
MODEL 3
REMARK VINA RESULT:      -9.1     11.802     14.361
REMARK  Name = 4748
REMARK  7 active torsions:
REMARK  status: ('A' for Active; 'I' for Inactive)
REMARK    1  A    between atoms: N_3  and  C_16
REMARK    2  A    between atoms: C_16  and  C_17
REMARK    3  A    between atoms: C_17  and  C_18
REMARK    4  A    between atoms: C_18  and  N_19
REMARK    5  A    between atoms: N_20  and  C_27
REMARK    6  A    between atoms: C_27  and  C_28
REMARK    7  A    between atoms: C_28  and  O_29
REMARK                            x       y       z     vdW  Elec       q    Type
REMARK                         _______ _______ _______ _____ _____    ______ ____
ROOT
ATOM      1 CL   UNL     1      30.496 -10.961 -21.013  0.00  0.00    -0.082 Cl
ATOM      2  S   UNL     1      34.469 -15.837 -21.218  0.00  0.00    -0.084 S 
ATOM      3  N   UNL     1      33.459 -14.253 -23.695  0.00  0.00    -0.286 N 
ATOM      4  C   UNL     1      32.970 -13.810 -22.440  0.00  0.00    +0.058 C 
ATOM      5  C   UNL     1      33.966 -15.551 -23.960  0.00  0.00    +0.058 C 
ATOM      6  C   UNL     1      33.336 -14.462 -21.246  0.00  0.00    +0.043 C 
ATOM      7  C   UNL     1      34.432 -16.375 -22.916  0.00  0.00    +0.043 C 
ATOM      8  C   UNL     1      32.070 -12.726 -22.328  0.00  0.00    +0.027 C 
ATOM      9  C   UNL     1      33.995 -16.090 -25.265  0.00  0.00    +0.015 C 
ATOM     10  C   UNL     1      32.842 -14.024 -20.005  0.00  0.00    +0.009 C 
ATOM     11  C   UNL     1      34.926 -17.665 -23.183  0.00  0.00    +0.008 C 
ATOM     12  C   UNL     1      31.578 -12.298 -21.093  0.00  0.00    +0.059 C 
ATOM     13  C   UNL     1      34.482 -17.374 -25.524  0.00  0.00    +0.001 C 
ATOM     14  C   UNL     1      31.966 -12.946 -19.930  0.00  0.00    +0.012 C 
ATOM     15  C   UNL     1      34.952 -18.161 -24.483  0.00  0.00    +0.001 C 
ENDROOT
BRANCH   3  16
ATOM     16  C   UNL     1      33.369 -13.319 -24.825  0.00  0.00    +0.093 C 
BRANCH  16  17
ATOM     17  C   UNL     1      34.331 -12.147 -24.635  0.00  0.00    -0.001 C 
BRANCH  17  18
ATOM     18  C   UNL     1      33.777 -10.790 -25.083  0.00  0.00    -0.076 C 
BRANCH  18  19
ATOM     19  N   UNL     1      33.588  -9.879 -23.955  0.00  0.00    +0.384 N 
ATOM     20  N   UNL     1      32.858  -7.331 -22.799  0.00  0.00    +0.386 N 
ATOM     21  C   UNL     1      34.462  -8.707 -24.080  0.00  0.00    -0.101 C 
ATOM     22  C   UNL     1      32.184  -9.462 -23.851  0.00  0.00    -0.101 C 
ATOM     23  C   UNL     1      34.262  -7.747 -22.901  0.00  0.00    -0.101 C 
ATOM     24  C   UNL     1      31.985  -8.504 -22.672  0.00  0.00    -0.101 C 
ATOM     25  H   UNL     1      33.839 -10.377 -23.101  0.00  0.00    -0.080 HD
ATOM     26  H   UNL     1      32.607  -6.834 -23.653  0.00  0.00    -0.080 HD
BRANCH  20  27
ATOM     27  C   UNL     1      32.668  -6.419 -21.674  0.00  0.00    -0.045 C 
BRANCH  27  28
ATOM     28  C   UNL     1      32.155  -7.169 -20.455  0.00  0.00    +0.115 C 
BRANCH  28  29
ATOM     29  O   UNL     1      33.203  -7.261 -19.500  0.00  0.00    -0.384 OA
ATOM     30  H   UNL     1      34.059  -7.185 -19.951  0.00  0.00    +0.210 HD
ENDBRANCH  28  29
ENDBRANCH  27  28
ENDBRANCH  20  27
ENDBRANCH  18  19
ENDBRANCH  17  18
ENDBRANCH  16  17
ENDBRANCH   3  16
TORSDOF 7
ENDMDL
MODEL 4
REMARK VINA RESULT:      -9.0     11.293     13.499
REMARK  Name = 4748
REMARK  7 active torsions:
REMARK  status: ('A' for Active; 'I' for Inactive)
REMARK    1  A    between atoms: N_3  and  C_16
REMARK    2  A    between atoms: C_16  and  C_17
REMARK    3  A    between atoms: C_17  and  C_18
REMARK    4  A    between atoms: C_18  and  N_19
REMARK    5  A    between atoms: N_20  and  C_27
REMARK    6  A    between atoms: C_27  and  C_28
REMARK    7  A    between atoms: C_28  and  O_29
REMARK                            x       y       z     vdW  Elec       q    Type
REMARK                         _______ _______ _______ _____ _____    ______ ____
ROOT
ATOM      1 CL   UNL     1      34.232  -9.773 -24.745  0.00  0.00    -0.082 Cl
ATOM      2  S   UNL     1      33.323 -15.891 -25.903  0.00  0.00    -0.084 S 
ATOM      3  N   UNL     1      34.212 -14.705 -23.170  0.00  0.00    -0.286 N 
ATOM      4  C   UNL     1      34.000 -13.764 -24.209  0.00  0.00    +0.058 C 
ATOM      5  C   UNL     1      34.491 -16.082 -23.363  0.00  0.00    +0.058 C 
ATOM      6  C   UNL     1      33.618 -14.180 -25.500  0.00  0.00    +0.043 C 
ATOM      7  C   UNL     1      34.156 -16.728 -24.570  0.00  0.00    +0.043 C 
ATOM      8  C   UNL     1      34.194 -12.378 -24.014  0.00  0.00    +0.027 C 
ATOM      9  C   UNL     1      35.143 -16.858 -22.379  0.00  0.00    +0.015 C 
ATOM     10  C   UNL     1      33.416 -13.244 -26.528  0.00  0.00    +0.009 C 
ATOM     11  C   UNL     1      34.442 -18.093 -24.758  0.00  0.00    +0.008 C 
ATOM     12  C   UNL     1      33.997 -11.452 -25.042  0.00  0.00    +0.059 C 
ATOM     13  C   UNL     1      35.428 -18.211 -22.574  0.00  0.00    +0.001 C 
ATOM     14  C   UNL     1      33.605 -11.885 -26.300  0.00  0.00    +0.012 C 
ATOM     15  C   UNL     1      35.075 -18.831 -23.763  0.00  0.00    +0.001 C 
ENDROOT
BRANCH   3  16
ATOM     16  C   UNL     1      34.214 -14.201 -21.791  0.00  0.00    +0.093 C 
BRANCH  16  17
ATOM     17  C   UNL     1      32.844 -14.395 -21.143  0.00  0.00    -0.001 C 
BRANCH  17  18
ATOM     18  C   UNL     1      31.798 -13.348 -21.539  0.00  0.00    -0.076 C 
BRANCH  18  19
ATOM     19  N   UNL     1      32.206 -11.997 -21.154  0.00  0.00    +0.384 N 
ATOM     20  N   UNL     1      31.659  -9.263 -20.388  0.00  0.00    +0.386 N 
ATOM     21  C   UNL     1      31.733 -11.012 -22.133  0.00  0.00    -0.101 C 
ATOM     22  C   UNL     1      31.711 -11.665 -19.812  0.00  0.00    -0.101 C 
ATOM     23  C   UNL     1      32.155  -9.594 -21.730  0.00  0.00    -0.101 C 
ATOM     24  C   UNL     1      32.135 -10.249 -19.410  0.00  0.00    -0.101 C 
ATOM     25  H   UNL     1      33.225 -11.969 -21.137  0.00  0.00    -0.080 HD
ATOM     26  H   UNL     1      30.640  -9.293 -20.405  0.00  0.00    -0.080 HD
BRANCH  20  27
ATOM     27  C   UNL     1      32.064  -7.913 -20.004  0.00  0.00    -0.045 C 
BRANCH  27  28
ATOM     28  C   UNL     1      32.310  -7.055 -21.234  0.00  0.00    +0.115 C 
BRANCH  28  29
ATOM     29  O   UNL     1      31.948  -5.714 -20.936  0.00  0.00    -0.384 OA
ATOM     30  H   UNL     1      31.593  -5.668 -20.033  0.00  0.00    +0.210 HD
ENDBRANCH  28  29
ENDBRANCH  27  28
ENDBRANCH  20  27
ENDBRANCH  18  19
ENDBRANCH  17  18
ENDBRANCH  16  17
ENDBRANCH   3  16
TORSDOF 7
ENDMDL
MODEL 5
REMARK VINA RESULT:      -9.0      2.275      4.170
REMARK  Name = 4748
REMARK  7 active torsions:
REMARK  status: ('A' for Active; 'I' for Inactive)
REMARK    1  A    between atoms: N_3  and  C_16
REMARK    2  A    between atoms: C_16  and  C_17
REMARK    3  A    between atoms: C_17  and  C_18
REMARK    4  A    between atoms: C_18  and  N_19
REMARK    5  A    between atoms: N_20  and  C_27
REMARK    6  A    between atoms: C_27  and  C_28
REMARK    7  A    between atoms: C_28  and  O_29
REMARK                            x       y       z     vdW  Elec       q    Type
REMARK                         _______ _______ _______ _____ _____    ______ ____
ROOT
ATOM      1 CL   UNL     1      37.158 -26.737 -12.915  0.00  0.00    -0.082 Cl
ATOM      2  S   UNL     1      37.166 -21.784 -16.797  0.00  0.00    -0.084 S 
ATOM      3  N   UNL     1      34.704 -23.588 -16.212  0.00  0.00    -0.286 N 
ATOM      4  C   UNL     1      35.897 -23.936 -15.529  0.00  0.00    +0.058 C 
ATOM      5  C   UNL     1      34.641 -22.832 -17.410  0.00  0.00    +0.058 C 
ATOM      6  C   UNL     1      37.086 -23.209 -15.729  0.00  0.00    +0.043 C 
ATOM      7  C   UNL     1      35.707 -21.995 -17.796  0.00  0.00    +0.043 C 
ATOM      8  C   UNL     1      35.961 -25.040 -14.650  0.00  0.00    +0.027 C 
ATOM      9  C   UNL     1      33.536 -22.908 -18.286  0.00  0.00    +0.015 C 
ATOM     10  C   UNL     1      38.268 -23.562 -15.056  0.00  0.00    +0.009 C 
ATOM     11  C   UNL     1      35.643 -21.253 -18.990  0.00  0.00    +0.008 C 
ATOM     12  C   UNL     1      37.140 -25.390 -13.987  0.00  0.00    +0.059 C 
ATOM     13  C   UNL     1      33.480 -22.173 -19.472  0.00  0.00    +0.001 C 
ATOM     14  C   UNL     1      38.295 -24.649 -14.188  0.00  0.00    +0.012 C 
ATOM     15  C   UNL     1      34.533 -21.342 -19.823  0.00  0.00    +0.001 C 
ENDROOT
BRANCH   3  16
ATOM     16  C   UNL     1      33.440 -24.112 -15.676  0.00  0.00    +0.093 C 
BRANCH  16  17
ATOM     17  C   UNL     1      32.923 -23.222 -14.546  0.00  0.00    -0.001 C 
BRANCH  17  18
ATOM     18  C   UNL     1      31.785 -23.835 -13.724  0.00  0.00    -0.076 C 
BRANCH  18  19
ATOM     19  N   UNL     1      30.488 -23.667 -14.377  0.00  0.00    +0.384 N 
ATOM     20  N   UNL     1      28.805 -23.276 -16.696  0.00  0.00    +0.386 N 
ATOM     21  C   UNL     1      30.410 -22.366 -15.052  0.00  0.00    -0.101 C 
ATOM     22  C   UNL     1      30.239 -24.754 -15.331  0.00  0.00    -0.101 C 
ATOM     23  C   UNL     1      29.052 -22.188 -15.742  0.00  0.00    -0.101 C 
ATOM     24  C   UNL     1      28.881 -24.576 -16.019  0.00  0.00    -0.101 C 
ATOM     25  H   UNL     1      29.766 -23.699 -13.658  0.00  0.00    -0.080 HD
ATOM     26  H   UNL     1      29.527 -23.244 -17.414  0.00  0.00    -0.080 HD
BRANCH  20  27
ATOM     27  C   UNL     1      27.510 -23.107 -17.350  0.00  0.00    -0.045 C 
BRANCH  27  28
ATOM     28  C   UNL     1      26.784 -21.890 -16.800  0.00  0.00    +0.115 C 
BRANCH  28  29
ATOM     29  O   UNL     1      26.638 -20.934 -17.842  0.00  0.00    -0.384 OA
ATOM     30  H   UNL     1      25.698 -20.837 -18.062  0.00  0.00    +0.210 HD
ENDBRANCH  28  29
ENDBRANCH  27  28
ENDBRANCH  20  27
ENDBRANCH  18  19
ENDBRANCH  17  18
ENDBRANCH  16  17
ENDBRANCH   3  16
TORSDOF 7
ENDMDL
MODEL 6
REMARK VINA RESULT:      -9.0     14.064     16.314
REMARK  Name = 4748
REMARK  7 active torsions:
REMARK  status: ('A' for Active; 'I' for Inactive)
REMARK    1  A    between atoms: N_3  and  C_16
REMARK    2  A    between atoms: C_16  and  C_17
REMARK    3  A    between atoms: C_17  and  C_18
REMARK    4  A    between atoms: C_18  and  N_19
REMARK    5  A    between atoms: N_20  and  C_27
REMARK    6  A    between atoms: C_27  and  C_28
REMARK    7  A    between atoms: C_28  and  O_29
REMARK                            x       y       z     vdW  Elec       q    Type
REMARK                         _______ _______ _______ _____ _____    ______ ____
ROOT
ATOM      1 CL   UNL     1      30.827  -4.327 -25.161  0.00  0.00    -0.082 Cl
ATOM      2  S   UNL     1      32.112  -7.456 -19.855  0.00  0.00    -0.084 S 
ATOM      3  N   UNL     1      32.024  -8.718 -22.694  0.00  0.00    -0.286 N 
ATOM      4  C   UNL     1      31.754  -7.328 -22.631  0.00  0.00    +0.058 C 
ATOM      5  C   UNL     1      31.885  -9.626 -21.613  0.00  0.00    +0.058 C 
ATOM      6  C   UNL     1      31.741  -6.646 -21.398  0.00  0.00    +0.043 C 
ATOM      7  C   UNL     1      31.885  -9.171 -20.279  0.00  0.00    +0.043 C 
ATOM      8  C   UNL     1      31.452  -6.572 -23.785  0.00  0.00    +0.027 C 
ATOM      9  C   UNL     1      31.704 -11.012 -21.819  0.00  0.00    +0.015 C 
ATOM     10  C   UNL     1      31.465  -5.269 -21.340  0.00  0.00    +0.009 C 
ATOM     11  C   UNL     1      31.738 -10.075 -19.211  0.00  0.00    +0.008 C 
ATOM     12  C   UNL     1      31.173  -5.204 -23.720  0.00  0.00    +0.059 C 
ATOM     13  C   UNL     1      31.553 -11.903 -20.754  0.00  0.00    +0.001 C 
ATOM     14  C   UNL     1      31.182  -4.551 -22.497  0.00  0.00    +0.012 C 
ATOM     15  C   UNL     1      31.574 -11.436 -19.449  0.00  0.00    +0.001 C 
ENDROOT
BRANCH   3  16
ATOM     16  C   UNL     1      32.410  -9.274 -23.998  0.00  0.00    +0.093 C 
BRANCH  16  17
ATOM     17  C   UNL     1      33.905  -9.076 -24.248  0.00  0.00    -0.001 C 
BRANCH  17  18
ATOM     18  C   UNL     1      34.711 -10.375 -24.353  0.00  0.00    -0.076 C 
BRANCH  18  19
ATOM     19  N   UNL     1      33.895 -11.485 -24.843  0.00  0.00    +0.384 N 
ATOM     20  N   UNL     1      33.539 -14.186 -25.811  0.00  0.00    +0.386 N 
ATOM     21  C   UNL     1      34.299 -11.868 -26.201  0.00  0.00    -0.101 C 
ATOM     22  C   UNL     1      33.984 -12.637 -23.938  0.00  0.00    -0.101 C 
ATOM     23  C   UNL     1      33.448 -13.034 -26.717  0.00  0.00    -0.101 C 
ATOM     24  C   UNL     1      33.132 -13.803 -24.453  0.00  0.00    -0.101 C 
ATOM     25  H   UNL     1      32.924 -11.174 -24.873  0.00  0.00    -0.080 HD
ATOM     26  H   UNL     1      34.509 -14.497 -25.780  0.00  0.00    -0.080 HD
BRANCH  20  27
ATOM     27  C   UNL     1      32.726 -15.297 -26.301  0.00  0.00    -0.045 C 
BRANCH  27  28
ATOM     28  C   UNL     1      33.346 -16.629 -25.913  0.00  0.00    +0.115 C 
BRANCH  28  29
ATOM     29  O   UNL     1      34.761 -16.493 -25.917  0.00  0.00    -0.384 OA
ATOM     30  H   UNL     1      35.129 -16.971 -26.677  0.00  0.00    +0.210 HD
ENDBRANCH  28  29
ENDBRANCH  27  28
ENDBRANCH  20  27
ENDBRANCH  18  19
ENDBRANCH  17  18
ENDBRANCH  16  17
ENDBRANCH   3  16
TORSDOF 7
ENDMDL
MODEL 7
REMARK VINA RESULT:      -9.0     13.291     15.570
REMARK  Name = 4748
REMARK  7 active torsions:
REMARK  status: ('A' for Active; 'I' for Inactive)
REMARK    1  A    between atoms: N_3  and  C_16
REMARK    2  A    between atoms: C_16  and  C_17
REMARK    3  A    between atoms: C_17  and  C_18
REMARK    4  A    between atoms: C_18  and  N_19
REMARK    5  A    between atoms: N_20  and  C_27
REMARK    6  A    between atoms: C_27  and  C_28
REMARK    7  A    between atoms: C_28  and  O_29
REMARK                            x       y       z     vdW  Elec       q    Type
REMARK                         _______ _______ _______ _____ _____    ______ ____
ROOT
ATOM      1 CL   UNL     1      31.251  -4.715 -25.512  0.00  0.00    -0.082 Cl
ATOM      2  S   UNL     1      32.483  -7.525 -20.018  0.00  0.00    -0.084 S 
ATOM      3  N   UNL     1      32.062  -9.000 -22.722  0.00  0.00    -0.286 N 
ATOM      4  C   UNL     1      31.967  -7.586 -22.771  0.00  0.00    +0.058 C 
ATOM      5  C   UNL     1      31.882  -9.789 -21.557  0.00  0.00    +0.058 C 
ATOM      6  C   UNL     1      32.115  -6.807 -21.607  0.00  0.00    +0.043 C 
ATOM      7  C   UNL     1      32.022  -9.227 -20.272  0.00  0.00    +0.043 C 
ATOM      8  C   UNL     1      31.686  -6.897 -23.972  0.00  0.00    +0.027 C 
ATOM      9  C   UNL     1      31.521 -11.152 -21.625  0.00  0.00    +0.015 C 
ATOM     10  C   UNL     1      32.013  -5.406 -21.660  0.00  0.00    +0.009 C 
ATOM     11  C   UNL     1      31.835 -10.012 -19.119  0.00  0.00    +0.008 C 
ATOM     12  C   UNL     1      31.580  -5.505 -24.018  0.00  0.00    +0.059 C 
ATOM     13  C   UNL     1      31.332 -11.925 -20.477  0.00  0.00    +0.001 C 
ATOM     14  C   UNL     1      31.746  -4.758 -22.862  0.00  0.00    +0.012 C 
ATOM     15  C   UNL     1      31.492 -11.356 -19.223  0.00  0.00    +0.001 C 
ENDROOT
BRANCH   3  16
ATOM     16  C   UNL     1      32.293  -9.708 -23.988  0.00  0.00    +0.093 C 
BRANCH  16  17
ATOM     17  C   UNL     1      33.618 -10.469 -23.947  0.00  0.00    -0.001 C 
BRANCH  17  18
ATOM     18  C   UNL     1      33.746 -11.581 -24.992  0.00  0.00    -0.076 C 
BRANCH  18  19
ATOM     19  N   UNL     1      34.108 -12.861 -24.386  0.00  0.00    +0.384 N 
ATOM     20  N   UNL     1      33.494 -15.289 -22.940  0.00  0.00    +0.386 N 
ATOM     21  C   UNL     1      33.850 -12.844 -22.941  0.00  0.00    -0.101 C 
ATOM     22  C   UNL     1      33.380 -13.965 -25.023  0.00  0.00    -0.101 C 
ATOM     23  C   UNL     1      34.224 -14.186 -22.302  0.00  0.00    -0.101 C 
ATOM     24  C   UNL     1      33.755 -15.307 -24.385  0.00  0.00    -0.101 C 
ATOM     25  H   UNL     1      35.106 -13.008 -24.531  0.00  0.00    -0.080 HD
ATOM     26  H   UNL     1      32.496 -15.141 -22.795  0.00  0.00    -0.080 HD
BRANCH  20  27
ATOM     27  C   UNL     1      33.854 -16.568 -22.333  0.00  0.00    -0.045 C 
BRANCH  27  28
ATOM     28  C   UNL     1      34.940 -16.380 -21.287  0.00  0.00    +0.115 C 
BRANCH  28  29
ATOM     29  O   UNL     1      35.308 -17.654 -20.775  0.00  0.00    -0.384 OA
ATOM     30  H   UNL     1      34.895 -18.349 -21.311  0.00  0.00    +0.210 HD
ENDBRANCH  28  29
ENDBRANCH  27  28
ENDBRANCH  20  27
ENDBRANCH  18  19
ENDBRANCH  17  18
ENDBRANCH  16  17
ENDBRANCH   3  16
TORSDOF 7
ENDMDL
MODEL 8
REMARK VINA RESULT:      -8.8      3.951      6.516
REMARK  Name = 4748
REMARK  7 active torsions:
REMARK  status: ('A' for Active; 'I' for Inactive)
REMARK    1  A    between atoms: N_3  and  C_16
REMARK    2  A    between atoms: C_16  and  C_17
REMARK    3  A    between atoms: C_17  and  C_18
REMARK    4  A    between atoms: C_18  and  N_19
REMARK    5  A    between atoms: N_20  and  C_27
REMARK    6  A    between atoms: C_27  and  C_28
REMARK    7  A    between atoms: C_28  and  O_29
REMARK                            x       y       z     vdW  Elec       q    Type
REMARK                         _______ _______ _______ _____ _____    ______ ____
ROOT
ATOM      1 CL   UNL     1      31.114 -22.759 -16.502  0.00  0.00    -0.082 Cl
ATOM      2  S   UNL     1      35.666 -24.893 -12.717  0.00  0.00    -0.084 S 
ATOM      3  N   UNL     1      36.123 -23.167 -15.261  0.00  0.00    -0.286 N 
ATOM      4  C   UNL     1      34.772 -23.472 -14.960  0.00  0.00    +0.058 C 
ATOM      5  C   UNL     1      37.246 -23.908 -14.810  0.00  0.00    +0.058 C 
ATOM      6  C   UNL     1      34.437 -24.266 -13.846  0.00  0.00    +0.043 C 
ATOM      7  C   UNL     1      37.156 -24.745 -13.680  0.00  0.00    +0.043 C 
ATOM      8  C   UNL     1      33.706 -23.028 -15.774  0.00  0.00    +0.027 C 
ATOM      9  C   UNL     1      38.486 -23.871 -15.485  0.00  0.00    +0.015 C 
ATOM     10  C   UNL     1      33.097 -24.572 -13.556  0.00  0.00    +0.009 C 
ATOM     11  C   UNL     1      38.270 -25.484 -13.242  0.00  0.00    +0.008 C 
ATOM     12  C   UNL     1      32.375 -23.339 -15.484  0.00  0.00    +0.059 C 
ATOM     13  C   UNL     1      39.588 -24.611 -15.048  0.00  0.00    +0.001 C 
ATOM     14  C   UNL     1      32.070 -24.109 -14.372  0.00  0.00    +0.012 C 
ATOM     15  C   UNL     1      39.481 -25.415 -13.923  0.00  0.00    +0.001 C 
ENDROOT
BRANCH   3  16
ATOM     16  C   UNL     1      36.378 -22.040 -16.168  0.00  0.00    +0.093 C 
BRANCH  16  17
ATOM     17  C   UNL     1      35.841 -22.342 -17.568  0.00  0.00    -0.001 C 
BRANCH  17  18
ATOM     18  C   UNL     1      36.701 -21.793 -18.711  0.00  0.00    -0.076 C 
BRANCH  18  19
ATOM     19  N   UNL     1      36.075 -20.641 -19.359  0.00  0.00    +0.384 N 
ATOM     20  N   UNL     1      35.060 -19.223 -21.665  0.00  0.00    +0.386 N 
ATOM     21  C   UNL     1      36.982 -20.043 -20.347  0.00  0.00    -0.101 C 
ATOM     22  C   UNL     1      34.808 -21.024 -19.993  0.00  0.00    -0.101 C 
ATOM     23  C   UNL     1      36.327 -18.838 -21.031  0.00  0.00    -0.101 C 
ATOM     24  C   UNL     1      34.153 -19.818 -20.676  0.00  0.00    -0.101 C 
ATOM     25  H   UNL     1      35.878 -19.944 -18.641  0.00  0.00    -0.080 HD
ATOM     26  H   UNL     1      35.257 -19.920 -22.382  0.00  0.00    -0.080 HD
BRANCH  20  27
ATOM     27  C   UNL     1      34.435 -18.073 -22.315  0.00  0.00    -0.045 C 
BRANCH  27  28
ATOM     28  C   UNL     1      35.189 -17.694 -23.579  0.00  0.00    +0.115 C 
BRANCH  28  29
ATOM     29  O   UNL     1      35.685 -16.370 -23.436  0.00  0.00    -0.384 OA
ATOM     30  H   UNL     1      36.631 -16.354 -23.653  0.00  0.00    +0.210 HD
ENDBRANCH  28  29
ENDBRANCH  27  28
ENDBRANCH  20  27
ENDBRANCH  18  19
ENDBRANCH  17  18
ENDBRANCH  16  17
ENDBRANCH   3  16
TORSDOF 7
ENDMDL
MODEL 9
REMARK VINA RESULT:      -8.6      9.754     12.438
REMARK  Name = 4748
REMARK  7 active torsions:
REMARK  status: ('A' for Active; 'I' for Inactive)
REMARK    1  A    between atoms: N_3  and  C_16
REMARK    2  A    between atoms: C_16  and  C_17
REMARK    3  A    between atoms: C_17  and  C_18
REMARK    4  A    between atoms: C_18  and  N_19
REMARK    5  A    between atoms: N_20  and  C_27
REMARK    6  A    between atoms: C_27  and  C_28
REMARK    7  A    between atoms: C_28  and  O_29
REMARK                            x       y       z     vdW  Elec       q    Type
REMARK                         _______ _______ _______ _____ _____    ______ ____
ROOT
ATOM      1 CL   UNL     1      32.839 -15.792 -26.817  0.00  0.00    -0.082 Cl
ATOM      2  S   UNL     1      33.507 -10.410 -23.627  0.00  0.00    -0.084 S 
ATOM      3  N   UNL     1      32.590 -13.112 -22.395  0.00  0.00    -0.286 N 
ATOM      4  C   UNL     1      32.876 -13.135 -23.783  0.00  0.00    +0.058 C 
ATOM      5  C   UNL     1      32.256 -11.952 -21.650  0.00  0.00    +0.058 C 
ATOM      6  C   UNL     1      33.278 -11.967 -24.461  0.00  0.00    +0.043 C 
ATOM      7  C   UNL     1      32.597 -10.667 -22.118  0.00  0.00    +0.043 C 
ATOM      8  C   UNL     1      32.738 -14.309 -24.556  0.00  0.00    +0.027 C 
ATOM      9  C   UNL     1      31.540 -12.023 -20.435  0.00  0.00    +0.015 C 
ATOM     10  C   UNL     1      33.553 -11.993 -25.840  0.00  0.00    +0.009 C 
ATOM     11  C   UNL     1      32.256  -9.519 -21.379  0.00  0.00    +0.008 C 
ATOM     12  C   UNL     1      33.008 -14.328 -25.927  0.00  0.00    +0.059 C 
ATOM     13  C   UNL     1      31.200 -10.879 -19.709  0.00  0.00    +0.001 C 
ATOM     14  C   UNL     1      33.418 -13.170 -26.569  0.00  0.00    +0.012 C 
ATOM     15  C   UNL     1      31.561  -9.626 -20.179  0.00  0.00    +0.001 C 
ENDROOT
BRANCH   3  16
ATOM     16  C   UNL     1      32.568 -14.398 -21.687  0.00  0.00    +0.093 C 
BRANCH  16  17
ATOM     17  C   UNL     1      33.989 -14.862 -21.365  0.00  0.00    -0.001 C 
BRANCH  17  18
ATOM     18  C   UNL     1      34.477 -16.046 -22.206  0.00  0.00    -0.076 C 
BRANCH  18  19
ATOM     19  N   UNL     1      34.773 -17.216 -21.379  0.00  0.00    +0.384 N 
ATOM     20  N   UNL     1      35.263 -20.040 -20.998  0.00  0.00    +0.386 N 
ATOM     21  C   UNL     1      33.683 -18.196 -21.457  0.00  0.00    -0.101 C 
ATOM     22  C   UNL     1      36.044 -17.830 -21.781  0.00  0.00    -0.101 C 
ATOM     23  C   UNL     1      33.992 -19.426 -20.595  0.00  0.00    -0.101 C 
ATOM     24  C   UNL     1      36.353 -19.059 -20.918  0.00  0.00    -0.101 C 
ATOM     25  H   UNL     1      34.857 -16.906 -20.412  0.00  0.00    -0.080 HD
ATOM     26  H   UNL     1      35.179 -20.349 -21.966  0.00  0.00    -0.080 HD
BRANCH  20  27
ATOM     27  C   UNL     1      35.558 -21.210 -20.175  0.00  0.00    -0.045 C 
BRANCH  27  28
ATOM     28  C   UNL     1      34.304 -21.699 -19.468  0.00  0.00    +0.115 C 
BRANCH  28  29
ATOM     29  O   UNL     1      34.386 -23.111 -19.317  0.00  0.00    -0.384 OA
ATOM     30  H   UNL     1      33.768 -23.398 -18.626  0.00  0.00    +0.210 HD
ENDBRANCH  28  29
ENDBRANCH  27  28
ENDBRANCH  20  27
ENDBRANCH  18  19
ENDBRANCH  17  18
ENDBRANCH  16  17
ENDBRANCH   3  16
TORSDOF 7
ENDMDL
