MODEL 1
REMARK VINA RESULT:      -6.7      0.000      0.000
REMARK  Name = 5850
REMARK  6 active torsions:
REMARK  status: ('A' for Active; 'I' for Inactive)
REMARK    1  A    between atoms: C_1  and  C_2
REMARK    2  A    between atoms: C_1  and  C_10
REMARK    3  A    between atoms: C_2  and  C_3
REMARK    4  A    between atoms: C_3  and  N_4
REMARK    5  A    between atoms: C_10  and  C_11
REMARK    6  A    between atoms: C_11  and  N_12
REMARK                            x       y       z     vdW  Elec       q    Type
REMARK                         _______ _______ _______ _____ _____    ______ ____
ROOT
ATOM      1  C   UNL     1      34.945 -17.242 -25.059  0.00  0.00    -0.004 C 
ENDROOT
BRANCH   1   2
ATOM      2  C   UNL     1      33.829 -16.198 -24.992  0.00  0.00    -0.022 C 
BRANCH   2   3
ATOM      3  C   UNL     1      34.255 -14.996 -24.160  0.00  0.00    -0.073 C 
BRANCH   3   4
ATOM      4  N   UNL     1      33.339 -13.824 -24.474  0.00  0.00    +0.388 N 
ATOM      5  C   UNL     1      34.158 -12.522 -24.598  0.00  0.00    -0.073 C 
ATOM      6  C   UNL     1      32.656 -14.021 -25.842  0.00  0.00    -0.073 C 
ATOM      7  C   UNL     1      33.654 -11.871 -25.870  0.00  0.00    -0.024 C 
ATOM      8  C   UNL     1      33.365 -13.053 -26.768  0.00  0.00    -0.024 C 
ATOM      9  C   UNL     1      32.295 -13.695 -23.375  0.00  0.00    -0.096 C 
ENDBRANCH   3   4
ENDBRANCH   2   3
ENDBRANCH   1   2
BRANCH   1  10
ATOM     10  C   UNL     1      34.716 -18.364 -24.043  0.00  0.00    -0.022 C 
BRANCH  10  11
ATOM     11  C   UNL     1      35.847 -18.508 -23.031  0.00  0.00    -0.073 C 
BRANCH  11  12
ATOM     12  N   UNL     1      35.296 -18.565 -21.615  0.00  0.00    +0.388 N 
ATOM     13  C   UNL     1      36.303 -19.254 -20.670  0.00  0.00    -0.073 C 
ATOM     14  C   UNL     1      34.020 -19.431 -21.569  0.00  0.00    -0.073 C 
ATOM     15  C   UNL     1      35.708 -20.623 -20.408  0.00  0.00    -0.024 C 
ATOM     16  C   UNL     1      34.221 -20.350 -20.382  0.00  0.00    -0.024 C 
ATOM     17  C   UNL     1      35.002 -17.153 -21.134  0.00  0.00    -0.096 C 
ENDBRANCH  11  12
ENDBRANCH  10  11
ENDBRANCH   1  10
TORSDOF 6
ENDMDL
MODEL 2
REMARK VINA RESULT:      -6.7      0.185      6.929
REMARK  Name = 5850
REMARK  6 active torsions:
REMARK  status: ('A' for Active; 'I' for Inactive)
REMARK    1  A    between atoms: C_1  and  C_2
REMARK    2  A    between atoms: C_1  and  C_10
REMARK    3  A    between atoms: C_2  and  C_3
REMARK    4  A    between atoms: C_3  and  N_4
REMARK    5  A    between atoms: C_10  and  C_11
REMARK    6  A    between atoms: C_11  and  N_12
REMARK                            x       y       z     vdW  Elec       q    Type
REMARK                         _______ _______ _______ _____ _____    ______ ____
ROOT
ATOM      1  C   UNL     1      34.955 -17.117 -24.891  0.00  0.00    -0.004 C 
ENDROOT
BRANCH   1   2
ATOM      2  C   UNL     1      34.885 -18.375 -24.023  0.00  0.00    -0.022 C 
BRANCH   2   3
ATOM      3  C   UNL     1      35.982 -18.373 -22.968  0.00  0.00    -0.073 C 
BRANCH   3   4
ATOM      4  N   UNL     1      35.350 -18.485 -21.591  0.00  0.00    +0.388 N 
ATOM      5  C   UNL     1      34.059 -19.327 -21.660  0.00  0.00    -0.073 C 
ATOM      6  C   UNL     1      36.288 -19.236 -20.624  0.00  0.00    -0.073 C 
ATOM      7  C   UNL     1      34.175 -20.304 -20.508  0.00  0.00    -0.024 C 
ATOM      8  C   UNL     1      35.656 -20.604 -20.462  0.00  0.00    -0.024 C 
ATOM      9  C   UNL     1      35.051 -17.091 -21.061  0.00  0.00    -0.096 C 
ENDBRANCH   3   4
ENDBRANCH   2   3
ENDBRANCH   1   2
BRANCH   1  10
ATOM     10  C   UNL     1      33.805 -16.158 -24.571  0.00  0.00    -0.022 C 
BRANCH  10  11
ATOM     11  C   UNL     1      34.264 -14.852 -23.934  0.00  0.00    -0.073 C 
BRANCH  11  12
ATOM     12  N   UNL     1      33.350 -13.706 -24.339  0.00  0.00    +0.388 N 
ATOM     13  C   UNL     1      32.652 -14.018 -25.680  0.00  0.00    -0.073 C 
ATOM     14  C   UNL     1      34.174 -12.425 -24.585  0.00  0.00    -0.073 C 
ATOM     15  C   UNL     1      33.357 -13.137 -26.693  0.00  0.00    -0.024 C 
ATOM     16  C   UNL     1      33.660 -11.884 -25.903  0.00  0.00    -0.024 C 
ATOM     17  C   UNL     1      32.318 -13.477 -23.247  0.00  0.00    -0.096 C 
ENDBRANCH  11  12
ENDBRANCH  10  11
ENDBRANCH   1  10
TORSDOF 6
ENDMDL
MODEL 3
REMARK VINA RESULT:      -6.7      1.324      6.468
REMARK  Name = 5850
REMARK  6 active torsions:
REMARK  status: ('A' for Active; 'I' for Inactive)
REMARK    1  A    between atoms: C_1  and  C_2
REMARK    2  A    between atoms: C_1  and  C_10
REMARK    3  A    between atoms: C_2  and  C_3
REMARK    4  A    between atoms: C_3  and  N_4
REMARK    5  A    between atoms: C_10  and  C_11
REMARK    6  A    between atoms: C_11  and  N_12
REMARK                            x       y       z     vdW  Elec       q    Type
REMARK                         _______ _______ _______ _____ _____    ______ ____
ROOT
ATOM      1  C   UNL     1      34.572 -17.426 -24.473  0.00  0.00    -0.004 C 
ENDROOT
BRANCH   1   2
ATOM      2  C   UNL     1      35.399 -18.145 -23.405  0.00  0.00    -0.022 C 
BRANCH   2   3
ATOM      3  C   UNL     1      34.680 -19.388 -22.903  0.00  0.00    -0.073 C 
BRANCH   3   4
ATOM      4  N   UNL     1      34.469 -19.270 -21.402  0.00  0.00    +0.388 N 
ATOM      5  C   UNL     1      33.126 -19.911 -20.996  0.00  0.00    -0.073 C 
ATOM      6  C   UNL     1      35.555 -20.056 -20.639  0.00  0.00    -0.073 C 
ATOM      7  C   UNL     1      33.459 -20.778 -19.799  0.00  0.00    -0.024 C 
ATOM      8  C   UNL     1      34.844 -21.292 -20.124  0.00  0.00    -0.024 C 
ATOM      9  C   UNL     1      34.503 -17.802 -21.005  0.00  0.00    -0.096 C 
ENDBRANCH   3   4
ENDBRANCH   2   3
ENDBRANCH   1   2
BRANCH   1  10
ATOM     10  C   UNL     1      34.750 -15.908 -24.382  0.00  0.00    -0.022 C 
BRANCH  10  11
ATOM     11  C   UNL     1      33.432 -15.144 -24.339  0.00  0.00    -0.073 C 
BRANCH  11  12
ATOM     12  N   UNL     1      33.525 -13.966 -23.381  0.00  0.00    +0.388 N 
ATOM     13  C   UNL     1      34.493 -14.284 -22.222  0.00  0.00    -0.073 C 
ATOM     14  C   UNL     1      32.155 -13.702 -22.722  0.00  0.00    -0.073 C 
ATOM     15  C   UNL     1      33.593 -14.527 -21.027  0.00  0.00    -0.024 C 
ATOM     16  C   UNL     1      32.462 -13.547 -21.246  0.00  0.00    -0.024 C 
ATOM     17  C   UNL     1      33.998 -12.737 -24.142  0.00  0.00    -0.096 C 
ENDBRANCH  11  12
ENDBRANCH  10  11
ENDBRANCH   1  10
TORSDOF 6
ENDMDL
MODEL 4
REMARK VINA RESULT:      -6.7      1.428      2.613
REMARK  Name = 5850
REMARK  6 active torsions:
REMARK  status: ('A' for Active; 'I' for Inactive)
REMARK    1  A    between atoms: C_1  and  C_2
REMARK    2  A    between atoms: C_1  and  C_10
REMARK    3  A    between atoms: C_2  and  C_3
REMARK    4  A    between atoms: C_3  and  N_4
REMARK    5  A    between atoms: C_10  and  C_11
REMARK    6  A    between atoms: C_11  and  N_12
REMARK                            x       y       z     vdW  Elec       q    Type
REMARK                         _______ _______ _______ _____ _____    ______ ____
ROOT
ATOM      1  C   UNL     1      34.883 -17.447 -24.432  0.00  0.00    -0.004 C 
ENDROOT
BRANCH   1   2
ATOM      2  C   UNL     1      34.962 -15.979 -24.007  0.00  0.00    -0.022 C 
BRANCH   2   3
ATOM      3  C   UNL     1      33.588 -15.325 -24.045  0.00  0.00    -0.073 C 
BRANCH   3   4
ATOM      4  N   UNL     1      33.592 -14.104 -23.141  0.00  0.00    +0.388 N 
ATOM      5  C   UNL     1      32.216 -13.930 -22.466  0.00  0.00    -0.073 C 
ATOM      6  C   UNL     1      34.603 -14.285 -21.990  0.00  0.00    -0.073 C 
ATOM      7  C   UNL     1      32.532 -13.684 -21.005  0.00  0.00    -0.024 C 
ATOM      8  C   UNL     1      33.748 -14.552 -20.767  0.00  0.00    -0.024 C 
ATOM      9  C   UNL     1      33.943 -12.873 -23.963  0.00  0.00    -0.096 C 
ENDBRANCH   3   4
ENDBRANCH   2   3
ENDBRANCH   1   2
BRANCH   1  10
ATOM     10  C   UNL     1      35.511 -18.364 -23.379  0.00  0.00    -0.022 C 
BRANCH  10  11
ATOM     11  C   UNL     1      34.567 -19.448 -22.876  0.00  0.00    -0.073 C 
BRANCH  11  12
ATOM     12  N   UNL     1      34.373 -19.337 -21.371  0.00  0.00    +0.388 N 
ATOM     13  C   UNL     1      35.526 -20.038 -20.623  0.00  0.00    -0.073 C 
ATOM     14  C   UNL     1      33.087 -20.071 -20.940  0.00  0.00    -0.073 C 
ATOM     15  C   UNL     1      34.915 -21.319 -20.091  0.00  0.00    -0.024 C 
ATOM     16  C   UNL     1      33.502 -20.905 -19.745  0.00  0.00    -0.024 C 
ATOM     17  C   UNL     1      34.307 -17.869 -20.981  0.00  0.00    -0.096 C 
ENDBRANCH  11  12
ENDBRANCH  10  11
ENDBRANCH   1  10
TORSDOF 6
ENDMDL
MODEL 5
REMARK VINA RESULT:      -6.6      1.232      7.196
REMARK  Name = 5850
REMARK  6 active torsions:
REMARK  status: ('A' for Active; 'I' for Inactive)
REMARK    1  A    between atoms: C_1  and  C_2
REMARK    2  A    between atoms: C_1  and  C_10
REMARK    3  A    between atoms: C_2  and  C_3
REMARK    4  A    between atoms: C_3  and  N_4
REMARK    5  A    between atoms: C_10  and  C_11
REMARK    6  A    between atoms: C_11  and  N_12
REMARK                            x       y       z     vdW  Elec       q    Type
REMARK                         _______ _______ _______ _____ _____    ______ ____
ROOT
ATOM      1  C   UNL     1      34.567 -15.294 -20.577  0.00  0.00    -0.004 C 
ENDROOT
BRANCH   1   2
ATOM      2  C   UNL     1      35.015 -16.619 -21.196  0.00  0.00    -0.022 C 
BRANCH   2   3
ATOM      3  C   UNL     1      33.870 -17.621 -21.228  0.00  0.00    -0.073 C 
BRANCH   3   4
ATOM      4  N   UNL     1      34.413 -18.986 -21.621  0.00  0.00    +0.388 N 
ATOM      5  C   UNL     1      35.774 -19.238 -20.939  0.00  0.00    -0.073 C 
ATOM      6  C   UNL     1      33.479 -20.105 -21.118  0.00  0.00    -0.073 C 
ATOM      7  C   UNL     1      35.664 -20.637 -20.367  0.00  0.00    -0.024 C 
ATOM      8  C   UNL     1      34.215 -20.719 -19.943  0.00  0.00    -0.024 C 
ATOM      9  C   UNL     1      34.552 -19.053 -23.134  0.00  0.00    -0.096 C 
ENDBRANCH   3   4
ENDBRANCH   2   3
ENDBRANCH   1   2
BRANCH   1  10
ATOM     10  C   UNL     1      33.605 -14.545 -21.504  0.00  0.00    -0.022 C 
BRANCH  10  11
ATOM     11  C   UNL     1      34.216 -14.190 -22.854  0.00  0.00    -0.073 C 
BRANCH  11  12
ATOM     12  N   UNL     1      33.287 -13.280 -23.642  0.00  0.00    +0.388 N 
ATOM     13  C   UNL     1      32.768 -13.999 -24.906  0.00  0.00    -0.073 C 
ATOM     14  C   UNL     1      34.053 -12.042 -24.151  0.00  0.00    -0.073 C 
ATOM     15  C   UNL     1      33.529 -13.360 -26.050  0.00  0.00    -0.024 C 
ATOM     16  C   UNL     1      33.662 -11.919 -25.610  0.00  0.00    -0.024 C 
ATOM     17  C   UNL     1      32.124 -12.863 -22.757  0.00  0.00    -0.096 C 
ENDBRANCH  11  12
ENDBRANCH  10  11
ENDBRANCH   1  10
TORSDOF 6
ENDMDL
MODEL 6
REMARK VINA RESULT:      -6.5      1.228      2.333
REMARK  Name = 5850
REMARK  6 active torsions:
REMARK  status: ('A' for Active; 'I' for Inactive)
REMARK    1  A    between atoms: C_1  and  C_2
REMARK    2  A    between atoms: C_1  and  C_10
REMARK    3  A    between atoms: C_2  and  C_3
REMARK    4  A    between atoms: C_3  and  N_4
REMARK    5  A    between atoms: C_10  and  C_11
REMARK    6  A    between atoms: C_11  and  N_12
REMARK                            x       y       z     vdW  Elec       q    Type
REMARK                         _______ _______ _______ _____ _____    ______ ____
ROOT
ATOM      1  C   UNL     1      34.355 -15.230 -20.497  0.00  0.00    -0.004 C 
ENDROOT
BRANCH   1   2
ATOM      2  C   UNL     1      33.444 -14.792 -21.645  0.00  0.00    -0.022 C 
BRANCH   2   3
ATOM      3  C   UNL     1      34.236 -14.071 -22.726  0.00  0.00    -0.073 C 
BRANCH   3   4
ATOM      4  N   UNL     1      33.293 -13.198 -23.537  0.00  0.00    +0.388 N 
ATOM      5  C   UNL     1      34.059 -12.009 -24.153  0.00  0.00    -0.073 C 
ATOM      6  C   UNL     1      32.715 -13.986 -24.730  0.00  0.00    -0.073 C 
ATOM      7  C   UNL     1      33.615 -11.973 -25.601  0.00  0.00    -0.024 C 
ATOM      8  C   UNL     1      33.442 -13.437 -25.941  0.00  0.00    -0.024 C 
ATOM      9  C   UNL     1      32.171 -12.703 -22.638  0.00  0.00    -0.096 C 
ENDBRANCH   3   4
ENDBRANCH   2   3
ENDBRANCH   1   2
BRANCH   1  10
ATOM     10  C   UNL     1      34.957 -16.613 -20.764  0.00  0.00    -0.022 C 
BRANCH  10  11
ATOM     11  C   UNL     1      33.978 -17.587 -21.407  0.00  0.00    -0.073 C 
BRANCH  11  12
ATOM     12  N   UNL     1      34.671 -18.897 -21.752  0.00  0.00    +0.388 N 
ATOM     13  C   UNL     1      33.876 -20.095 -21.191  0.00  0.00    -0.073 C 
ATOM     14  C   UNL     1      36.057 -18.963 -21.078  0.00  0.00    -0.073 C 
ATOM     15  C   UNL     1      34.687 -20.571 -20.002  0.00  0.00    -0.024 C 
ATOM     16  C   UNL     1      36.113 -20.340 -20.448  0.00  0.00    -0.024 C 
ATOM     17  C   UNL     1      34.804 -19.011 -23.262  0.00  0.00    -0.096 C 
ENDBRANCH  11  12
ENDBRANCH  10  11
ENDBRANCH   1  10
TORSDOF 6
ENDMDL
MODEL 7
REMARK VINA RESULT:      -6.5      3.280      8.057
REMARK  Name = 5850
REMARK  6 active torsions:
REMARK  status: ('A' for Active; 'I' for Inactive)
REMARK    1  A    between atoms: C_1  and  C_2
REMARK    2  A    between atoms: C_1  and  C_10
REMARK    3  A    between atoms: C_2  and  C_3
REMARK    4  A    between atoms: C_3  and  N_4
REMARK    5  A    between atoms: C_10  and  C_11
REMARK    6  A    between atoms: C_11  and  N_12
REMARK                            x       y       z     vdW  Elec       q    Type
REMARK                         _______ _______ _______ _____ _____    ______ ____
ROOT
ATOM      1  C   UNL     1      31.795 -12.280 -21.328  0.00  0.00    -0.004 C 
ENDROOT
BRANCH   1   2
ATOM      2  C   UNL     1      32.357 -13.303 -22.318  0.00  0.00    -0.022 C 
BRANCH   2   3
ATOM      3  C   UNL     1      32.433 -14.686 -21.688  0.00  0.00    -0.073 C 
BRANCH   3   4
ATOM      4  N   UNL     1      33.862 -15.198 -21.781  0.00  0.00    +0.388 N 
ATOM      5  C   UNL     1      33.878 -16.739 -21.834  0.00  0.00    -0.073 C 
ATOM      6  C   UNL     1      34.522 -14.726 -23.092  0.00  0.00    -0.073 C 
ATOM      7  C   UNL     1      34.821 -17.075 -22.972  0.00  0.00    -0.024 C 
ATOM      8  C   UNL     1      34.566 -15.964 -23.966  0.00  0.00    -0.024 C 
ATOM      9  C   UNL     1      34.652 -14.697 -20.581  0.00  0.00    -0.096 C 
ENDBRANCH   3   4
ENDBRANCH   2   3
ENDBRANCH   1   2
BRANCH   1  10
ATOM     10  C   UNL     1      31.298 -11.024 -22.051  0.00  0.00    -0.022 C 
BRANCH  10  11
ATOM     11  C   UNL     1      32.019  -9.752 -21.624  0.00  0.00    -0.073 C 
BRANCH  11  12
ATOM     12  N   UNL     1      32.390  -8.911 -22.836  0.00  0.00    +0.388 N 
ATOM     13  C   UNL     1      33.015  -9.793 -23.937  0.00  0.00    -0.073 C 
ATOM     14  C   UNL     1      33.473  -7.879 -22.461  0.00  0.00    -0.073 C 
ATOM     15  C   UNL     1      34.495  -9.465 -23.897  0.00  0.00    -0.024 C 
ATOM     16  C   UNL     1      34.508  -7.990 -23.563  0.00  0.00    -0.024 C 
ATOM     17  C   UNL     1      31.145  -8.214 -23.362  0.00  0.00    -0.096 C 
ENDBRANCH  11  12
ENDBRANCH  10  11
ENDBRANCH   1  10
TORSDOF 6
ENDMDL
MODEL 8
REMARK VINA RESULT:      -6.5      3.273      5.168
REMARK  Name = 5850
REMARK  6 active torsions:
REMARK  status: ('A' for Active; 'I' for Inactive)
REMARK    1  A    between atoms: C_1  and  C_2
REMARK    2  A    between atoms: C_1  and  C_10
REMARK    3  A    between atoms: C_2  and  C_3
REMARK    4  A    between atoms: C_3  and  N_4
REMARK    5  A    between atoms: C_10  and  C_11
REMARK    6  A    between atoms: C_11  and  N_12
REMARK                            x       y       z     vdW  Elec       q    Type
REMARK                         _______ _______ _______ _____ _____    ______ ____
ROOT
ATOM      1  C   UNL     1      31.723 -12.232 -21.357  0.00  0.00    -0.004 C 
ENDROOT
BRANCH   1   2
ATOM      2  C   UNL     1      31.282 -10.969 -22.099  0.00  0.00    -0.022 C 
BRANCH   2   3
ATOM      3  C   UNL     1      32.091  -9.761 -21.648  0.00  0.00    -0.073 C 
BRANCH   3   4
ATOM      4  N   UNL     1      32.447  -8.918 -22.863  0.00  0.00    +0.388 N 
ATOM      5  C   UNL     1      33.506  -7.860 -22.490  0.00  0.00    -0.073 C 
ATOM      6  C   UNL     1      33.094  -9.791 -23.957  0.00  0.00    -0.073 C 
ATOM      7  C   UNL     1      34.546  -7.954 -23.588  0.00  0.00    -0.024 C 
ATOM      8  C   UNL     1      34.565  -9.430 -23.915  0.00  0.00    -0.024 C 
ATOM      9  C   UNL     1      31.188  -8.250 -23.395  0.00  0.00    -0.096 C 
ENDBRANCH   3   4
ENDBRANCH   2   3
ENDBRANCH   1   2
BRANCH   1  10
ATOM     10  C   UNL     1      32.356 -13.245 -22.315  0.00  0.00    -0.022 C 
BRANCH  10  11
ATOM     11  C   UNL     1      32.447 -14.652 -21.737  0.00  0.00    -0.073 C 
BRANCH  11  12
ATOM     12  N   UNL     1      33.873 -15.175 -21.819  0.00  0.00    +0.388 N 
ATOM     13  C   UNL     1      34.539 -14.729 -23.138  0.00  0.00    -0.073 C 
ATOM     14  C   UNL     1      33.877 -16.718 -21.850  0.00  0.00    -0.073 C 
ATOM     15  C   UNL     1      34.575 -15.980 -23.992  0.00  0.00    -0.024 C 
ATOM     16  C   UNL     1      34.820 -17.077 -22.980  0.00  0.00    -0.024 C 
ATOM     17  C   UNL     1      34.665 -14.662 -20.627  0.00  0.00    -0.096 C 
ENDBRANCH  11  12
ENDBRANCH  10  11
ENDBRANCH   1  10
TORSDOF 6
ENDMDL
MODEL 9
REMARK VINA RESULT:      -6.4     11.128     13.137
REMARK  Name = 5850
REMARK  6 active torsions:
REMARK  status: ('A' for Active; 'I' for Inactive)
REMARK    1  A    between atoms: C_1  and  C_2
REMARK    2  A    between atoms: C_1  and  C_10
REMARK    3  A    between atoms: C_2  and  C_3
REMARK    4  A    between atoms: C_3  and  N_4
REMARK    5  A    between atoms: C_10  and  C_11
REMARK    6  A    between atoms: C_11  and  N_12
REMARK                            x       y       z     vdW  Elec       q    Type
REMARK                         _______ _______ _______ _____ _____    ______ ____
ROOT
ATOM      1  C   UNL     1      33.500 -23.393 -15.458  0.00  0.00    -0.004 C 
ENDROOT
BRANCH   1   2
ATOM      2  C   UNL     1      34.386 -23.906 -14.320  0.00  0.00    -0.022 C 
BRANCH   2   3
ATOM      3  C   UNL     1      35.489 -24.810 -14.852  0.00  0.00    -0.073 C 
BRANCH   3   4
ATOM      4  N   UNL     1      36.836 -24.277 -14.391  0.00  0.00    +0.388 N 
ATOM      5  C   UNL     1      36.699 -23.592 -13.016  0.00  0.00    -0.073 C 
ATOM      6  C   UNL     1      37.835 -25.434 -14.185  0.00  0.00    -0.073 C 
ATOM      7  C   UNL     1      37.844 -24.148 -12.193  0.00  0.00    -0.024 C 
ATOM      8  C   UNL     1      37.952 -25.576 -12.681  0.00  0.00    -0.024 C 
ATOM      9  C   UNL     1      37.367 -23.297 -15.426  0.00  0.00    -0.096 C 
ENDBRANCH   3   4
ENDBRANCH   2   3
ENDBRANCH   1   2
BRANCH   1  10
ATOM     10  C   UNL     1      32.030 -23.338 -15.034  0.00  0.00    -0.022 C 
BRANCH  10  11
ATOM     11  C   UNL     1      31.058 -23.557 -16.187  0.00  0.00    -0.073 C 
BRANCH  11  12
ATOM     12  N   UNL     1      29.645 -23.768 -15.666  0.00  0.00    +0.388 N 
ATOM     13  C   UNL     1      28.713 -24.244 -16.801  0.00  0.00    -0.073 C 
ATOM     14  C   UNL     1      29.051 -22.434 -15.169  0.00  0.00    -0.073 C 
ATOM     15  C   UNL     1      27.862 -23.034 -17.130  0.00  0.00    -0.024 C 
ATOM     16  C   UNL     1      27.667 -22.377 -15.782  0.00  0.00    -0.024 C 
ATOM     17  C   UNL     1      29.673 -24.792 -14.542  0.00  0.00    -0.096 C 
ENDBRANCH  11  12
ENDBRANCH  10  11
ENDBRANCH   1  10
TORSDOF 6
ENDMDL
