MODEL 1
REMARK VINA RESULT:     -10.9      0.000      0.000
REMARK  Name = 5724
REMARK  5 active torsions:
REMARK  status: ('A' for Active; 'I' for Inactive)
REMARK    1  A    between atoms: N_4  and  C_14
REMARK    2  A    between atoms: N_5  and  C_23
REMARK    3  A    between atoms: C_14  and  C_17
REMARK    4  A    between atoms: C_23  and  C_25
REMARK    5  A    between atoms: C_25  and  O_26
REMARK                            x       y       z     vdW  Elec       q    Type
REMARK                         _______ _______ _______ _____ _____    ______ ____
ROOT
ATOM      1 CL   UNL     1      30.647 -11.189 -21.747  0.00  0.00    -0.082 Cl
ATOM      2  O   UNL     1      34.535 -16.651 -25.097  0.00  0.00    -0.246 OA
ATOM      3  O   UNL     1      35.041 -16.033 -20.518  0.00  0.00    -0.267 OA
ATOM      4  N   UNL     1      34.787 -16.384 -22.808  0.00  0.00    -0.244 N 
ATOM      5  N   UNL     1      33.332 -14.967 -24.060  0.00  0.00    -0.270 N 
ATOM      6  C   UNL     1      32.992 -14.256 -22.872  0.00  0.00    +0.070 A 
ATOM      7  C   UNL     1      33.570 -14.618 -21.653  0.00  0.00    +0.072 A 
ATOM      8  C   UNL     1      34.237 -16.043 -24.063  0.00  0.00    +0.334 A 
ATOM      9  C   UNL     1      34.526 -15.734 -21.593  0.00  0.00    +0.266 A 
ATOM     10  C   UNL     1      32.083 -13.183 -22.879  0.00  0.00    +0.029 C 
ATOM     11  C   UNL     1      33.251 -13.931 -20.473  0.00  0.00    +0.007 C 
ATOM     12  C   UNL     1      31.764 -12.498 -21.704  0.00  0.00    +0.059 C 
ATOM     13  C   UNL     1      32.349 -12.871 -20.500  0.00  0.00    +0.012 C 
ENDROOT
BRANCH   4  14
ATOM     14  C   UNL     1      35.730 -17.499 -22.746  0.00  0.00    +0.142 C 
BRANCH  14  17
ATOM     15 BR   UNL     1      33.672 -22.057 -19.131  0.00  0.00    -0.049 Br
ATOM     16  F   UNL     1      37.437 -19.033 -21.099  0.00  0.00    -0.204 F 
ATOM     17  C   UNL     1      35.231 -18.609 -21.866  0.00  0.00    +0.028 C 
ATOM     18  C   UNL     1      36.129 -19.322 -21.080  0.00  0.00    +0.138 C 
ATOM     19  C   UNL     1      33.875 -18.910 -21.846  0.00  0.00    +0.000 C 
ATOM     20  C   UNL     1      35.663 -20.353 -20.264  0.00  0.00    +0.036 C 
ATOM     21  C   UNL     1      33.409 -19.940 -21.029  0.00  0.00    +0.007 C 
ATOM     22  C   UNL     1      34.303 -20.661 -20.238  0.00  0.00    +0.037 C 
ENDBRANCH  14  17
ENDBRANCH   4  14
BRANCH   5  23
ATOM     23  C   UNL     1      32.716 -14.561 -25.324  0.00  0.00    +0.220 C 
BRANCH  23  25
ATOM     24  O   UNL     1      33.905 -12.486 -25.596  0.00  0.00    -0.248 OA
ATOM     25  C   UNL     1      33.541 -13.552 -26.080  0.00  0.00    +0.337 C 
BRANCH  25  26
ATOM     26  O   UNL     1      33.839 -13.932 -27.344  0.00  0.00    -0.479 OA
ATOM     27  H   UNL     1      34.618 -14.426 -27.512  0.00  0.00    +0.295 HD
ENDBRANCH  25  26
ENDBRANCH  23  25
ENDBRANCH   5  23
TORSDOF 5
ENDMDL
MODEL 2
REMARK VINA RESULT:     -10.4      6.262      9.715
REMARK  Name = 5724
REMARK  5 active torsions:
REMARK  status: ('A' for Active; 'I' for Inactive)
REMARK    1  A    between atoms: N_4  and  C_14
REMARK    2  A    between atoms: N_5  and  C_23
REMARK    3  A    between atoms: C_14  and  C_17
REMARK    4  A    between atoms: C_23  and  C_25
REMARK    5  A    between atoms: C_25  and  O_26
REMARK                            x       y       z     vdW  Elec       q    Type
REMARK                         _______ _______ _______ _____ _____    ______ ____
ROOT
ATOM      1 CL   UNL     1      31.953 -24.013 -13.312  0.00  0.00    -0.082 Cl
ATOM      2  O   UNL     1      37.291 -21.774 -18.073  0.00  0.00    -0.246 OA
ATOM      3  O   UNL     1      33.004 -22.513 -19.709  0.00  0.00    -0.267 OA
ATOM      4  N   UNL     1      35.156 -22.108 -18.912  0.00  0.00    -0.244 N 
ATOM      5  N   UNL     1      35.641 -22.462 -16.602  0.00  0.00    -0.270 N 
ATOM      6  C   UNL     1      34.285 -22.839 -16.370  0.00  0.00    +0.070 A 
ATOM      7  C   UNL     1      33.375 -22.854 -17.429  0.00  0.00    +0.072 A 
ATOM      8  C   UNL     1      36.113 -22.091 -17.874  0.00  0.00    +0.334 A 
ATOM      9  C   UNL     1      33.810 -22.480 -18.782  0.00  0.00    +0.266 A 
ATOM     10  C   UNL     1      33.821 -23.204 -15.094  0.00  0.00    +0.029 C 
ATOM     11  C   UNL     1      32.037 -23.224 -17.222  0.00  0.00    +0.007 C 
ATOM     12  C   UNL     1      32.490 -23.571 -14.887  0.00  0.00    +0.059 C 
ATOM     13  C   UNL     1      31.597 -23.582 -15.951  0.00  0.00    +0.012 C 
ENDROOT
BRANCH   4  14
ATOM     14  C   UNL     1      35.587 -21.727 -20.255  0.00  0.00    +0.142 C 
BRANCH  14  17
ATOM     15 BR   UNL     1      34.051 -15.904 -21.605  0.00  0.00    -0.049 Br
ATOM     16  F   UNL     1      37.505 -19.683 -20.609  0.00  0.00    -0.204 F 
ATOM     17  C   UNL     1      35.216 -20.309 -20.583  0.00  0.00    +0.028 C 
ATOM     18  C   UNL     1      36.213 -19.354 -20.744  0.00  0.00    +0.138 C 
ATOM     19  C   UNL     1      33.876 -19.967 -20.723  0.00  0.00    +0.000 C 
ATOM     20  C   UNL     1      35.865 -18.038 -21.049  0.00  0.00    +0.036 C 
ATOM     21  C   UNL     1      33.529 -18.651 -21.029  0.00  0.00    +0.007 C 
ATOM     22  C   UNL     1      34.522 -17.687 -21.191  0.00  0.00    +0.037 C 
ENDBRANCH  14  17
ENDBRANCH   4  14
BRANCH   5  23
ATOM     23  C   UNL     1      36.574 -22.461 -15.476  0.00  0.00    +0.220 C 
BRANCH  23  25
ATOM     24  O   UNL     1      37.042 -24.784 -15.053  0.00  0.00    -0.248 OA
ATOM     25  C   UNL     1      37.444 -23.691 -15.435  0.00  0.00    +0.337 C 
BRANCH  25  26
ATOM     26  O   UNL     1      38.711 -23.474 -15.857  0.00  0.00    -0.479 OA
ATOM     27  H   UNL     1      39.005 -22.599 -16.023  0.00  0.00    +0.295 HD
ENDBRANCH  25  26
ENDBRANCH  23  25
ENDBRANCH   5  23
TORSDOF 5
ENDMDL
MODEL 3
REMARK VINA RESULT:     -10.2      2.433      3.931
REMARK  Name = 5724
REMARK  5 active torsions:
REMARK  status: ('A' for Active; 'I' for Inactive)
REMARK    1  A    between atoms: N_4  and  C_14
REMARK    2  A    between atoms: N_5  and  C_23
REMARK    3  A    between atoms: C_14  and  C_17
REMARK    4  A    between atoms: C_23  and  C_25
REMARK    5  A    between atoms: C_25  and  O_26
REMARK                            x       y       z     vdW  Elec       q    Type
REMARK                         _______ _______ _______ _____ _____    ______ ____
ROOT
ATOM      1 CL   UNL     1      32.446 -13.487 -25.961  0.00  0.00    -0.082 Cl
ATOM      2  O   UNL     1      35.619 -17.113 -20.219  0.00  0.00    -0.246 OA
ATOM      3  O   UNL     1      35.343 -19.253 -24.336  0.00  0.00    -0.267 OA
ATOM      4  N   UNL     1      35.520 -18.195 -22.267  0.00  0.00    -0.244 N 
ATOM      5  N   UNL     1      34.643 -15.992 -21.994  0.00  0.00    -0.270 N 
ATOM      6  C   UNL     1      34.245 -15.975 -23.364  0.00  0.00    +0.070 A 
ATOM      7  C   UNL     1      34.486 -17.086 -24.174  0.00  0.00    +0.072 A 
ATOM      8  C   UNL     1      35.285 -17.098 -21.409  0.00  0.00    +0.334 A 
ATOM      9  C   UNL     1      35.151 -18.274 -23.618  0.00  0.00    +0.266 A 
ATOM     10  C   UNL     1      33.608 -14.863 -23.941  0.00  0.00    +0.029 C 
ATOM     11  C   UNL     1      34.102 -17.091 -25.523  0.00  0.00    +0.007 C 
ATOM     12  C   UNL     1      33.226 -14.865 -25.284  0.00  0.00    +0.059 C 
ATOM     13  C   UNL     1      33.472 -15.980 -26.076  0.00  0.00    +0.012 C 
ENDROOT
BRANCH   4  14
ATOM     14  C   UNL     1      36.190 -19.371 -21.717  0.00  0.00    +0.142 C 
BRANCH  14  17
ATOM     15 BR   UNL     1      32.494 -22.565 -17.946  0.00  0.00    -0.049 Br
ATOM     16  F   UNL     1      37.167 -21.265 -19.862  0.00  0.00    -0.204 F 
ATOM     17  C   UNL     1      35.292 -20.150 -20.799  0.00  0.00    +0.028 C 
ATOM     18  C   UNL     1      35.843 -21.066 -19.909  0.00  0.00    +0.138 C 
ATOM     19  C   UNL     1      33.919 -19.945 -20.847  0.00  0.00    +0.000 C 
ATOM     20  C   UNL     1      35.006 -21.788 -19.058  0.00  0.00    +0.036 C 
ATOM     21  C   UNL     1      33.083 -20.666 -19.995  0.00  0.00    +0.007 C 
ATOM     22  C   UNL     1      33.626 -21.588 -19.101  0.00  0.00    +0.037 C 
ENDBRANCH  14  17
ENDBRANCH   4  14
BRANCH   5  23
ATOM     23  C   UNL     1      34.371 -14.816 -21.167  0.00  0.00    +0.220 C 
BRANCH  23  25
ATOM     24  O   UNL     1      32.274 -15.735 -20.429  0.00  0.00    -0.248 OA
ATOM     25  C   UNL     1      32.940 -14.744 -20.703  0.00  0.00    +0.337 C 
BRANCH  25  26
ATOM     26  O   UNL     1      32.459 -13.482 -20.620  0.00  0.00    -0.479 OA
ATOM     27  H   UNL     1      31.984 -13.212 -19.858  0.00  0.00    +0.295 HD
ENDBRANCH  25  26
ENDBRANCH  23  25
ENDBRANCH   5  23
TORSDOF 5
ENDMDL
MODEL 4
REMARK VINA RESULT:      -9.5      6.252      9.339
REMARK  Name = 5724
REMARK  5 active torsions:
REMARK  status: ('A' for Active; 'I' for Inactive)
REMARK    1  A    between atoms: N_4  and  C_14
REMARK    2  A    between atoms: N_5  and  C_23
REMARK    3  A    between atoms: C_14  and  C_17
REMARK    4  A    between atoms: C_23  and  C_25
REMARK    5  A    between atoms: C_25  and  O_26
REMARK                            x       y       z     vdW  Elec       q    Type
REMARK                         _______ _______ _______ _____ _____    ______ ____
ROOT
ATOM      1 CL   UNL     1      35.851 -23.720 -12.737  0.00  0.00    -0.082 Cl
ATOM      2  O   UNL     1      33.075 -22.760 -19.632  0.00  0.00    -0.246 OA
ATOM      3  O   UNL     1      37.330 -21.142 -18.691  0.00  0.00    -0.267 OA
ATOM      4  N   UNL     1      35.210 -21.967 -19.200  0.00  0.00    -0.244 N 
ATOM      5  N   UNL     1      33.935 -23.059 -17.504  0.00  0.00    -0.270 N 
ATOM      6  C   UNL     1      35.003 -22.877 -16.576  0.00  0.00    +0.070 A 
ATOM      7  C   UNL     1      36.171 -22.226 -16.977  0.00  0.00    +0.072 A 
ATOM      8  C   UNL     1      34.006 -22.608 -18.834  0.00  0.00    +0.334 A 
ATOM      9  C   UNL     1      36.303 -21.729 -18.355  0.00  0.00    +0.266 A 
ATOM     10  C   UNL     1      34.923 -23.336 -15.249  0.00  0.00    +0.029 C 
ATOM     11  C   UNL     1      37.232 -22.035 -16.080  0.00  0.00    +0.007 C 
ATOM     12  C   UNL     1      35.980 -23.147 -14.355  0.00  0.00    +0.059 C 
ATOM     13  C   UNL     1      37.135 -22.496 -14.770  0.00  0.00    +0.012 C 
ENDROOT
BRANCH   4  14
ATOM     14  C   UNL     1      35.345 -21.482 -20.572  0.00  0.00    +0.142 C 
BRANCH  14  17
ATOM     15 BR   UNL     1      33.296 -15.693 -21.184  0.00  0.00    -0.049 Br
ATOM     16  F   UNL     1      37.073 -19.283 -20.974  0.00  0.00    -0.204 F 
ATOM     17  C   UNL     1      34.849 -20.073 -20.720  0.00  0.00    +0.028 C 
ATOM     18  C   UNL     1      35.757 -19.038 -20.917  0.00  0.00    +0.138 C 
ATOM     19  C   UNL     1      33.484 -19.817 -20.661  0.00  0.00    +0.000 C 
ATOM     20  C   UNL     1      35.293 -17.730 -21.054  0.00  0.00    +0.036 C 
ATOM     21  C   UNL     1      33.020 -18.509 -20.800  0.00  0.00    +0.007 C 
ATOM     22  C   UNL     1      33.924 -17.466 -20.996  0.00  0.00    +0.037 C 
ENDBRANCH  14  17
ENDBRANCH   4  14
BRANCH   5  23
ATOM     23  C   UNL     1      32.720 -23.739 -17.055  0.00  0.00    +0.220 C 
BRANCH  23  25
ATOM     24  O   UNL     1      31.578 -22.611 -15.262  0.00  0.00    -0.248 OA
ATOM     25  C   UNL     1      31.703 -22.796 -16.467  0.00  0.00    +0.337 C 
BRANCH  25  26
ATOM     26  O   UNL     1      30.940 -22.174 -17.395  0.00  0.00    -0.479 OA
ATOM     27  H   UNL     1      31.240 -22.111 -18.282  0.00  0.00    +0.295 HD
ENDBRANCH  25  26
ENDBRANCH  23  25
ENDBRANCH   5  23
TORSDOF 5
ENDMDL
MODEL 5
REMARK VINA RESULT:      -9.4      3.698      5.535
REMARK  Name = 5724
REMARK  5 active torsions:
REMARK  status: ('A' for Active; 'I' for Inactive)
REMARK    1  A    between atoms: N_4  and  C_14
REMARK    2  A    between atoms: N_5  and  C_23
REMARK    3  A    between atoms: C_14  and  C_17
REMARK    4  A    between atoms: C_23  and  C_25
REMARK    5  A    between atoms: C_25  and  O_26
REMARK                            x       y       z     vdW  Elec       q    Type
REMARK                         _______ _______ _______ _____ _____    ______ ____
ROOT
ATOM      1 CL   UNL     1      32.329  -6.043 -21.364  0.00  0.00    -0.082 Cl
ATOM      2  O   UNL     1      31.745 -13.360 -22.882  0.00  0.00    -0.246 OA
ATOM      3  O   UNL     1      34.843 -10.827 -25.247  0.00  0.00    -0.267 OA
ATOM      4  N   UNL     1      33.318 -12.128 -24.058  0.00  0.00    -0.244 N 
ATOM      5  N   UNL     1      31.929 -11.101 -22.411  0.00  0.00    -0.270 N 
ATOM      6  C   UNL     1      32.549  -9.842 -22.666  0.00  0.00    +0.070 A 
ATOM      7  C   UNL     1      33.551  -9.741 -23.633  0.00  0.00    +0.072 A 
ATOM      8  C   UNL     1      32.291 -12.273 -23.099  0.00  0.00    +0.334 A 
ATOM      9  C   UNL     1      33.971 -10.931 -24.387  0.00  0.00    +0.266 A 
ATOM     10  C   UNL     1      32.183  -8.677 -21.970  0.00  0.00    +0.029 C 
ATOM     11  C   UNL     1      34.173  -8.512 -23.900  0.00  0.00    +0.007 C 
ATOM     12  C   UNL     1      32.801  -7.452 -22.234  0.00  0.00    +0.059 C 
ATOM     13  C   UNL     1      33.796  -7.369 -23.200  0.00  0.00    +0.012 C 
ENDROOT
BRANCH   4  14
ATOM     14  C   UNL     1      33.741 -13.313 -24.801  0.00  0.00    +0.142 C 
BRANCH  14  17
ATOM     15 BR   UNL     1      35.289 -17.955 -21.041  0.00  0.00    -0.049 Br
ATOM     16  F   UNL     1      33.792 -16.009 -25.642  0.00  0.00    -0.204 F 
ATOM     17  C   UNL     1      34.117 -14.444 -23.888  0.00  0.00    +0.028 C 
ATOM     18  C   UNL     1      34.121 -15.748 -24.370  0.00  0.00    +0.138 C 
ATOM     19  C   UNL     1      34.458 -14.174 -22.568  0.00  0.00    +0.000 C 
ATOM     20  C   UNL     1      34.470 -16.796 -23.519  0.00  0.00    +0.036 C 
ATOM     21  C   UNL     1      34.809 -15.223 -21.718  0.00  0.00    +0.007 C 
ATOM     22  C   UNL     1      34.814 -16.533 -22.193  0.00  0.00    +0.037 C 
ENDBRANCH  14  17
ENDBRANCH   4  14
BRANCH   5  23
ATOM     23  C   UNL     1      30.877 -11.176 -21.397  0.00  0.00    +0.220 C 
BRANCH  23  25
ATOM     24  O   UNL     1      31.307 -10.605 -19.099  0.00  0.00    -0.248 OA
ATOM     25  C   UNL     1      31.415 -11.417 -20.011  0.00  0.00    +0.337 C 
BRANCH  25  26
ATOM     26  O   UNL     1      32.032 -12.613 -19.869  0.00  0.00    -0.479 OA
ATOM     27  H   UNL     1      31.778 -13.191 -19.175  0.00  0.00    +0.295 HD
ENDBRANCH  25  26
ENDBRANCH  23  25
ENDBRANCH   5  23
TORSDOF 5
ENDMDL
MODEL 6
REMARK VINA RESULT:      -8.8      4.703      7.167
REMARK  Name = 5724
REMARK  5 active torsions:
REMARK  status: ('A' for Active; 'I' for Inactive)
REMARK    1  A    between atoms: N_4  and  C_14
REMARK    2  A    between atoms: N_5  and  C_23
REMARK    3  A    between atoms: C_14  and  C_17
REMARK    4  A    between atoms: C_23  and  C_25
REMARK    5  A    between atoms: C_25  and  O_26
REMARK                            x       y       z     vdW  Elec       q    Type
REMARK                         _______ _______ _______ _____ _____    ______ ____
ROOT
ATOM      1 CL   UNL     1      36.740 -18.888 -21.629  0.00  0.00    -0.082 Cl
ATOM      2  O   UNL     1      32.683 -13.745 -25.272  0.00  0.00    -0.246 OA
ATOM      3  O   UNL     1      32.673 -13.719 -20.623  0.00  0.00    -0.267 OA
ATOM      4  N   UNL     1      32.680 -13.690 -22.954  0.00  0.00    -0.244 N 
ATOM      5  N   UNL     1      33.939 -15.330 -24.146  0.00  0.00    -0.270 N 
ATOM      6  C   UNL     1      34.386 -15.892 -22.913  0.00  0.00    +0.070 A 
ATOM      7  C   UNL     1      33.960 -15.342 -21.702  0.00  0.00    +0.072 A 
ATOM      8  C   UNL     1      33.075 -14.222 -24.201  0.00  0.00    +0.334 A 
ATOM      9  C   UNL     1      33.054 -14.184 -21.695  0.00  0.00    +0.266 A 
ATOM     10  C   UNL     1      35.252 -16.997 -22.868  0.00  0.00    +0.029 C 
ATOM     11  C   UNL     1      34.386 -15.879 -20.478  0.00  0.00    +0.007 C 
ATOM     12  C   UNL     1      35.678 -17.533 -21.650  0.00  0.00    +0.059 C 
ATOM     13  C   UNL     1      35.244 -16.975 -20.455  0.00  0.00    +0.012 C 
ENDROOT
BRANCH   4  14
ATOM     14  C   UNL     1      31.787 -12.533 -22.948  0.00  0.00    +0.142 C 
BRANCH  14  17
ATOM     15 BR   UNL     1      34.873  -7.242 -23.694  0.00  0.00    -0.049 Br
ATOM     16  F   UNL     1      31.039 -10.133 -21.659  0.00  0.00    -0.204 F 
ATOM     17  C   UNL     1      32.536 -11.245 -23.128  0.00  0.00    +0.028 C 
ATOM     18  C   UNL     1      32.112 -10.101 -22.462  0.00  0.00    +0.138 C 
ATOM     19  C   UNL     1      33.649 -11.209 -23.961  0.00  0.00    +0.000 C 
ATOM     20  C   UNL     1      32.809  -8.905 -22.632  0.00  0.00    +0.036 C 
ATOM     21  C   UNL     1      34.347 -10.014 -24.129  0.00  0.00    +0.007 C 
ATOM     22  C   UNL     1      33.927  -8.862 -23.466  0.00  0.00    +0.037 C 
ENDBRANCH  14  17
ENDBRANCH   4  14
BRANCH   5  23
ATOM     23  C   UNL     1      34.395 -15.931 -25.399  0.00  0.00    +0.220 C 
BRANCH  23  25
ATOM     24  O   UNL     1      33.575 -18.178 -25.667  0.00  0.00    -0.248 OA
ATOM     25  C   UNL     1      33.454 -16.985 -25.921  0.00  0.00    +0.337 C 
BRANCH  25  26
ATOM     26  O   UNL     1      32.463 -16.490 -26.699  0.00  0.00    -0.479 OA
ATOM     27  H   UNL     1      32.515 -16.573 -27.631  0.00  0.00    +0.295 HD
ENDBRANCH  25  26
ENDBRANCH  23  25
ENDBRANCH   5  23
TORSDOF 5
ENDMDL
MODEL 7
REMARK VINA RESULT:      -8.7      6.973     10.150
REMARK  Name = 5724
REMARK  5 active torsions:
REMARK  status: ('A' for Active; 'I' for Inactive)
REMARK    1  A    between atoms: N_4  and  C_14
REMARK    2  A    between atoms: N_5  and  C_23
REMARK    3  A    between atoms: C_14  and  C_17
REMARK    4  A    between atoms: C_23  and  C_25
REMARK    5  A    between atoms: C_25  and  O_26
REMARK                            x       y       z     vdW  Elec       q    Type
REMARK                         _______ _______ _______ _____ _____    ______ ____
ROOT
ATOM      1 CL   UNL     1      32.885 -14.812 -25.672  0.00  0.00    -0.082 Cl
ATOM      2  O   UNL     1      31.887  -9.018 -21.024  0.00  0.00    -0.246 OA
ATOM      3  O   UNL     1      34.991  -8.617 -24.460  0.00  0.00    -0.267 OA
ATOM      4  N   UNL     1      33.422  -8.779 -22.745  0.00  0.00    -0.244 N 
ATOM      5  N   UNL     1      32.193 -10.805 -22.462  0.00  0.00    -0.270 N 
ATOM      6  C   UNL     1      32.857 -11.371 -23.591  0.00  0.00    +0.070 A 
ATOM      7  C   UNL     1      33.814 -10.626 -24.283  0.00  0.00    +0.072 A 
ATOM      8  C   UNL     1      32.458  -9.501 -22.008  0.00  0.00    +0.334 A 
ATOM      9  C   UNL     1      34.136  -9.257 -23.853  0.00  0.00    +0.266 A 
ATOM     10  C   UNL     1      32.583 -12.675 -24.040  0.00  0.00    +0.029 C 
ATOM     11  C   UNL     1      34.479 -11.164 -25.394  0.00  0.00    +0.007 C 
ATOM     12  C   UNL     1      33.244 -13.212 -25.147  0.00  0.00    +0.059 C 
ATOM     13  C   UNL     1      34.194 -12.457 -25.824  0.00  0.00    +0.012 C 
ENDROOT
BRANCH   4  14
ATOM     14  C   UNL     1      33.735  -7.415 -22.323  0.00  0.00    +0.142 C 
BRANCH  14  17
ATOM     15 BR   UNL     1      30.322  -3.234 -25.314  0.00  0.00    -0.049 Br
ATOM     16  F   UNL     1      31.751  -5.863 -21.043  0.00  0.00    -0.204 F 
ATOM     17  C   UNL     1      32.903  -6.397 -23.049  0.00  0.00    +0.028 C 
ATOM     18  C   UNL     1      31.944  -5.668 -22.355  0.00  0.00    +0.138 C 
ATOM     19  C   UNL     1      33.101  -6.195 -24.409  0.00  0.00    +0.000 C 
ATOM     20  C   UNL     1      31.173  -4.724 -23.032  0.00  0.00    +0.036 C 
ATOM     21  C   UNL     1      32.331  -5.250 -25.086  0.00  0.00    +0.007 C 
ATOM     22  C   UNL     1      31.366  -4.515 -24.398  0.00  0.00    +0.037 C 
ENDBRANCH  14  17
ENDBRANCH   4  14
BRANCH   5  23
ATOM     23  C   UNL     1      31.201 -11.612 -21.751  0.00  0.00    +0.220 C 
BRANCH  23  25
ATOM     24  O   UNL     1      32.319 -13.351 -20.521  0.00  0.00    -0.248 OA
ATOM     25  C   UNL     1      31.755 -12.263 -20.511  0.00  0.00    +0.337 C 
BRANCH  25  26
ATOM     26  O   UNL     1      31.569 -11.536 -19.386  0.00  0.00    -0.479 OA
ATOM     27  H   UNL     1      31.526 -10.600 -19.436  0.00  0.00    +0.295 HD
ENDBRANCH  25  26
ENDBRANCH  23  25
ENDBRANCH   5  23
TORSDOF 5
ENDMDL
MODEL 8
REMARK VINA RESULT:      -8.6      8.848     11.195
REMARK  Name = 5724
REMARK  5 active torsions:
REMARK  status: ('A' for Active; 'I' for Inactive)
REMARK    1  A    between atoms: N_4  and  C_14
REMARK    2  A    between atoms: N_5  and  C_23
REMARK    3  A    between atoms: C_14  and  C_17
REMARK    4  A    between atoms: C_23  and  C_25
REMARK    5  A    between atoms: C_25  and  O_26
REMARK                            x       y       z     vdW  Elec       q    Type
REMARK                         _______ _______ _______ _____ _____    ______ ____
ROOT
ATOM      1 CL   UNL     1      37.267 -20.886 -19.880  0.00  0.00    -0.082 Cl
ATOM      2  O   UNL     1      34.677 -23.976 -13.561  0.00  0.00    -0.246 OA
ATOM      3  O   UNL     1      31.830 -23.650 -17.220  0.00  0.00    -0.267 OA
ATOM      4  N   UNL     1      33.243 -23.852 -15.378  0.00  0.00    -0.244 N 
ATOM      5  N   UNL     1      35.478 -23.025 -15.514  0.00  0.00    -0.270 N 
ATOM      6  C   UNL     1      35.254 -22.628 -16.866  0.00  0.00    +0.070 A 
ATOM      7  C   UNL     1      34.009 -22.843 -17.459  0.00  0.00    +0.072 A 
ATOM      8  C   UNL     1      34.483 -23.642 -14.735  0.00  0.00    +0.334 A 
ATOM      9  C   UNL     1      32.927 -23.481 -16.693  0.00  0.00    +0.266 A 
ATOM     10  C   UNL     1      36.257 -22.016 -17.638  0.00  0.00    +0.029 C 
ATOM     11  C   UNL     1      33.767 -22.459 -18.786  0.00  0.00    +0.007 C 
ATOM     12  C   UNL     1      36.018 -21.634 -18.960  0.00  0.00    +0.059 C 
ATOM     13  C   UNL     1      34.773 -21.854 -19.535  0.00  0.00    +0.012 C 
ENDROOT
BRANCH   4  14
ATOM     14  C   UNL     1      32.172 -24.494 -14.620  0.00  0.00    +0.142 C 
BRANCH  14  17
ATOM     15 BR   UNL     1      26.640 -22.127 -15.988  0.00  0.00    -0.049 Br
ATOM     16  F   UNL     1      30.060 -26.051 -15.667  0.00  0.00    -0.204 F 
ATOM     17  C   UNL     1      30.825 -23.920 -14.954  0.00  0.00    +0.028 C 
ATOM     18  C   UNL     1      29.831 -24.746 -15.466  0.00  0.00    +0.138 C 
ATOM     19  C   UNL     1      30.587 -22.567 -14.746  0.00  0.00    +0.000 C 
ATOM     20  C   UNL     1      28.581 -24.210 -15.776  0.00  0.00    +0.036 C 
ATOM     21  C   UNL     1      29.336 -22.032 -15.055  0.00  0.00    +0.007 C 
ATOM     22  C   UNL     1      28.334 -22.852 -15.570  0.00  0.00    +0.037 C 
ENDBRANCH  14  17
ENDBRANCH   4  14
BRANCH   5  23
ATOM     23  C   UNL     1      36.790 -22.781 -14.916  0.00  0.00    +0.220 C 
BRANCH  23  25
ATOM     24  O   UNL     1      37.553 -25.057 -14.750  0.00  0.00    -0.248 OA
ATOM     25  C   UNL     1      37.757 -23.915 -15.142  0.00  0.00    +0.337 C 
BRANCH  25  26
ATOM     26  O   UNL     1      38.873 -23.551 -15.815  0.00  0.00    -0.479 OA
ATOM     27  H   UNL     1      38.923 -23.680 -16.742  0.00  0.00    +0.295 HD
ENDBRANCH  25  26
ENDBRANCH  23  25
ENDBRANCH   5  23
TORSDOF 5
ENDMDL
MODEL 9
REMARK VINA RESULT:      -8.5      3.062      4.353
REMARK  Name = 5724
REMARK  5 active torsions:
REMARK  status: ('A' for Active; 'I' for Inactive)
REMARK    1  A    between atoms: N_4  and  C_14
REMARK    2  A    between atoms: N_5  and  C_23
REMARK    3  A    between atoms: C_14  and  C_17
REMARK    4  A    between atoms: C_23  and  C_25
REMARK    5  A    between atoms: C_25  and  O_26
REMARK                            x       y       z     vdW  Elec       q    Type
REMARK                         _______ _______ _______ _____ _____    ______ ____
ROOT
ATOM      1 CL   UNL     1      31.541  -8.240 -19.512  0.00  0.00    -0.082 Cl
ATOM      2  O   UNL     1      33.779 -11.844 -25.691  0.00  0.00    -0.246 OA
ATOM      3  O   UNL     1      31.958 -14.313 -22.200  0.00  0.00    -0.267 OA
ATOM      4  N   UNL     1      32.849 -13.098 -23.978  0.00  0.00    -0.244 N 
ATOM      5  N   UNL     1      33.084 -10.731 -23.784  0.00  0.00    -0.270 N 
ATOM      6  C   UNL     1      32.510 -10.776 -22.479  0.00  0.00    +0.070 A 
ATOM      7  C   UNL     1      32.117 -11.998 -21.931  0.00  0.00    +0.072 A 
ATOM      8  C   UNL     1      33.272 -11.885 -24.564  0.00  0.00    +0.334 A 
ATOM      9  C   UNL     1      32.292 -13.241 -22.699  0.00  0.00    +0.266 A 
ATOM     10  C   UNL     1      32.322  -9.615 -21.708  0.00  0.00    +0.029 C 
ATOM     11  C   UNL     1      31.552 -12.065 -20.649  0.00  0.00    +0.007 C 
ATOM     12  C   UNL     1      31.759  -9.680 -20.431  0.00  0.00    +0.059 C 
ATOM     13  C   UNL     1      31.374 -10.905 -19.901  0.00  0.00    +0.012 C 
ENDROOT
BRANCH   4  14
ATOM     14  C   UNL     1      33.014 -14.331 -24.744  0.00  0.00    +0.142 C 
BRANCH  14  17
ATOM     15 BR   UNL     1      36.415 -18.490 -21.707  0.00  0.00    -0.049 Br
ATOM     16  F   UNL     1      33.565 -16.903 -25.776  0.00  0.00    -0.204 F 
ATOM     17  C   UNL     1      33.841 -15.345 -24.007  0.00  0.00    +0.028 C 
ATOM     18  C   UNL     1      34.072 -16.592 -24.576  0.00  0.00    +0.138 C 
ATOM     19  C   UNL     1      34.368 -15.024 -22.762  0.00  0.00    +0.000 C 
ATOM     20  C   UNL     1      34.840 -17.532 -23.888  0.00  0.00    +0.036 C 
ATOM     21  C   UNL     1      35.137 -15.963 -22.075  0.00  0.00    +0.007 C 
ATOM     22  C   UNL     1      35.373 -17.217 -22.637  0.00  0.00    +0.037 C 
ENDBRANCH  14  17
ENDBRANCH   4  14
BRANCH   5  23
ATOM     23  C   UNL     1      33.493  -9.437 -24.329  0.00  0.00    +0.220 C 
BRANCH  23  25
ATOM     24  O   UNL     1      35.188  -8.009 -23.392  0.00  0.00    -0.248 OA
ATOM     25  C   UNL     1      34.902  -9.061 -23.952  0.00  0.00    +0.337 C 
BRANCH  25  26
ATOM     26  O   UNL     1      35.822  -9.992 -24.293  0.00  0.00    -0.479 OA
ATOM     27  H   UNL     1      35.577 -10.713 -24.841  0.00  0.00    +0.295 HD
ENDBRANCH  25  26
ENDBRANCH  23  25
ENDBRANCH   5  23
TORSDOF 5
ENDMDL
