MODEL 1
REMARK VINA RESULT:     -10.8      0.000      0.000
REMARK  Name = 24768547
REMARK  8 active torsions:
REMARK  status: ('A' for Active; 'I' for Inactive)
REMARK    1  A    between atoms: C_1  and  C_5
REMARK    2  A    between atoms: C_1  and  C_18
REMARK    3  A    between atoms: C_1  and  C_22
REMARK    4  A    between atoms: C_6  and  C_8
REMARK    5  A    between atoms: C_11  and  S_14
REMARK    6  A    between atoms: C_18  and  C_19
REMARK    7  A    between atoms: C_22  and  C_24
REMARK    8  A    between atoms: C_22  and  N_30
REMARK                            x       y       z     vdW  Elec       q    Type
REMARK                         _______ _______ _______ _____ _____    ______ ____
ROOT
ATOM      1  C   UNL     1      34.495 -24.171 -15.484  0.00  0.00    +0.079 C 
ENDROOT
BRANCH   1   5
ATOM      2  O   UNL     1      33.602 -24.323 -17.768  0.00  0.00    -0.316 OA
ATOM      3  N   UNL     1      34.693 -22.413 -17.343  0.00  0.00    -0.313 NA
ATOM      4  N   UNL     1      33.547 -23.572 -18.948  0.00  0.00    -0.007 NA
ATOM      5  C   UNL     1      34.293 -23.568 -16.873  0.00  0.00    +0.292 C 
ATOM      6  C   UNL     1      34.212 -22.460 -18.620  0.00  0.00    +0.128 C 
BRANCH   6   8
ATOM      7 CL   UNL     1      37.120 -21.647 -19.221  0.00  0.00    -0.081 Cl
ATOM      8  C   UNL     1      34.414 -21.380 -19.541  0.00  0.00    +0.088 C 
ATOM      9  C   UNL     1      35.689 -20.931 -19.882  0.00  0.00    +0.069 C 
ATOM     10  C   UNL     1      33.289 -20.772 -20.099  0.00  0.00    +0.013 C 
ATOM     11  C   UNL     1      34.716 -19.270 -21.341  0.00  0.00    +0.107 C 
ATOM     12  C   UNL     1      35.841 -19.877 -20.782  0.00  0.00    +0.030 C 
ATOM     13  C   UNL     1      33.439 -19.718 -20.999  0.00  0.00    +0.019 C 
BRANCH  11  14
ATOM     14  S   UNL     1      34.904 -17.950 -22.468  0.00  0.00    +0.010 S 
ATOM     15  O   UNL     1      33.925 -16.927 -22.128  0.00  0.00    -0.169 OA
ATOM     16  O   UNL     1      36.316 -17.600 -22.553  0.00  0.00    -0.169 OA
ATOM     17  C   UNL     1      34.446 -18.643 -24.040  0.00  0.00    +0.182 C 
ENDBRANCH  11  14
ENDBRANCH   6   8
ENDBRANCH   1   5
BRANCH   1  18
ATOM     18  C   UNL     1      35.962 -24.127 -14.982  0.00  0.00    +0.009 C 
BRANCH  18  19
ATOM     19  C   UNL     1      36.593 -25.489 -14.906  0.00  0.00    +0.000 C 
ATOM     20  C   UNL     1      37.084 -25.996 -13.581  0.00  0.00    +0.000 C 
ATOM     21  C   UNL     1      38.066 -25.600 -14.644  0.00  0.00    +0.000 C 
ENDBRANCH  18  19
ENDBRANCH   1  18
BRANCH   1  22
ATOM     22  C   UNL     1      33.462 -23.577 -14.473  0.00  0.00    -0.004 C 
BRANCH  22  24
ATOM     23  F   UNL     1      32.192 -25.476 -13.551  0.00  0.00    -0.212 F 
ATOM     24  C   UNL     1      32.192 -24.381 -14.349  0.00  0.00    +0.090 C 
ATOM     25  C   UNL     1      31.058 -24.088 -14.995  0.00  0.00    -0.023 C 
ATOM     26  C   UNL     1      29.784 -24.876 -14.883  0.00  0.00    +0.024 C 
ATOM     27  C   UNL     1      30.886 -22.924 -15.930  0.00  0.00    +0.024 C 
ATOM     28  C   UNL     1      28.937 -24.321 -16.023  0.00  0.00    +0.005 C 
ATOM     29  C   UNL     1      29.375 -22.867 -16.130  0.00  0.00    +0.005 C 
ENDBRANCH  22  24
BRANCH  22  30
ATOM     30  N   UNL     1      34.086 -23.445 -13.149  0.00  0.00    +0.386 N 
ATOM     31  H   UNL     1      34.050 -24.343 -12.665  0.00  0.00    -0.089 HD
ATOM     32  H   UNL     1      33.584 -22.745 -12.605  0.00  0.00    -0.089 HD
ATOM     33  H   UNL     1      35.059 -23.157 -13.259  0.00  0.00    -0.089 HD
ENDBRANCH  22  30
ENDBRANCH   1  22
TORSDOF 8
ENDMDL
MODEL 2
REMARK VINA RESULT:     -10.3      1.139      4.422
REMARK  Name = 24768547
REMARK  8 active torsions:
REMARK  status: ('A' for Active; 'I' for Inactive)
REMARK    1  A    between atoms: C_1  and  C_5
REMARK    2  A    between atoms: C_1  and  C_18
REMARK    3  A    between atoms: C_1  and  C_22
REMARK    4  A    between atoms: C_6  and  C_8
REMARK    5  A    between atoms: C_11  and  S_14
REMARK    6  A    between atoms: C_18  and  C_19
REMARK    7  A    between atoms: C_22  and  C_24
REMARK    8  A    between atoms: C_22  and  N_30
REMARK                            x       y       z     vdW  Elec       q    Type
REMARK                         _______ _______ _______ _____ _____    ______ ____
ROOT
ATOM      1  C   UNL     1      32.616 -23.625 -15.625  0.00  0.00    +0.079 C 
ENDROOT
BRANCH   1   5
ATOM      2  O   UNL     1      33.404 -24.237 -17.870  0.00  0.00    -0.316 OA
ATOM      3  N   UNL     1      33.319 -22.028 -17.507  0.00  0.00    -0.313 NA
ATOM      4  N   UNL     1      33.837 -23.630 -19.056  0.00  0.00    -0.007 NA
ATOM      5  C   UNL     1      33.117 -23.223 -17.011  0.00  0.00    +0.292 C 
ATOM      6  C   UNL     1      33.760 -22.328 -18.763  0.00  0.00    +0.128 C 
BRANCH   6   8
ATOM      7 CL   UNL     1      36.750 -21.653 -19.047  0.00  0.00    -0.081 Cl
ATOM      8  C   UNL     1      34.115 -21.303 -19.701  0.00  0.00    +0.088 C 
ATOM      9  C   UNL     1      35.440 -20.920 -19.907  0.00  0.00    +0.069 C 
ATOM     10  C   UNL     1      33.091 -20.684 -20.418  0.00  0.00    +0.013 C 
ATOM     11  C   UNL     1      34.717 -19.299 -21.547  0.00  0.00    +0.107 C 
ATOM     12  C   UNL     1      35.741 -19.918 -20.830  0.00  0.00    +0.030 C 
ATOM     13  C   UNL     1      33.391 -19.683 -21.340  0.00  0.00    +0.019 C 
BRANCH  11  14
ATOM     14  S   UNL     1      35.094 -18.045 -22.702  0.00  0.00    +0.010 S 
ATOM     15  O   UNL     1      34.244 -16.899 -22.412  0.00  0.00    -0.169 OA
ATOM     16  O   UNL     1      36.539 -17.878 -22.762  0.00  0.00    -0.169 OA
ATOM     17  C   UNL     1      34.585 -18.719 -24.267  0.00  0.00    +0.182 C 
ENDBRANCH  11  14
ENDBRANCH   6   8
ENDBRANCH   1   5
BRANCH   1  18
ATOM     18  C   UNL     1      31.158 -24.153 -15.607  0.00  0.00    +0.009 C 
BRANCH  18  19
ATOM     19  C   UNL     1      30.187 -23.207 -16.255  0.00  0.00    +0.000 C 
ATOM     20  C   UNL     1      29.075 -22.622 -15.435  0.00  0.00    +0.000 C 
ATOM     21  C   UNL     1      28.772 -23.651 -16.485  0.00  0.00    +0.000 C 
ENDBRANCH  18  19
ENDBRANCH   1  18
BRANCH   1  22
ATOM     22  C   UNL     1      33.641 -24.573 -14.925  0.00  0.00    -0.004 C 
BRANCH  22  24
ATOM     23  F   UNL     1      35.068 -22.619 -14.460  0.00  0.00    -0.212 F 
ATOM     24  C   UNL     1      34.996 -23.951 -14.695  0.00  0.00    +0.090 C 
ATOM     25  C   UNL     1      36.145 -24.635 -14.724  0.00  0.00    -0.023 C 
ATOM     26  C   UNL     1      37.504 -24.034 -14.498  0.00  0.00    +0.024 C 
ATOM     27  C   UNL     1      36.253 -26.111 -14.987  0.00  0.00    +0.024 C 
ATOM     28  C   UNL     1      38.448 -25.145 -14.941  0.00  0.00    +0.005 C 
ATOM     29  C   UNL     1      37.694 -26.424 -14.601  0.00  0.00    +0.005 C 
ENDBRANCH  22  24
BRANCH  22  30
ATOM     30  N   UNL     1      33.093 -25.033 -13.641  0.00  0.00    +0.386 N 
ATOM     31  H   UNL     1      32.117 -24.745 -13.566  0.00  0.00    -0.089 HD
ATOM     32  H   UNL     1      33.629 -24.624 -12.877  0.00  0.00    -0.089 HD
ATOM     33  H   UNL     1      33.152 -26.051 -13.592  0.00  0.00    -0.089 HD
ENDBRANCH  22  30
ENDBRANCH   1  22
TORSDOF 8
ENDMDL
MODEL 3
REMARK VINA RESULT:     -10.3      9.981     14.533
REMARK  Name = 24768547
REMARK  8 active torsions:
REMARK  status: ('A' for Active; 'I' for Inactive)
REMARK    1  A    between atoms: C_1  and  C_5
REMARK    2  A    between atoms: C_1  and  C_18
REMARK    3  A    between atoms: C_1  and  C_22
REMARK    4  A    between atoms: C_6  and  C_8
REMARK    5  A    between atoms: C_11  and  S_14
REMARK    6  A    between atoms: C_18  and  C_19
REMARK    7  A    between atoms: C_22  and  C_24
REMARK    8  A    between atoms: C_22  and  N_30
REMARK                            x       y       z     vdW  Elec       q    Type
REMARK                         _______ _______ _______ _____ _____    ______ ____
ROOT
ATOM      1  C   UNL     1      32.150  -9.596 -22.825  0.00  0.00    +0.079 C 
ENDROOT
BRANCH   1   5
ATOM      2  O   UNL     1      33.525 -10.651 -24.566  0.00  0.00    -0.316 OA
ATOM      3  N   UNL     1      32.873 -12.055 -22.947  0.00  0.00    -0.313 NA
ATOM      4  N   UNL     1      34.063 -11.901 -24.895  0.00  0.00    -0.007 NA
ATOM      5  C   UNL     1      32.841 -10.829 -23.405  0.00  0.00    +0.292 C 
ATOM      6  C   UNL     1      33.634 -12.677 -23.894  0.00  0.00    +0.128 C 
BRANCH   6   8
ATOM      7 CL   UNL     1      33.019 -14.408 -26.364  0.00  0.00    -0.081 Cl
ATOM      8  C   UNL     1      33.948 -14.074 -23.810  0.00  0.00    +0.088 C 
ATOM      9  C   UNL     1      33.709 -14.947 -24.871  0.00  0.00    +0.069 C 
ATOM     10  C   UNL     1      34.507 -14.553 -22.625  0.00  0.00    +0.013 C 
ATOM     11  C   UNL     1      34.589 -16.777 -23.562  0.00  0.00    +0.107 C 
ATOM     12  C   UNL     1      34.030 -16.298 -24.747  0.00  0.00    +0.030 C 
ATOM     13  C   UNL     1      34.827 -15.903 -22.501  0.00  0.00    +0.019 C 
BRANCH  11  14
ATOM     14  S   UNL     1      34.991 -18.470 -23.407  0.00  0.00    +0.010 S 
ATOM     15  O   UNL     1      34.497 -19.158 -24.591  0.00  0.00    -0.169 OA
ATOM     16  O   UNL     1      36.394 -18.589 -23.033  0.00  0.00    -0.169 OA
ATOM     17  C   UNL     1      34.034 -19.025 -22.014  0.00  0.00    +0.182 C 
ENDBRANCH  11  14
ENDBRANCH   6   8
ENDBRANCH   1   5
BRANCH   1  18
ATOM     18  C   UNL     1      32.184  -9.520 -21.276  0.00  0.00    +0.009 C 
BRANCH  18  19
ATOM     19  C   UNL     1      31.145 -10.391 -20.627  0.00  0.00    +0.000 C 
ATOM     20  C   UNL     1      31.064 -10.443 -19.129  0.00  0.00    +0.000 C 
ATOM     21  C   UNL     1      31.577 -11.627 -19.894  0.00  0.00    +0.000 C 
ENDBRANCH  18  19
ENDBRANCH   1  18
BRANCH   1  22
ATOM     22  C   UNL     1      32.657  -8.299 -23.533  0.00  0.00    -0.004 C 
BRANCH  22  24
ATOM     23  F   UNL     1      30.868  -7.120 -22.318  0.00  0.00    -0.212 F 
ATOM     24  C   UNL     1      31.764  -7.100 -23.333  0.00  0.00    +0.090 C 
ATOM     25  C   UNL     1      31.790  -6.013 -24.113  0.00  0.00    -0.023 C 
ATOM     26  C   UNL     1      30.909  -4.809 -23.930  0.00  0.00    +0.024 C 
ATOM     27  C   UNL     1      32.706  -5.830 -25.290  0.00  0.00    +0.024 C 
ATOM     28  C   UNL     1      31.117  -4.033 -25.225  0.00  0.00    +0.005 C 
ATOM     29  C   UNL     1      32.556  -4.347 -25.613  0.00  0.00    +0.005 C 
ENDBRANCH  22  24
BRANCH  22  30
ATOM     30  N   UNL     1      34.013  -7.978 -23.065  0.00  0.00    +0.386 N 
ATOM     31  H   UNL     1      34.644  -8.744 -23.305  0.00  0.00    -0.089 HD
ATOM     32  H   UNL     1      34.003  -7.850 -22.054  0.00  0.00    -0.089 HD
ATOM     33  H   UNL     1      34.334  -7.120 -23.515  0.00  0.00    -0.089 HD
ENDBRANCH  22  30
ENDBRANCH   1  22
TORSDOF 8
ENDMDL
MODEL 4
REMARK VINA RESULT:     -10.2      6.232     10.842
REMARK  Name = 24768547
REMARK  8 active torsions:
REMARK  status: ('A' for Active; 'I' for Inactive)
REMARK    1  A    between atoms: C_1  and  C_5
REMARK    2  A    between atoms: C_1  and  C_18
REMARK    3  A    between atoms: C_1  and  C_22
REMARK    4  A    between atoms: C_6  and  C_8
REMARK    5  A    between atoms: C_11  and  S_14
REMARK    6  A    between atoms: C_18  and  C_19
REMARK    7  A    between atoms: C_22  and  C_24
REMARK    8  A    between atoms: C_22  and  N_30
REMARK                            x       y       z     vdW  Elec       q    Type
REMARK                         _______ _______ _______ _____ _____    ______ ____
ROOT
ATOM      1  C   UNL     1      34.232 -14.135 -22.738  0.00  0.00    +0.079 C 
ENDROOT
BRANCH   1   5
ATOM      2  O   UNL     1      35.478 -16.167 -23.333  0.00  0.00    -0.316 OA
ATOM      3  N   UNL     1      34.074 -16.434 -21.608  0.00  0.00    -0.313 NA
ATOM      4  N   UNL     1      35.606 -17.502 -22.929  0.00  0.00    -0.007 NA
ATOM      5  C   UNL     1      34.557 -15.609 -22.503  0.00  0.00    +0.292 C 
ATOM      6  C   UNL     1      34.747 -17.582 -21.908  0.00  0.00    +0.128 C 
BRANCH   6   8
ATOM      7 CL   UNL     1      37.250 -19.127 -21.002  0.00  0.00    -0.081 Cl
ATOM      8  C   UNL     1      34.538 -18.793 -21.168  0.00  0.00    +0.088 C 
ATOM      9  C   UNL     1      35.603 -19.569 -20.711  0.00  0.00    +0.069 C 
ATOM     10  C   UNL     1      33.226 -19.189 -20.910  0.00  0.00    +0.013 C 
ATOM     11  C   UNL     1      34.043 -21.135 -19.736  0.00  0.00    +0.107 C 
ATOM     12  C   UNL     1      35.355 -20.740 -19.994  0.00  0.00    +0.030 C 
ATOM     13  C   UNL     1      32.978 -20.359 -20.194  0.00  0.00    +0.019 C 
BRANCH  11  14
ATOM     14  S   UNL     1      33.732 -22.601 -18.839  0.00  0.00    +0.010 S 
ATOM     15  O   UNL     1      32.419 -22.478 -18.221  0.00  0.00    -0.169 OA
ATOM     16  O   UNL     1      34.028 -23.746 -19.689  0.00  0.00    -0.169 OA
ATOM     17  C   UNL     1      34.948 -22.590 -17.541  0.00  0.00    +0.182 C 
ENDBRANCH  11  14
ENDBRANCH   6   8
ENDBRANCH   1   5
BRANCH   1  18
ATOM     18  C   UNL     1      34.079 -13.750 -24.232  0.00  0.00    +0.009 C 
BRANCH  18  19
ATOM     19  C   UNL     1      33.033 -14.565 -24.940  0.00  0.00    +0.000 C 
ATOM     20  C   UNL     1      33.458 -15.556 -25.984  0.00  0.00    +0.000 C 
ATOM     21  C   UNL     1      32.750 -14.296 -26.389  0.00  0.00    +0.000 C 
ENDBRANCH  18  19
ENDBRANCH   1  18
BRANCH   1  22
ATOM     22  C   UNL     1      33.030 -13.690 -21.844  0.00  0.00    -0.004 C 
BRANCH  22  24
ATOM     23  F   UNL     1      32.700 -11.743 -23.317  0.00  0.00    -0.212 F 
ATOM     24  C   UNL     1      32.588 -12.266 -22.072  0.00  0.00    +0.090 C 
ATOM     25  C   UNL     1      32.101 -11.474 -21.111  0.00  0.00    -0.023 C 
ATOM     26  C   UNL     1      31.655 -10.054 -21.319  0.00  0.00    +0.024 C 
ATOM     27  C   UNL     1      31.924 -11.884 -19.676  0.00  0.00    +0.024 C 
ATOM     28  C   UNL     1      31.496  -9.533 -19.895  0.00  0.00    +0.005 C 
ATOM     29  C   UNL     1      31.068 -10.760 -19.102  0.00  0.00    +0.005 C 
ENDBRANCH  22  24
BRANCH  22  30
ATOM     30  N   UNL     1      31.891 -14.594 -22.061  0.00  0.00    +0.386 N 
ATOM     31  H   UNL     1      31.994 -15.419 -21.469  0.00  0.00    -0.089 HD
ATOM     32  H   UNL     1      31.865 -14.879 -23.039  0.00  0.00    -0.089 HD
ATOM     33  H   UNL     1      31.024 -14.112 -21.824  0.00  0.00    -0.089 HD
ENDBRANCH  22  30
ENDBRANCH   1  22
TORSDOF 8
ENDMDL
MODEL 5
REMARK VINA RESULT:     -10.2      7.162     10.535
REMARK  Name = 24768547
REMARK  8 active torsions:
REMARK  status: ('A' for Active; 'I' for Inactive)
REMARK    1  A    between atoms: C_1  and  C_5
REMARK    2  A    between atoms: C_1  and  C_18
REMARK    3  A    between atoms: C_1  and  C_22
REMARK    4  A    between atoms: C_6  and  C_8
REMARK    5  A    between atoms: C_11  and  S_14
REMARK    6  A    between atoms: C_18  and  C_19
REMARK    7  A    between atoms: C_22  and  C_24
REMARK    8  A    between atoms: C_22  and  N_30
REMARK                            x       y       z     vdW  Elec       q    Type
REMARK                         _______ _______ _______ _____ _____    ______ ____
ROOT
ATOM      1  C   UNL     1      34.147 -16.676 -23.172  0.00  0.00    +0.079 C 
ENDROOT
BRANCH   1   5
ATOM      2  O   UNL     1      33.177 -15.124 -24.812  0.00  0.00    -0.316 OA
ATOM      3  N   UNL     1      33.677 -14.174 -22.845  0.00  0.00    -0.313 NA
ATOM      4  N   UNL     1      32.816 -13.776 -24.927  0.00  0.00    -0.007 NA
ATOM      5  C   UNL     1      33.674 -15.274 -23.556  0.00  0.00    +0.292 C 
ATOM      6  C   UNL     1      33.141 -13.282 -23.728  0.00  0.00    +0.128 C 
BRANCH   6   8
ATOM      7 CL   UNL     1      34.694 -11.183 -25.358  0.00  0.00    -0.081 Cl
ATOM      8  C   UNL     1      32.944 -11.904 -23.381  0.00  0.00    +0.088 C 
ATOM      9  C   UNL     1      33.599 -10.874 -24.055  0.00  0.00    +0.069 C 
ATOM     10  C   UNL     1      32.068 -11.608 -22.336  0.00  0.00    +0.013 C 
ATOM     11  C   UNL     1      32.502  -9.251 -22.640  0.00  0.00    +0.107 C 
ATOM     12  C   UNL     1      33.377  -9.548 -23.685  0.00  0.00    +0.030 C 
ATOM     13  C   UNL     1      31.847 -10.283 -21.965  0.00  0.00    +0.019 C 
BRANCH  11  14
ATOM     14  S   UNL     1      32.225  -7.591 -22.176  0.00  0.00    +0.010 S 
ATOM     15  O   UNL     1      33.363  -6.803 -22.630  0.00  0.00    -0.169 OA
ATOM     16  O   UNL     1      30.877  -7.209 -22.573  0.00  0.00    -0.169 OA
ATOM     17  C   UNL     1      32.255  -7.618 -20.399  0.00  0.00    +0.182 C 
ENDBRANCH  11  14
ENDBRANCH   6   8
ENDBRANCH   1   5
BRANCH   1  18
ATOM     18  C   UNL     1      35.435 -17.132 -23.906  0.00  0.00    +0.009 C 
BRANCH  18  19
ATOM     19  C   UNL     1      35.183 -18.241 -24.889  0.00  0.00    +0.000 C 
ATOM     20  C   UNL     1      33.782 -18.735 -25.095  0.00  0.00    +0.000 C 
ATOM     21  C   UNL     1      34.783 -19.595 -24.382  0.00  0.00    +0.000 C 
ENDBRANCH  18  19
ENDBRANCH   1  18
BRANCH   1  22
ATOM     22  C   UNL     1      34.217 -16.824 -21.619  0.00  0.00    -0.004 C 
BRANCH  22  24
ATOM     23  F   UNL     1      36.329 -18.004 -21.154  0.00  0.00    -0.212 F 
ATOM     24  C   UNL     1      34.975 -18.042 -21.151  0.00  0.00    +0.090 C 
ATOM     25  C   UNL     1      34.390 -19.174 -20.744  0.00  0.00    -0.023 C 
ATOM     26  C   UNL     1      35.127 -20.396 -20.275  0.00  0.00    +0.024 C 
ATOM     27  C   UNL     1      32.904 -19.395 -20.693  0.00  0.00    +0.024 C 
ATOM     28  C   UNL     1      34.037 -21.460 -20.235  0.00  0.00    +0.005 C 
ATOM     29  C   UNL     1      32.777 -20.680 -19.883  0.00  0.00    +0.005 C 
ENDBRANCH  22  24
BRANCH  22  30
ATOM     30  N   UNL     1      34.822 -15.619 -21.033  0.00  0.00    +0.386 N 
ATOM     31  H   UNL     1      34.110 -14.895 -20.935  0.00  0.00    -0.089 HD
ATOM     32  H   UNL     1      35.568 -15.284 -21.642  0.00  0.00    -0.089 HD
ATOM     33  H   UNL     1      35.207 -15.844 -20.115  0.00  0.00    -0.089 HD
ENDBRANCH  22  30
ENDBRANCH   1  22
TORSDOF 8
ENDMDL
MODEL 6
REMARK VINA RESULT:      -9.8      7.034     10.449
REMARK  Name = 24768547
REMARK  8 active torsions:
REMARK  status: ('A' for Active; 'I' for Inactive)
REMARK    1  A    between atoms: C_1  and  C_5
REMARK    2  A    between atoms: C_1  and  C_18
REMARK    3  A    between atoms: C_1  and  C_22
REMARK    4  A    between atoms: C_6  and  C_8
REMARK    5  A    between atoms: C_11  and  S_14
REMARK    6  A    between atoms: C_18  and  C_19
REMARK    7  A    between atoms: C_22  and  C_24
REMARK    8  A    between atoms: C_22  and  N_30
REMARK                            x       y       z     vdW  Elec       q    Type
REMARK                         _______ _______ _______ _____ _____    ______ ____
ROOT
ATOM      1  C   UNL     1      34.201 -16.761 -23.191  0.00  0.00    +0.079 C 
ENDROOT
BRANCH   1   5
ATOM      2  O   UNL     1      33.265 -15.235 -24.875  0.00  0.00    -0.316 OA
ATOM      3  N   UNL     1      33.861 -14.227 -22.964  0.00  0.00    -0.313 NA
ATOM      4  N   UNL     1      32.966 -13.876 -25.041  0.00  0.00    -0.007 NA
ATOM      5  C   UNL     1      33.787 -15.355 -23.625  0.00  0.00    +0.292 C 
ATOM      6  C   UNL     1      33.346 -13.348 -23.873  0.00  0.00    +0.128 C 
BRANCH   6   8
ATOM      7 CL   UNL     1      31.499 -12.551 -21.543  0.00  0.00    -0.081 Cl
ATOM      8  C   UNL     1      33.225 -11.949 -23.582  0.00  0.00    +0.088 C 
ATOM      9  C   UNL     1      32.414 -11.480 -22.549  0.00  0.00    +0.069 C 
ATOM     10  C   UNL     1      33.945 -11.048 -24.367  0.00  0.00    +0.013 C 
ATOM     11  C   UNL     1      33.045  -9.210 -23.084  0.00  0.00    +0.107 C 
ATOM     12  C   UNL     1      32.325 -10.111 -22.299  0.00  0.00    +0.030 C 
ATOM     13  C   UNL     1      33.855  -9.680 -24.118  0.00  0.00    +0.019 C 
BRANCH  11  14
ATOM     14  S   UNL     1      32.933  -7.496 -22.772  0.00  0.00    +0.010 S 
ATOM     15  O   UNL     1      32.959  -7.300 -21.329  0.00  0.00    -0.169 OA
ATOM     16  O   UNL     1      33.897  -6.800 -23.614  0.00  0.00    -0.169 OA
ATOM     17  C   UNL     1      31.315  -7.045 -23.355  0.00  0.00    +0.182 C 
ENDBRANCH  11  14
ENDBRANCH   6   8
ENDBRANCH   1   5
BRANCH   1  18
ATOM     18  C   UNL     1      35.500 -17.274 -23.864  0.00  0.00    +0.009 C 
BRANCH  18  19
ATOM     19  C   UNL     1      35.249 -18.384 -24.846  0.00  0.00    +0.000 C 
ATOM     20  C   UNL     1      33.837 -18.729 -25.217  0.00  0.00    +0.000 C 
ATOM     21  C   UNL     1      34.639 -19.666 -24.362  0.00  0.00    +0.000 C 
ENDBRANCH  18  19
ENDBRANCH   1  18
BRANCH   1  22
ATOM     22  C   UNL     1      34.207 -16.874 -21.633  0.00  0.00    -0.004 C 
BRANCH  22  24
ATOM     23  F   UNL     1      36.307 -18.028 -21.063  0.00  0.00    -0.212 F 
ATOM     24  C   UNL     1      34.954 -18.074 -21.107  0.00  0.00    +0.090 C 
ATOM     25  C   UNL     1      34.360 -19.198 -20.691  0.00  0.00    -0.023 C 
ATOM     26  C   UNL     1      35.086 -20.403 -20.164  0.00  0.00    +0.024 C 
ATOM     27  C   UNL     1      32.875 -19.426 -20.687  0.00  0.00    +0.024 C 
ATOM     28  C   UNL     1      34.000 -21.472 -20.136  0.00  0.00    +0.005 C 
ATOM     29  C   UNL     1      32.725 -20.691 -19.849  0.00  0.00    +0.005 C 
ENDBRANCH  22  24
BRANCH  22  30
ATOM     30  N   UNL     1      34.780 -15.651 -21.051  0.00  0.00    +0.386 N 
ATOM     31  H   UNL     1      35.513 -15.902 -20.387  0.00  0.00    -0.089 HD
ATOM     32  H   UNL     1      34.048 -15.129 -20.570  0.00  0.00    -0.089 HD
ATOM     33  H   UNL     1      35.177 -15.075 -21.794  0.00  0.00    -0.089 HD
ENDBRANCH  22  30
ENDBRANCH   1  22
TORSDOF 8
ENDMDL
MODEL 7
REMARK VINA RESULT:      -9.7      9.269     13.878
REMARK  Name = 24768547
REMARK  8 active torsions:
REMARK  status: ('A' for Active; 'I' for Inactive)
REMARK    1  A    between atoms: C_1  and  C_5
REMARK    2  A    between atoms: C_1  and  C_18
REMARK    3  A    between atoms: C_1  and  C_22
REMARK    4  A    between atoms: C_6  and  C_8
REMARK    5  A    between atoms: C_11  and  S_14
REMARK    6  A    between atoms: C_18  and  C_19
REMARK    7  A    between atoms: C_22  and  C_24
REMARK    8  A    between atoms: C_22  and  N_30
REMARK                            x       y       z     vdW  Elec       q    Type
REMARK                         _______ _______ _______ _____ _____    ______ ____
ROOT
ATOM      1  C   UNL     1      33.392 -10.305 -23.284  0.00  0.00    +0.079 C 
ENDROOT
BRANCH   1   5
ATOM      2  O   UNL     1      33.301 -12.251 -24.781  0.00  0.00    -0.316 OA
ATOM      3  N   UNL     1      33.818 -12.757 -22.660  0.00  0.00    -0.313 NA
ATOM      4  N   UNL     1      33.476 -13.640 -24.743  0.00  0.00    -0.007 NA
ATOM      5  C   UNL     1      33.523 -11.810 -23.514  0.00  0.00    +0.292 C 
ATOM      6  C   UNL     1      33.778 -13.862 -23.460  0.00  0.00    +0.128 C 
BRANCH   6   8
ATOM      7 CL   UNL     1      32.650 -14.539 -20.677  0.00  0.00    -0.081 Cl
ATOM      8  C   UNL     1      34.045 -15.174 -22.945  0.00  0.00    +0.088 C 
ATOM      9  C   UNL     1      33.581 -15.583 -21.695  0.00  0.00    +0.069 C 
ATOM     10  C   UNL     1      34.793 -16.051 -23.732  0.00  0.00    +0.013 C 
ATOM     11  C   UNL     1      34.611 -17.745 -22.020  0.00  0.00    +0.107 C 
ATOM     12  C   UNL     1      33.863 -16.868 -21.233  0.00  0.00    +0.030 C 
ATOM     13  C   UNL     1      35.075 -17.335 -23.270  0.00  0.00    +0.019 C 
BRANCH  11  14
ATOM     14  S   UNL     1      34.964 -19.354 -21.441  0.00  0.00    +0.010 S 
ATOM     15  O   UNL     1      35.188 -20.207 -22.600  0.00  0.00    -0.169 OA
ATOM     16  O   UNL     1      35.979 -19.268 -20.400  0.00  0.00    -0.169 OA
ATOM     17  C   UNL     1      33.459 -19.882 -20.657  0.00  0.00    +0.182 C 
ENDBRANCH  11  14
ENDBRANCH   6   8
ENDBRANCH   1   5
BRANCH   1  18
ATOM     18  C   UNL     1      33.572  -9.450 -24.566  0.00  0.00    +0.009 C 
BRANCH  18  19
ATOM     19  C   UNL     1      34.735  -8.502 -24.475  0.00  0.00    +0.000 C 
ATOM     20  C   UNL     1      34.897  -7.654 -23.247  0.00  0.00    +0.000 C 
ATOM     21  C   UNL     1      34.484  -7.024 -24.545  0.00  0.00    +0.000 C 
ENDBRANCH  18  19
ENDBRANCH   1  18
BRANCH   1  22
ATOM     22  C   UNL     1      32.088  -9.983 -22.487  0.00  0.00    -0.004 C 
BRANCH  22  24
ATOM     23  F   UNL     1      30.580  -8.817 -24.048  0.00  0.00    -0.212 F 
ATOM     24  C   UNL     1      31.373  -8.739 -22.953  0.00  0.00    +0.090 C 
ATOM     25  C   UNL     1      31.486  -7.547 -22.357  0.00  0.00    -0.023 C 
ATOM     26  C   UNL     1      30.783  -6.297 -22.805  0.00  0.00    +0.024 C 
ATOM     27  C   UNL     1      32.334  -7.276 -21.145  0.00  0.00    +0.024 C 
ATOM     28  C   UNL     1      31.483  -5.204 -22.005  0.00  0.00    +0.005 C 
ATOM     29  C   UNL     1      31.867  -5.894 -20.703  0.00  0.00    +0.005 C 
ENDBRANCH  22  24
BRANCH  22  30
ATOM     30  N   UNL     1      31.168 -11.128 -22.561  0.00  0.00    +0.386 N 
ATOM     31  H   UNL     1      30.925 -11.306 -23.536  0.00  0.00    -0.089 HD
ATOM     32  H   UNL     1      30.323 -10.919 -22.032  0.00  0.00    -0.089 HD
ATOM     33  H   UNL     1      31.622 -11.953 -22.167  0.00  0.00    -0.089 HD
ENDBRANCH  22  30
ENDBRANCH   1  22
TORSDOF 8
ENDMDL
MODEL 8
REMARK VINA RESULT:      -9.6      9.774     14.298
REMARK  Name = 24768547
REMARK  8 active torsions:
REMARK  status: ('A' for Active; 'I' for Inactive)
REMARK    1  A    between atoms: C_1  and  C_5
REMARK    2  A    between atoms: C_1  and  C_18
REMARK    3  A    between atoms: C_1  and  C_22
REMARK    4  A    between atoms: C_6  and  C_8
REMARK    5  A    between atoms: C_11  and  S_14
REMARK    6  A    between atoms: C_18  and  C_19
REMARK    7  A    between atoms: C_22  and  C_24
REMARK    8  A    between atoms: C_22  and  N_30
REMARK                            x       y       z     vdW  Elec       q    Type
REMARK                         _______ _______ _______ _____ _____    ______ ____
ROOT
ATOM      1  C   UNL     1      32.118  -9.783 -22.755  0.00  0.00    +0.079 C 
ENDROOT
BRANCH   1   5
ATOM      2  O   UNL     1      33.484 -10.839 -24.503  0.00  0.00    -0.316 OA
ATOM      3  N   UNL     1      32.879 -12.232 -22.855  0.00  0.00    -0.313 NA
ATOM      4  N   UNL     1      34.036 -12.086 -24.823  0.00  0.00    -0.007 NA
ATOM      5  C   UNL     1      32.820 -11.013 -23.329  0.00  0.00    +0.292 C 
ATOM      6  C   UNL     1      33.635 -12.854 -23.806  0.00  0.00    +0.128 C 
BRANCH   6   8
ATOM      7 CL   UNL     1      34.532 -13.894 -21.051  0.00  0.00    -0.081 Cl
ATOM      8  C   UNL     1      33.973 -14.245 -23.708  0.00  0.00    +0.088 C 
ATOM      9  C   UNL     1      34.392 -14.817 -22.507  0.00  0.00    +0.069 C 
ATOM     10  C   UNL     1      33.875 -15.029 -24.857  0.00  0.00    +0.013 C 
ATOM     11  C   UNL     1      34.612 -16.958 -23.605  0.00  0.00    +0.107 C 
ATOM     12  C   UNL     1      34.710 -16.174 -22.455  0.00  0.00    +0.030 C 
ATOM     13  C   UNL     1      34.194 -16.385 -24.806  0.00  0.00    +0.019 C 
BRANCH  11  14
ATOM     14  S   UNL     1      35.011 -18.657 -23.541  0.00  0.00    +0.010 S 
ATOM     15  O   UNL     1      34.474 -19.289 -24.738  0.00  0.00    -0.169 OA
ATOM     16  O   UNL     1      36.425 -18.797 -23.222  0.00  0.00    -0.169 OA
ATOM     17  C   UNL     1      34.100 -19.273 -22.144  0.00  0.00    +0.182 C 
ENDBRANCH  11  14
ENDBRANCH   6   8
ENDBRANCH   1   5
BRANCH   1  18
ATOM     18  C   UNL     1      32.163  -9.693 -21.207  0.00  0.00    +0.009 C 
BRANCH  18  19
ATOM     19  C   UNL     1      31.182 -10.616 -20.540  0.00  0.00    +0.000 C 
ATOM     20  C   UNL     1      30.994 -10.536 -19.054  0.00  0.00    +0.000 C 
ATOM     21  C   UNL     1      31.694 -11.718 -19.659  0.00  0.00    +0.000 C 
ENDBRANCH  18  19
ENDBRANCH   1  18
BRANCH   1  22
ATOM     22  C   UNL     1      32.603  -8.487 -23.479  0.00  0.00    -0.004 C 
BRANCH  22  24
ATOM     23  F   UNL     1      31.106  -7.251 -21.963  0.00  0.00    -0.212 F 
ATOM     24  C   UNL     1      31.824  -7.249 -23.111  0.00  0.00    +0.090 C 
ATOM     25  C   UNL     1      31.784  -6.142 -23.862  0.00  0.00    -0.023 C 
ATOM     26  C   UNL     1      31.015  -4.900 -23.512  0.00  0.00    +0.024 C 
ATOM     27  C   UNL     1      32.505  -5.973 -25.169  0.00  0.00    +0.024 C 
ATOM     28  C   UNL     1      31.053  -4.098 -24.808  0.00  0.00    +0.005 C 
ATOM     29  C   UNL     1      32.389  -4.476 -25.433  0.00  0.00    +0.005 C 
ENDBRANCH  22  24
BRANCH  22  30
ATOM     30  N   UNL     1      34.029  -8.266 -23.195  0.00  0.00    +0.386 N 
ATOM     31  H   UNL     1      34.154  -8.095 -22.197  0.00  0.00    -0.089 HD
ATOM     32  H   UNL     1      34.359  -7.459 -23.723  0.00  0.00    -0.089 HD
ATOM     33  H   UNL     1      34.561  -9.093 -23.468  0.00  0.00    -0.089 HD
ENDBRANCH  22  30
ENDBRANCH   1  22
TORSDOF 8
ENDMDL
MODEL 9
REMARK VINA RESULT:      -9.4      1.958      4.282
REMARK  Name = 24768547
REMARK  8 active torsions:
REMARK  status: ('A' for Active; 'I' for Inactive)
REMARK    1  A    between atoms: C_1  and  C_5
REMARK    2  A    between atoms: C_1  and  C_18
REMARK    3  A    between atoms: C_1  and  C_22
REMARK    4  A    between atoms: C_6  and  C_8
REMARK    5  A    between atoms: C_11  and  S_14
REMARK    6  A    between atoms: C_18  and  C_19
REMARK    7  A    between atoms: C_22  and  C_24
REMARK    8  A    between atoms: C_22  and  N_30
REMARK                            x       y       z     vdW  Elec       q    Type
REMARK                         _______ _______ _______ _____ _____    ______ ____
ROOT
ATOM      1  C   UNL     1      34.193 -23.955 -15.365  0.00  0.00    +0.079 C 
ENDROOT
BRANCH   1   5
ATOM      2  O   UNL     1      32.632 -23.497 -17.207  0.00  0.00    -0.316 OA
ATOM      3  N   UNL     1      34.584 -22.412 -17.378  0.00  0.00    -0.313 NA
ATOM      4  N   UNL     1      32.557 -22.743 -18.385  0.00  0.00    -0.007 NA
ATOM      5  C   UNL     1      33.857 -23.243 -16.675  0.00  0.00    +0.292 C 
ATOM      6  C   UNL     1      33.745 -22.132 -18.418  0.00  0.00    +0.128 C 
BRANCH   6   8
ATOM      7 CL   UNL     1      36.758 -21.700 -18.880  0.00  0.00    -0.081 Cl
ATOM      8  C   UNL     1      34.125 -21.237 -19.472  0.00  0.00    +0.088 C 
ATOM      9  C   UNL     1      35.462 -20.970 -19.765  0.00  0.00    +0.069 C 
ATOM     10  C   UNL     1      33.113 -20.626 -20.213  0.00  0.00    +0.013 C 
ATOM     11  C   UNL     1      34.776 -19.482 -21.541  0.00  0.00    +0.107 C 
ATOM     12  C   UNL     1      35.788 -20.093 -20.799  0.00  0.00    +0.030 C 
ATOM     13  C   UNL     1      33.438 -19.749 -21.247  0.00  0.00    +0.019 C 
BRANCH  11  14
ATOM     14  S   UNL     1      35.183 -18.384 -22.836  0.00  0.00    +0.010 S 
ATOM     15  O   UNL     1      36.632 -18.247 -22.868  0.00  0.00    -0.169 OA
ATOM     16  O   UNL     1      34.468 -18.788 -24.038  0.00  0.00    -0.169 OA
ATOM     17  C   UNL     1      34.499 -16.824 -22.324  0.00  0.00    +0.182 C 
ENDBRANCH  11  14
ENDBRANCH   6   8
ENDBRANCH   1   5
BRANCH   1  18
ATOM     18  C   UNL     1      33.023 -24.788 -14.780  0.00  0.00    +0.009 C 
BRANCH  18  19
ATOM     19  C   UNL     1      32.219 -24.029 -13.762  0.00  0.00    +0.000 C 
ATOM     20  C   UNL     1      30.828 -24.489 -13.436  0.00  0.00    +0.000 C 
ATOM     21  C   UNL     1      31.037 -23.223 -14.214  0.00  0.00    +0.000 C 
ENDBRANCH  18  19
ENDBRANCH   1  18
BRANCH   1  22
ATOM     22  C   UNL     1      35.531 -24.749 -15.501  0.00  0.00    -0.004 C 
BRANCH  22  24
ATOM     23  F   UNL     1      37.737 -23.654 -15.484  0.00  0.00    -0.212 F 
ATOM     24  C   UNL     1      36.692 -24.128 -14.765  0.00  0.00    +0.090 C 
ATOM     25  C   UNL     1      36.763 -24.028 -13.433  0.00  0.00    -0.023 C 
ATOM     26  C   UNL     1      37.910 -23.412 -12.683  0.00  0.00    +0.024 C 
ATOM     27  C   UNL     1      35.705 -24.515 -12.483  0.00  0.00    +0.024 C 
ATOM     28  C   UNL     1      37.639 -23.828 -11.242  0.00  0.00    +0.005 C 
ATOM     29  C   UNL     1      36.120 -23.888 -11.157  0.00  0.00    +0.005 C 
ENDBRANCH  22  24
BRANCH  22  30
ATOM     30  N   UNL     1      35.337 -26.128 -15.028  0.00  0.00    +0.386 N 
ATOM     31  H   UNL     1      35.162 -26.739 -15.827  0.00  0.00    -0.089 HD
ATOM     32  H   UNL     1      34.541 -26.161 -14.393  0.00  0.00    -0.089 HD
ATOM     33  H   UNL     1      36.176 -26.440 -14.539  0.00  0.00    -0.089 HD
ENDBRANCH  22  30
ENDBRANCH   1  22
TORSDOF 8
ENDMDL
