MODEL 1
REMARK VINA RESULT:      -6.9      0.000      0.000
REMARK  Name = 441457
REMARK  4 active torsions:
REMARK  status: ('A' for Active; 'I' for Inactive)
REMARK    1  A    between atoms: C_1  and  C_2
REMARK    2  A    between atoms: C_1  and  O_8
REMARK    3  A    between atoms: C_1  and  C_10
REMARK    4  A    between atoms: C_10  and  N_12
REMARK                            x       y       z     vdW  Elec       q    Type
REMARK                         _______ _______ _______ _____ _____    ______ ____
ROOT
ATOM      1  C   UNL     1      35.505 -18.390 -21.555  0.00  0.00    +0.113 C 
ENDROOT
BRANCH   1   2
ATOM      2  C   UNL     1      34.879 -19.564 -20.833  0.00  0.00    +0.002 C 
ATOM      3  C   UNL     1      35.699 -20.541 -20.295  0.00  0.00    -0.002 C 
ATOM      4  C   UNL     1      33.502 -19.634 -20.727  0.00  0.00    -0.002 C 
ATOM      5  C   UNL     1      35.122 -21.621 -19.629  0.00  0.00    -0.000 C 
ATOM      6  C   UNL     1      32.924 -20.716 -20.061  0.00  0.00    -0.000 C 
ATOM      7  C   UNL     1      33.734 -21.709 -19.512  0.00  0.00    -0.000 C 
ENDBRANCH   1   2
BRANCH   1   8
ATOM      8  O   UNL     1      35.390 -17.261 -20.684  0.00  0.00    -0.382 OA
ATOM      9  H   UNL     1      34.468 -16.960 -20.666  0.00  0.00    +0.211 HD
ENDBRANCH   1   8
BRANCH   1  10
ATOM     10  C   UNL     1      34.848 -18.074 -22.918  0.00  0.00    -0.034 C 
ATOM     11  C   UNL     1      34.975 -19.227 -23.914  0.00  0.00    -0.021 C 
BRANCH  10  12
ATOM     12  N   UNL     1      35.486 -16.890 -23.509  0.00  0.00    +0.384 N 
ATOM     13  H   UNL     1      36.360 -16.696 -23.021  0.00  0.00    -0.089 HD
ATOM     14  H   UNL     1      34.861 -16.088 -23.420  0.00  0.00    -0.089 HD
ATOM     15  H   UNL     1      35.678 -17.065 -24.495  0.00  0.00    -0.089 HD
ENDBRANCH  10  12
ENDBRANCH   1  10
TORSDOF 4
ENDMDL
MODEL 2
REMARK VINA RESULT:      -6.7      1.380      2.269
REMARK  Name = 441457
REMARK  4 active torsions:
REMARK  status: ('A' for Active; 'I' for Inactive)
REMARK    1  A    between atoms: C_1  and  C_2
REMARK    2  A    between atoms: C_1  and  O_8
REMARK    3  A    between atoms: C_1  and  C_10
REMARK    4  A    between atoms: C_10  and  N_12
REMARK                            x       y       z     vdW  Elec       q    Type
REMARK                         _______ _______ _______ _____ _____    ______ ____
ROOT
ATOM      1  C   UNL     1      34.363 -18.728 -21.963  0.00  0.00    +0.113 C 
ENDROOT
BRANCH   1   2
ATOM      2  C   UNL     1      34.471 -19.845 -20.946  0.00  0.00    +0.002 C 
ATOM      3  C   UNL     1      33.315 -20.380 -20.406  0.00  0.00    -0.002 C 
ATOM      4  C   UNL     1      35.723 -20.305 -20.581  0.00  0.00    -0.002 C 
ATOM      5  C   UNL     1      33.415 -21.409 -19.471  0.00  0.00    -0.000 C 
ATOM      6  C   UNL     1      35.823 -21.334 -19.644  0.00  0.00    -0.000 C 
ATOM      7  C   UNL     1      34.669 -21.887 -19.090  0.00  0.00    -0.000 C 
ENDBRANCH   1   2
BRANCH   1   8
ATOM      8  O   UNL     1      34.579 -19.319 -23.248  0.00  0.00    -0.382 OA
ATOM      9  H   UNL     1      35.477 -19.683 -23.289  0.00  0.00    +0.211 HD
ENDBRANCH   1   8
BRANCH   1  10
ATOM     10  C   UNL     1      35.370 -17.578 -21.736  0.00  0.00    -0.034 C 
ATOM     11  C   UNL     1      34.783 -16.440 -20.899  0.00  0.00    -0.021 C 
BRANCH  10  12
ATOM     12  N   UNL     1      35.784 -17.024 -23.031  0.00  0.00    +0.384 N 
ATOM     13  H   UNL     1      36.032 -17.784 -23.663  0.00  0.00    -0.089 HD
ATOM     14  H   UNL     1      36.592 -16.415 -22.897  0.00  0.00    -0.089 HD
ATOM     15  H   UNL     1      35.016 -16.485 -23.431  0.00  0.00    -0.089 HD
ENDBRANCH  10  12
ENDBRANCH   1  10
TORSDOF 4
ENDMDL
MODEL 3
REMARK VINA RESULT:      -6.4      2.057      4.482
REMARK  Name = 441457
REMARK  4 active torsions:
REMARK  status: ('A' for Active; 'I' for Inactive)
REMARK    1  A    between atoms: C_1  and  C_2
REMARK    2  A    between atoms: C_1  and  O_8
REMARK    3  A    between atoms: C_1  and  C_10
REMARK    4  A    between atoms: C_10  and  N_12
REMARK                            x       y       z     vdW  Elec       q    Type
REMARK                         _______ _______ _______ _____ _____    ______ ____
ROOT
ATOM      1  C   UNL     1      34.908 -18.661 -21.044  0.00  0.00    +0.113 C 
ENDROOT
BRANCH   1   2
ATOM      2  C   UNL     1      34.817 -18.172 -22.474  0.00  0.00    +0.002 C 
ATOM      3  C   UNL     1      34.918 -16.816 -22.731  0.00  0.00    -0.002 C 
ATOM      4  C   UNL     1      34.637 -19.091 -23.491  0.00  0.00    -0.002 C 
ATOM      5  C   UNL     1      34.836 -16.365 -24.048  0.00  0.00    -0.000 C 
ATOM      6  C   UNL     1      34.554 -18.641 -24.809  0.00  0.00    -0.000 C 
ATOM      7  C   UNL     1      34.654 -17.278 -25.088  0.00  0.00    -0.000 C 
ENDBRANCH   1   2
BRANCH   1   8
ATOM      8  O   UNL     1      36.293 -18.632 -20.686  0.00  0.00    -0.382 OA
ATOM      9  H   UNL     1      36.457 -19.275 -19.978  0.00  0.00    +0.211 HD
ENDBRANCH   1   8
BRANCH   1  10
ATOM     10  C   UNL     1      34.340 -20.082 -20.835  0.00  0.00    -0.034 C 
ATOM     11  C   UNL     1      32.863 -20.072 -20.438  0.00  0.00    -0.021 C 
BRANCH  10  12
ATOM     12  N   UNL     1      35.091 -20.761 -19.771  0.00  0.00    +0.384 N 
ATOM     13  H   UNL     1      35.580 -20.068 -19.205  0.00  0.00    -0.089 HD
ATOM     14  H   UNL     1      35.768 -21.400 -20.188  0.00  0.00    -0.089 HD
ATOM     15  H   UNL     1      34.446 -21.287 -19.182  0.00  0.00    -0.089 HD
ENDBRANCH  10  12
ENDBRANCH   1  10
TORSDOF 4
ENDMDL
MODEL 4
REMARK VINA RESULT:      -6.2      1.833      2.410
REMARK  Name = 441457
REMARK  4 active torsions:
REMARK  status: ('A' for Active; 'I' for Inactive)
REMARK    1  A    between atoms: C_1  and  C_2
REMARK    2  A    between atoms: C_1  and  O_8
REMARK    3  A    between atoms: C_1  and  C_10
REMARK    4  A    between atoms: C_10  and  N_12
REMARK                            x       y       z     vdW  Elec       q    Type
REMARK                         _______ _______ _______ _____ _____    ______ ____
ROOT
ATOM      1  C   UNL     1      34.624 -17.257 -22.353  0.00  0.00    +0.113 C 
ENDROOT
BRANCH   1   2
ATOM      2  C   UNL     1      34.911 -18.491 -21.525  0.00  0.00    +0.002 C 
ATOM      3  C   UNL     1      36.215 -18.766 -21.154  0.00  0.00    -0.002 C 
ATOM      4  C   UNL     1      33.863 -19.314 -21.156  0.00  0.00    -0.002 C 
ATOM      5  C   UNL     1      36.479 -19.902 -20.389  0.00  0.00    -0.000 C 
ATOM      6  C   UNL     1      34.127 -20.452 -20.392  0.00  0.00    -0.000 C 
ATOM      7  C   UNL     1      35.435 -20.745 -20.008  0.00  0.00    -0.000 C 
ENDBRANCH   1   2
BRANCH   1   8
ATOM      8  O   UNL     1      35.710 -17.117 -23.274  0.00  0.00    -0.382 OA
ATOM      9  H   UNL     1      35.370 -16.816 -24.132  0.00  0.00    +0.211 HD
ENDBRANCH   1   8
BRANCH   1  10
ATOM     10  C   UNL     1      34.473 -15.966 -21.517  0.00  0.00    -0.034 C 
ATOM     11  C   UNL     1      33.087 -15.835 -20.884  0.00  0.00    -0.021 C 
BRANCH  10  12
ATOM     12  N   UNL     1      34.692 -14.795 -22.376  0.00  0.00    +0.384 N 
ATOM     13  H   UNL     1      33.804 -14.322 -22.539  0.00  0.00    -0.089 HD
ATOM     14  H   UNL     1      35.086 -15.097 -23.267  0.00  0.00    -0.089 HD
ATOM     15  H   UNL     1      35.340 -14.154 -21.918  0.00  0.00    -0.089 HD
ENDBRANCH  10  12
ENDBRANCH   1  10
TORSDOF 4
ENDMDL
MODEL 5
REMARK VINA RESULT:      -6.0     10.045     11.169
REMARK  Name = 441457
REMARK  4 active torsions:
REMARK  status: ('A' for Active; 'I' for Inactive)
REMARK    1  A    between atoms: C_1  and  C_2
REMARK    2  A    between atoms: C_1  and  O_8
REMARK    3  A    between atoms: C_1  and  C_10
REMARK    4  A    between atoms: C_10  and  N_12
REMARK                            x       y       z     vdW  Elec       q    Type
REMARK                         _______ _______ _______ _____ _____    ______ ____
ROOT
ATOM      1  C   UNL     1      32.844  -7.762 -20.880  0.00  0.00    +0.113 C 
ENDROOT
BRANCH   1   2
ATOM      2  C   UNL     1      32.216  -9.129 -20.709  0.00  0.00    +0.002 C 
ATOM      3  C   UNL     1      31.877  -9.861 -21.832  0.00  0.00    -0.002 C 
ATOM      4  C   UNL     1      31.998  -9.615 -19.432  0.00  0.00    -0.002 C 
ATOM      5  C   UNL     1      31.300 -11.121 -21.674  0.00  0.00    -0.000 C 
ATOM      6  C   UNL     1      31.420 -10.875 -19.274  0.00  0.00    -0.000 C 
ATOM      7  C   UNL     1      31.071 -11.629 -20.395  0.00  0.00    -0.000 C 
ENDBRANCH   1   2
BRANCH   1   8
ATOM      8  O   UNL     1      33.054  -7.237 -19.566  0.00  0.00    -0.382 OA
ATOM      9  H   UNL     1      32.224  -6.863 -19.231  0.00  0.00    +0.211 HD
ENDBRANCH   1   8
BRANCH   1  10
ATOM     10  C   UNL     1      31.983  -6.781 -21.708  0.00  0.00    -0.034 C 
ATOM     11  C   UNL     1      32.585  -6.486 -23.082  0.00  0.00    -0.021 C 
BRANCH  10  12
ATOM     12  N   UNL     1      31.856  -5.508 -20.985  0.00  0.00    +0.384 N 
ATOM     13  H   UNL     1      31.579  -4.774 -21.636  0.00  0.00    -0.089 HD
ATOM     14  H   UNL     1      32.753  -5.268 -20.562  0.00  0.00    -0.089 HD
ATOM     15  H   UNL     1      31.150  -5.601 -20.256  0.00  0.00    -0.089 HD
ENDBRANCH  10  12
ENDBRANCH   1  10
TORSDOF 4
ENDMDL
MODEL 6
REMARK VINA RESULT:      -5.9      2.862      4.291
REMARK  Name = 441457
REMARK  4 active torsions:
REMARK  status: ('A' for Active; 'I' for Inactive)
REMARK    1  A    between atoms: C_1  and  C_2
REMARK    2  A    between atoms: C_1  and  O_8
REMARK    3  A    between atoms: C_1  and  C_10
REMARK    4  A    between atoms: C_10  and  N_12
REMARK                            x       y       z     vdW  Elec       q    Type
REMARK                         _______ _______ _______ _____ _____    ______ ____
ROOT
ATOM      1  C   UNL     1      34.404 -15.643 -21.748  0.00  0.00    +0.113 C 
ENDROOT
BRANCH   1   2
ATOM      2  C   UNL     1      34.562 -16.885 -22.598  0.00  0.00    +0.002 C 
ATOM      3  C   UNL     1      34.636 -18.121 -21.979  0.00  0.00    -0.002 C 
ATOM      4  C   UNL     1      34.629 -16.757 -23.973  0.00  0.00    -0.002 C 
ATOM      5  C   UNL     1      34.781 -19.266 -22.763  0.00  0.00    -0.000 C 
ATOM      6  C   UNL     1      34.776 -17.902 -24.757  0.00  0.00    -0.000 C 
ATOM      7  C   UNL     1      34.851 -19.156 -24.152  0.00  0.00    -0.000 C 
ENDBRANCH   1   2
BRANCH   1   8
ATOM      8  O   UNL     1      34.970 -15.943 -20.469  0.00  0.00    -0.382 OA
ATOM      9  H   UNL     1      34.313 -15.770 -19.775  0.00  0.00    +0.211 HD
ENDBRANCH   1   8
BRANCH   1  10
ATOM     10  C   UNL     1      32.937 -15.186 -21.580  0.00  0.00    -0.034 C 
ATOM     11  C   UNL     1      32.637 -13.885 -22.327  0.00  0.00    -0.021 C 
BRANCH  10  12
ATOM     12  N   UNL     1      32.649 -14.968 -20.156  0.00  0.00    +0.384 N 
ATOM     13  H   UNL     1      32.549 -13.969 -19.978  0.00  0.00    -0.089 HD
ATOM     14  H   UNL     1      33.416 -15.339 -19.594  0.00  0.00    -0.089 HD
ATOM     15  H   UNL     1      31.783 -15.446 -19.908  0.00  0.00    -0.089 HD
ENDBRANCH  10  12
ENDBRANCH   1  10
TORSDOF 4
ENDMDL
MODEL 7
REMARK VINA RESULT:      -5.9      1.711      2.246
REMARK  Name = 441457
REMARK  4 active torsions:
REMARK  status: ('A' for Active; 'I' for Inactive)
REMARK    1  A    between atoms: C_1  and  C_2
REMARK    2  A    between atoms: C_1  and  O_8
REMARK    3  A    between atoms: C_1  and  C_10
REMARK    4  A    between atoms: C_10  and  N_12
REMARK                            x       y       z     vdW  Elec       q    Type
REMARK                         _______ _______ _______ _____ _____    ______ ____
ROOT
ATOM      1  C   UNL     1      35.771 -20.256 -20.618  0.00  0.00    +0.113 C 
ENDROOT
BRANCH   1   2
ATOM      2  C   UNL     1      35.183 -21.164 -19.559  0.00  0.00    +0.002 C 
ATOM      3  C   UNL     1      36.005 -21.661 -18.563  0.00  0.00    -0.002 C 
ATOM      4  C   UNL     1      33.836 -21.476 -19.610  0.00  0.00    -0.002 C 
ATOM      5  C   UNL     1      35.463 -22.496 -17.587  0.00  0.00    -0.000 C 
ATOM      6  C   UNL     1      33.294 -22.313 -18.634  0.00  0.00    -0.000 C 
ATOM      7  C   UNL     1      34.107 -22.823 -17.622  0.00  0.00    -0.000 C 
ENDBRANCH   1   2
BRANCH   1   8
ATOM      8  O   UNL     1      36.928 -19.644 -20.039  0.00  0.00    -0.382 OA
ATOM      9  H   UNL     1      37.196 -18.884 -20.580  0.00  0.00    +0.211 HD
ENDBRANCH   1   8
BRANCH   1  10
ATOM     10  C   UNL     1      34.795 -19.168 -21.118  0.00  0.00    -0.034 C 
ATOM     11  C   UNL     1      34.560 -19.238 -22.628  0.00  0.00    -0.021 C 
BRANCH  10  12
ATOM     12  N   UNL     1      35.335 -17.839 -20.803  0.00  0.00    +0.384 N 
ATOM     13  H   UNL     1      36.343 -17.837 -20.956  0.00  0.00    -0.089 HD
ATOM     14  H   UNL     1      35.137 -17.615 -19.828  0.00  0.00    -0.089 HD
ATOM     15  H   UNL     1      34.899 -17.143 -21.408  0.00  0.00    -0.089 HD
ENDBRANCH  10  12
ENDBRANCH   1  10
TORSDOF 4
ENDMDL
MODEL 8
REMARK VINA RESULT:      -5.9     11.483     13.413
REMARK  Name = 441457
REMARK  4 active torsions:
REMARK  status: ('A' for Active; 'I' for Inactive)
REMARK    1  A    between atoms: C_1  and  C_2
REMARK    2  A    between atoms: C_1  and  O_8
REMARK    3  A    between atoms: C_1  and  C_10
REMARK    4  A    between atoms: C_10  and  N_12
REMARK                            x       y       z     vdW  Elec       q    Type
REMARK                         _______ _______ _______ _____ _____    ______ ____
ROOT
ATOM      1  C   UNL     1      31.992  -6.930 -21.838  0.00  0.00    +0.113 C 
ENDROOT
BRANCH   1   2
ATOM      2  C   UNL     1      32.721  -6.634 -23.131  0.00  0.00    +0.002 C 
ATOM      3  C   UNL     1      33.945  -7.235 -23.368  0.00  0.00    -0.002 C 
ATOM      4  C   UNL     1      32.148  -5.769 -24.046  0.00  0.00    -0.002 C 
ATOM      5  C   UNL     1      34.616  -6.963 -24.560  0.00  0.00    -0.000 C 
ATOM      6  C   UNL     1      32.820  -5.496 -25.238  0.00  0.00    -0.000 C 
ATOM      7  C   UNL     1      34.054  -6.094 -25.495  0.00  0.00    -0.000 C 
ENDBRANCH   1   2
BRANCH   1   8
ATOM      8  O   UNL     1      31.883  -5.690 -21.133  0.00  0.00    -0.382 OA
ATOM      9  H   UNL     1      32.536  -5.061 -21.481  0.00  0.00    +0.211 HD
ENDBRANCH   1   8
BRANCH   1  10
ATOM     10  C   UNL     1      32.698  -7.980 -20.951  0.00  0.00    -0.034 C 
ATOM     11  C   UNL     1      31.905  -9.283 -20.839  0.00  0.00    -0.021 C 
BRANCH  10  12
ATOM     12  N   UNL     1      32.876  -7.440 -19.597  0.00  0.00    +0.384 N 
ATOM     13  H   UNL     1      33.206  -6.477 -19.655  0.00  0.00    -0.089 HD
ATOM     14  H   UNL     1      33.561  -8.005 -19.094  0.00  0.00    -0.089 HD
ATOM     15  H   UNL     1      31.986  -7.465 -19.101  0.00  0.00    -0.089 HD
ENDBRANCH  10  12
ENDBRANCH   1  10
TORSDOF 4
ENDMDL
MODEL 9
REMARK VINA RESULT:      -5.9      3.269      5.093
REMARK  Name = 441457
REMARK  4 active torsions:
REMARK  status: ('A' for Active; 'I' for Inactive)
REMARK    1  A    between atoms: C_1  and  C_2
REMARK    2  A    between atoms: C_1  and  O_8
REMARK    3  A    between atoms: C_1  and  C_10
REMARK    4  A    between atoms: C_10  and  N_12
REMARK                            x       y       z     vdW  Elec       q    Type
REMARK                         _______ _______ _______ _____ _____    ______ ____
ROOT
ATOM      1  C   UNL     1      35.235 -16.733 -22.633  0.00  0.00    +0.113 C 
ENDROOT
BRANCH   1   2
ATOM      2  C   UNL     1      34.217 -15.688 -22.228  0.00  0.00    +0.002 C 
ATOM      3  C   UNL     1      33.703 -14.838 -23.191  0.00  0.00    -0.002 C 
ATOM      4  C   UNL     1      33.825 -15.607 -20.904  0.00  0.00    -0.002 C 
ATOM      5  C   UNL     1      32.765 -13.876 -22.818  0.00  0.00    -0.000 C 
ATOM      6  C   UNL     1      32.887 -14.643 -20.530  0.00  0.00    -0.000 C 
ATOM      7  C   UNL     1      32.356 -13.778 -21.487  0.00  0.00    -0.000 C 
ENDBRANCH   1   2
BRANCH   1   8
ATOM      8  O   UNL     1      35.708 -16.365 -23.932  0.00  0.00    -0.382 OA
ATOM      9  H   UNL     1      35.317 -16.953 -24.597  0.00  0.00    +0.211 HD
ENDBRANCH   1   8
BRANCH   1  10
ATOM     10  C   UNL     1      34.671 -18.172 -22.666  0.00  0.00    -0.034 C 
ATOM     11  C   UNL     1      35.264 -19.061 -21.573  0.00  0.00    -0.021 C 
BRANCH  10  12
ATOM     12  N   UNL     1      34.971 -18.788 -23.965  0.00  0.00    +0.384 N 
ATOM     13  H   UNL     1      35.528 -18.145 -24.526  0.00  0.00    -0.089 HD
ATOM     14  H   UNL     1      34.098 -18.996 -24.452  0.00  0.00    -0.089 HD
ATOM     15  H   UNL     1      35.493 -19.652 -23.819  0.00  0.00    -0.089 HD
ENDBRANCH  10  12
ENDBRANCH   1  10
TORSDOF 4
ENDMDL
