MODEL 1
REMARK VINA RESULT:      -7.1      0.000      0.000
REMARK  Name = 5438
REMARK  1 active torsions:
REMARK  status: ('A' for Active; 'I' for Inactive)
REMARK    1  A    between atoms: C_4  and  C_12
REMARK                            x       y       z     vdW  Elec       q    Type
REMARK                         _______ _______ _______ _____ _____    ______ ____
ROOT
ATOM      1  S   UNL     1      36.395 -18.984 -21.154  0.00  0.00    -0.065 S 
ATOM      2  N   UNL     1      35.975 -21.254 -19.830  0.00  0.00    -0.237 NA
ATOM      3  C   UNL     1      34.061 -19.921 -20.571  0.00  0.00    +0.024 C 
ATOM      4  C   UNL     1      35.027 -18.088 -21.652  0.00  0.00    +0.060 C 
ATOM      5  C   UNL     1      35.420 -20.186 -20.440  0.00  0.00    +0.111 C 
ATOM      6  C   UNL     1      33.847 -18.696 -21.280  0.00  0.00    +0.011 C 
ATOM      7  C   UNL     1      33.173 -20.863 -20.010  0.00  0.00    +0.004 C 
ATOM      8  C   UNL     1      33.699 -21.981 -19.370  0.00  0.00    +0.021 C 
ATOM      9  C   UNL     1      35.075 -22.117 -19.314  0.00  0.00    +0.099 C 
ENDROOT
BRANCH   4  12
ATOM     10  N   UNL     1      35.589 -16.841 -23.624  0.00  0.00    -0.344 N 
ATOM     11  N   UNL     1      34.689 -15.716 -21.790  0.00  0.00    -0.386 N 
ATOM     12  C   UNL     1      35.102 -16.857 -22.370  0.00  0.00    +0.102 C 
ATOM     13  H   UNL     1      35.642 -15.994 -24.121  0.00  0.00    +0.144 HD
ATOM     14  H   UNL     1      35.891 -17.679 -24.044  0.00  0.00    +0.144 HD
ATOM     15  H   UNL     1      34.740 -14.865 -22.283  0.00  0.00    +0.157 HD
ATOM     16  H   UNL     1      34.334 -15.731 -20.871  0.00  0.00    +0.157 HD
ENDBRANCH   4  12
TORSDOF 1
ENDMDL
MODEL 2
REMARK VINA RESULT:      -6.8      4.587      5.618
REMARK  Name = 5438
REMARK  1 active torsions:
REMARK  status: ('A' for Active; 'I' for Inactive)
REMARK    1  A    between atoms: C_4  and  C_12
REMARK                            x       y       z     vdW  Elec       q    Type
REMARK                         _______ _______ _______ _____ _____    ______ ____
ROOT
ATOM      1  S   UNL     1      33.301 -14.745 -25.326  0.00  0.00    -0.065 S 
ATOM      2  N   UNL     1      33.954 -17.314 -25.569  0.00  0.00    -0.237 NA
ATOM      3  C   UNL     1      34.605 -16.093 -23.551  0.00  0.00    +0.024 C 
ATOM      4  C   UNL     1      33.778 -13.935 -23.898  0.00  0.00    +0.060 C 
ATOM      5  C   UNL     1      34.007 -16.206 -24.801  0.00  0.00    +0.111 C 
ATOM      6  C   UNL     1      34.463 -14.764 -23.037  0.00  0.00    +0.011 C 
ATOM      7  C   UNL     1      35.217 -17.253 -23.032  0.00  0.00    +0.004 C 
ATOM      8  C   UNL     1      35.187 -18.421 -23.788  0.00  0.00    +0.021 C 
ATOM      9  C   UNL     1      34.556 -18.389 -25.019  0.00  0.00    +0.099 C 
ENDROOT
BRANCH   4  12
ATOM     10  N   UNL     1      34.259 -11.600 -24.183  0.00  0.00    -0.344 N 
ATOM     11  N   UNL     1      32.466 -12.232 -22.830  0.00  0.00    -0.386 N 
ATOM     12  C   UNL     1      33.495 -12.561 -23.632  0.00  0.00    +0.102 C 
ATOM     13  H   UNL     1      34.065 -10.653 -24.000  0.00  0.00    +0.144 HD
ATOM     14  H   UNL     1      35.011 -11.846 -24.768  0.00  0.00    +0.144 HD
ATOM     15  H   UNL     1      32.269 -11.285 -22.645  0.00  0.00    +0.157 HD
ATOM     16  H   UNL     1      31.910 -12.938 -22.428  0.00  0.00    +0.157 HD
ENDBRANCH   4  12
TORSDOF 1
ENDMDL
MODEL 3
REMARK VINA RESULT:      -6.7      1.535      2.192
REMARK  Name = 5438
REMARK  1 active torsions:
REMARK  status: ('A' for Active; 'I' for Inactive)
REMARK    1  A    between atoms: C_4  and  C_12
REMARK                            x       y       z     vdW  Elec       q    Type
REMARK                         _______ _______ _______ _____ _____    ______ ____
ROOT
ATOM      1  S   UNL     1      33.280 -19.331 -21.186  0.00  0.00    -0.065 S 
ATOM      2  N   UNL     1      32.866 -21.329 -19.477  0.00  0.00    -0.237 NA
ATOM      3  C   UNL     1      35.158 -20.684 -20.043  0.00  0.00    +0.024 C 
ATOM      4  C   UNL     1      34.899 -18.917 -21.550  0.00  0.00    +0.060 C 
ATOM      5  C   UNL     1      33.774 -20.573 -20.129  0.00  0.00    +0.111 C 
ATOM      6  C   UNL     1      35.800 -19.713 -20.875  0.00  0.00    +0.011 C 
ATOM      7  C   UNL     1      35.663 -21.688 -19.189  0.00  0.00    +0.004 C 
ATOM      8  C   UNL     1      34.764 -22.493 -18.496  0.00  0.00    +0.021 C 
ATOM      9  C   UNL     1      33.410 -22.270 -18.678  0.00  0.00    +0.099 C 
ENDROOT
BRANCH   4  12
ATOM     10  N   UNL     1      35.129 -16.585 -22.067  0.00  0.00    -0.344 N 
ATOM     11  N   UNL     1      35.754 -18.167 -23.663  0.00  0.00    -0.386 N 
ATOM     12  C   UNL     1      35.269 -17.868 -22.444  0.00  0.00    +0.102 C 
ATOM     13  H   UNL     1      35.383 -15.860 -22.682  0.00  0.00    +0.144 HD
ATOM     14  H   UNL     1      34.773 -16.371 -21.174  0.00  0.00    +0.144 HD
ATOM     15  H   UNL     1      36.009 -17.445 -24.282  0.00  0.00    +0.157 HD
ATOM     16  H   UNL     1      35.853 -19.107 -23.936  0.00  0.00    +0.157 HD
ENDBRANCH   4  12
TORSDOF 1
ENDMDL
MODEL 4
REMARK VINA RESULT:      -6.7      3.113      4.421
REMARK  Name = 5438
REMARK  1 active torsions:
REMARK  status: ('A' for Active; 'I' for Inactive)
REMARK    1  A    between atoms: C_4  and  C_12
REMARK                            x       y       z     vdW  Elec       q    Type
REMARK                         _______ _______ _______ _____ _____    ______ ____
ROOT
ATOM      1  S   UNL     1      34.201 -14.915 -21.144  0.00  0.00    -0.065 S 
ATOM      2  N   UNL     1      35.271 -17.319 -20.740  0.00  0.00    -0.237 NA
ATOM      3  C   UNL     1      34.748 -16.601 -23.021  0.00  0.00    +0.024 C 
ATOM      4  C   UNL     1      33.854 -14.459 -22.755  0.00  0.00    +0.060 C 
ATOM      5  C   UNL     1      34.805 -16.430 -21.642  0.00  0.00    +0.111 C 
ATOM      6  C   UNL     1      34.193 -15.445 -23.656  0.00  0.00    +0.011 C 
ATOM      7  C   UNL     1      35.227 -17.828 -23.529  0.00  0.00    +0.004 C 
ATOM      8  C   UNL     1      35.718 -18.776 -22.637  0.00  0.00    +0.021 C 
ATOM      9  C   UNL     1      35.714 -18.470 -21.287  0.00  0.00    +0.099 C 
ENDROOT
BRANCH   4  12
ATOM     10  N   UNL     1      32.027 -12.902 -22.743  0.00  0.00    -0.344 N 
ATOM     11  N   UNL     1      34.003 -12.323 -23.838  0.00  0.00    -0.386 N 
ATOM     12  C   UNL     1      33.284 -13.202 -23.118  0.00  0.00    +0.102 C 
ATOM     13  H   UNL     1      31.632 -12.037 -22.993  0.00  0.00    +0.144 HD
ATOM     14  H   UNL     1      31.504 -13.550 -22.217  0.00  0.00    +0.144 HD
ATOM     15  H   UNL     1      33.612 -11.455 -24.090  0.00  0.00    +0.157 HD
ATOM     16  H   UNL     1      34.922 -12.546 -24.112  0.00  0.00    +0.157 HD
ENDBRANCH   4  12
TORSDOF 1
ENDMDL
MODEL 5
REMARK VINA RESULT:      -6.7      3.410      6.329
REMARK  Name = 5438
REMARK  1 active torsions:
REMARK  status: ('A' for Active; 'I' for Inactive)
REMARK    1  A    between atoms: C_4  and  C_12
REMARK                            x       y       z     vdW  Elec       q    Type
REMARK                         _______ _______ _______ _____ _____    ______ ____
ROOT
ATOM      1  S   UNL     1      34.772 -17.675 -24.593  0.00  0.00    -0.065 S 
ATOM      2  N   UNL     1      33.502 -16.005 -26.230  0.00  0.00    -0.237 NA
ATOM      3  C   UNL     1      34.095 -15.262 -23.974  0.00  0.00    +0.024 C 
ATOM      4  C   UNL     1      35.166 -17.111 -23.028  0.00  0.00    +0.060 C 
ATOM      5  C   UNL     1      34.046 -16.190 -25.009  0.00  0.00    +0.111 C 
ATOM      6  C   UNL     1      34.750 -15.812 -22.827  0.00  0.00    +0.011 C 
ATOM      7  C   UNL     1      33.517 -13.999 -24.226  0.00  0.00    +0.004 C 
ATOM      8  C   UNL     1      32.944 -13.761 -25.471  0.00  0.00    +0.021 C 
ATOM      9  C   UNL     1      32.966 -14.779 -26.409  0.00  0.00    +0.099 C 
ENDROOT
BRANCH   4  12
ATOM     10  N   UNL     1      35.311 -18.052 -20.825  0.00  0.00    -0.344 N 
ATOM     11  N   UNL     1      37.023 -18.471 -22.352  0.00  0.00    -0.386 N 
ATOM     12  C   UNL     1      35.847 -17.895 -22.048  0.00  0.00    +0.102 C 
ATOM     13  H   UNL     1      35.779 -18.592 -20.149  0.00  0.00    +0.144 HD
ATOM     14  H   UNL     1      34.450 -17.628 -20.607  0.00  0.00    +0.144 HD
ATOM     15  H   UNL     1      37.496 -19.012 -21.679  0.00  0.00    +0.157 HD
ATOM     16  H   UNL     1      37.413 -18.352 -23.249  0.00  0.00    +0.157 HD
ENDBRANCH   4  12
TORSDOF 1
ENDMDL
MODEL 6
REMARK VINA RESULT:      -6.6      3.350      5.968
REMARK  Name = 5438
REMARK  1 active torsions:
REMARK  status: ('A' for Active; 'I' for Inactive)
REMARK    1  A    between atoms: C_4  and  C_12
REMARK                            x       y       z     vdW  Elec       q    Type
REMARK                         _______ _______ _______ _____ _____    ______ ____
ROOT
ATOM      1  S   UNL     1      34.549 -15.877 -23.518  0.00  0.00    -0.065 S 
ATOM      2  N   UNL     1      32.985 -13.724 -23.462  0.00  0.00    -0.237 NA
ATOM      3  C   UNL     1      33.489 -14.901 -21.376  0.00  0.00    +0.024 C 
ATOM      4  C   UNL     1      34.872 -16.665 -22.036  0.00  0.00    +0.060 C 
ATOM      5  C   UNL     1      33.576 -14.706 -22.750  0.00  0.00    +0.111 C 
ATOM      6  C   UNL     1      34.249 -16.046 -20.974  0.00  0.00    +0.011 C 
ATOM      7  C   UNL     1      32.703 -13.979 -20.652  0.00  0.00    +0.004 C 
ATOM      8  C   UNL     1      32.074 -12.948 -21.343  0.00  0.00    +0.021 C 
ATOM      9  C   UNL     1      32.249 -12.875 -22.714  0.00  0.00    +0.099 C 
ENDROOT
BRANCH   4  12
ATOM     10  N   UNL     1      36.343 -18.302 -22.994  0.00  0.00    -0.344 N 
ATOM     11  N   UNL     1      35.811 -18.444 -20.727  0.00  0.00    -0.386 N 
ATOM     12  C   UNL     1      35.693 -17.827 -21.916  0.00  0.00    +0.102 C 
ATOM     13  H   UNL     1      36.909 -19.102 -22.913  0.00  0.00    +0.144 HD
ATOM     14  H   UNL     1      36.252 -17.847 -23.862  0.00  0.00    +0.144 HD
ATOM     15  H   UNL     1      36.377 -19.245 -20.642  0.00  0.00    +0.157 HD
ATOM     16  H   UNL     1      35.333 -18.094 -19.941  0.00  0.00    +0.157 HD
ENDBRANCH   4  12
TORSDOF 1
ENDMDL
MODEL 7
REMARK VINA RESULT:      -6.6      1.951      5.261
REMARK  Name = 5438
REMARK  1 active torsions:
REMARK  status: ('A' for Active; 'I' for Inactive)
REMARK    1  A    between atoms: C_4  and  C_12
REMARK                            x       y       z     vdW  Elec       q    Type
REMARK                         _______ _______ _______ _____ _____    ______ ____
ROOT
ATOM      1  S   UNL     1      34.911 -17.179 -21.180  0.00  0.00    -0.065 S 
ATOM      2  N   UNL     1      34.274 -15.523 -23.164  0.00  0.00    -0.237 NA
ATOM      3  C   UNL     1      34.704 -17.882 -23.655  0.00  0.00    +0.024 C 
ATOM      4  C   UNL     1      35.202 -18.817 -21.572  0.00  0.00    +0.060 C 
ATOM      5  C   UNL     1      34.593 -16.785 -22.808  0.00  0.00    +0.111 C 
ATOM      6  C   UNL     1      35.058 -19.059 -22.922  0.00  0.00    +0.011 C 
ATOM      7  C   UNL     1      34.457 -17.654 -25.026  0.00  0.00    +0.004 C 
ATOM      8  C   UNL     1      34.125 -16.368 -25.441  0.00  0.00    +0.021 C 
ATOM      9  C   UNL     1      34.050 -15.369 -24.486  0.00  0.00    +0.099 C 
ENDROOT
BRANCH   4  12
ATOM     10  N   UNL     1      34.627 -20.707 -20.209  0.00  0.00    -0.344 N 
ATOM     11  N   UNL     1      36.797 -19.856 -20.112  0.00  0.00    -0.386 N 
ATOM     12  C   UNL     1      35.549 -19.815 -20.612  0.00  0.00    +0.102 C 
ATOM     13  H   UNL     1      34.865 -21.394 -19.546  0.00  0.00    +0.144 HD
ATOM     14  H   UNL     1      33.715 -20.671 -20.577  0.00  0.00    +0.144 HD
ATOM     15  H   UNL     1      37.040 -20.543 -19.448  0.00  0.00    +0.157 HD
ATOM     16  H   UNL     1      37.469 -19.201 -20.408  0.00  0.00    +0.157 HD
ENDBRANCH   4  12
TORSDOF 1
ENDMDL
MODEL 8
REMARK VINA RESULT:      -6.6      3.301      4.596
REMARK  Name = 5438
REMARK  1 active torsions:
REMARK  status: ('A' for Active; 'I' for Inactive)
REMARK    1  A    between atoms: C_4  and  C_12
REMARK                            x       y       z     vdW  Elec       q    Type
REMARK                         _______ _______ _______ _____ _____    ______ ____
ROOT
ATOM      1  S   UNL     1      33.923 -14.800 -22.724  0.00  0.00    -0.065 S 
ATOM      2  N   UNL     1      34.990 -16.739 -21.245  0.00  0.00    -0.237 NA
ATOM      3  C   UNL     1      34.718 -17.074 -23.654  0.00  0.00    +0.024 C 
ATOM      4  C   UNL     1      33.754 -15.081 -24.402  0.00  0.00    +0.060 C 
ATOM      5  C   UNL     1      34.612 -16.340 -22.477  0.00  0.00    +0.111 C 
ATOM      6  C   UNL     1      34.215 -16.327 -24.767  0.00  0.00    +0.011 C 
ATOM      7  C   UNL     1      35.278 -18.365 -23.549  0.00  0.00    +0.004 C 
ATOM      8  C   UNL     1      35.683 -18.820 -22.298  0.00  0.00    +0.021 C 
ATOM      9  C   UNL     1      35.517 -17.981 -21.210  0.00  0.00    +0.099 C 
ENDROOT
BRANCH   4  12
ATOM     10  N   UNL     1      32.395 -14.547 -26.307  0.00  0.00    -0.344 N 
ATOM     11  N   UNL     1      33.494 -12.826 -25.179  0.00  0.00    -0.386 N 
ATOM     12  C   UNL     1      33.202 -14.132 -25.314  0.00  0.00    +0.102 C 
ATOM     13  H   UNL     1      32.014 -13.894 -26.937  0.00  0.00    +0.144 HD
ATOM     14  H   UNL     1      32.185 -15.504 -26.402  0.00  0.00    +0.144 HD
ATOM     15  H   UNL     1      33.115 -12.169 -25.808  0.00  0.00    +0.157 HD
ATOM     16  H   UNL     1      34.086 -12.526 -24.452  0.00  0.00    +0.157 HD
ENDBRANCH   4  12
TORSDOF 1
ENDMDL
MODEL 9
REMARK VINA RESULT:      -6.4      2.401      5.432
REMARK  Name = 5438
REMARK  1 active torsions:
REMARK  status: ('A' for Active; 'I' for Inactive)
REMARK    1  A    between atoms: C_4  and  C_12
REMARK                            x       y       z     vdW  Elec       q    Type
REMARK                         _______ _______ _______ _____ _____    ______ ____
ROOT
ATOM      1  S   UNL     1      34.964 -18.982 -23.664  0.00  0.00    -0.065 S 
ATOM      2  N   UNL     1      34.192 -17.117 -25.399  0.00  0.00    -0.237 NA
ATOM      3  C   UNL     1      34.397 -16.545 -23.028  0.00  0.00    +0.024 C 
ATOM      4  C   UNL     1      35.093 -18.535 -22.019  0.00  0.00    +0.060 C 
ATOM      5  C   UNL     1      34.468 -17.414 -24.112  0.00  0.00    +0.111 C 
ATOM      6  C   UNL     1      34.764 -17.212 -21.816  0.00  0.00    +0.011 C 
ATOM      7  C   UNL     1      33.995 -15.221 -23.301  0.00  0.00    +0.004 C 
ATOM      8  C   UNL     1      33.699 -14.868 -24.614  0.00  0.00    +0.021 C 
ATOM      9  C   UNL     1      33.813 -15.837 -25.596  0.00  0.00    +0.099 C 
ENDROOT
BRANCH   4  12
ATOM     10  N   UNL     1      36.748 -19.367 -20.494  0.00  0.00    -0.344 N 
ATOM     11  N   UNL     1      34.625 -20.332 -20.499  0.00  0.00    -0.386 N 
ATOM     12  C   UNL     1      35.497 -19.429 -20.982  0.00  0.00    +0.102 C 
ATOM     13  H   UNL     1      37.029 -19.982 -19.779  0.00  0.00    +0.144 HD
ATOM     14  H   UNL     1      37.383 -18.705 -20.851  0.00  0.00    +0.144 HD
ATOM     15  H   UNL     1      34.901 -20.950 -19.784  0.00  0.00    +0.157 HD
ATOM     16  H   UNL     1      33.710 -20.375 -20.860  0.00  0.00    +0.157 HD
ENDBRANCH   4  12
TORSDOF 1
ENDMDL
