MODEL 1
REMARK VINA RESULT:      -9.6      0.000      0.000
REMARK  Name = 70691449
REMARK  5 active torsions:
REMARK  status: ('A' for Active; 'I' for Inactive)
REMARK    1  A    between atoms: N_5  and  C_22
REMARK    2  A    between atoms: C_6  and  C_20
REMARK    3  A    between atoms: C_10  and  C_25
REMARK    4  A    between atoms: C_22  and  C_23
REMARK    5  A    between atoms: C_25  and  C_26
REMARK                            x       y       z     vdW  Elec       q    Type
REMARK                         _______ _______ _______ _____ _____    ______ ____
ROOT
ATOM      1  O   UNL     1      34.771 -10.831 -25.227  0.00  0.00    -0.289 OA
ATOM      2  O   UNL     1      31.398  -8.758 -22.543  0.00  0.00    -0.274 OA
ATOM      3  N   UNL     1      33.983 -13.332 -23.798  0.00  0.00    -0.315 N 
ATOM      4  N   UNL     1      32.392 -13.406 -22.240  0.00  0.00    -0.306 N 
ATOM      5  N   UNL     1      31.807 -11.023 -22.286  0.00  0.00    -0.246 N 
ATOM      6  C   UNL     1      33.275 -14.109 -22.919  0.00  0.00    +0.145 C 
ATOM      7  C   UNL     1      33.521 -12.054 -23.664  0.00  0.00    +0.109 C 
ATOM      8  C   UNL     1      32.545 -12.124 -22.705  0.00  0.00    +0.120 C 
ATOM      9  C   UNL     1      33.920 -10.867 -24.343  0.00  0.00    +0.197 C 
ATOM     10  C   UNL     1      33.204  -9.613 -23.858  0.00  0.00    +0.140 C 
ATOM     11  C   UNL     1      32.054  -9.764 -22.843  0.00  0.00    +0.237 C 
ATOM     12  H   UNL     1      34.690 -13.638 -24.410  0.00  0.00    +0.148 HD
ATOM     13  H   UNL     1      31.765 -13.728 -21.554  0.00  0.00    +0.149 HD
ENDROOT
BRANCH   6  20
ATOM     14  O   UNL     1      34.216 -18.614 -20.837  0.00  0.00    -0.354 OA
ATOM     15  C   UNL     1      33.476 -16.247 -21.380  0.00  0.00    +0.033 C 
ATOM     16  C   UNL     1      33.366 -17.754 -21.602  0.00  0.00    +0.142 C 
ATOM     17  C   UNL     1      34.719 -18.147 -22.093  0.00  0.00    +0.142 C 
ATOM     18  C   UNL     1      35.507 -16.849 -22.099  0.00  0.00    +0.030 C 
ATOM     19  C   UNL     1      34.933 -16.076 -20.902  0.00  0.00    +0.005 C 
ATOM     20  C   UNL     1      33.533 -15.597 -22.800  0.00  0.00    +0.040 C 
ATOM     21  C   UNL     1      34.977 -15.985 -23.268  0.00  0.00    +0.006 C 
ENDBRANCH   6  20
BRANCH   5  22
ATOM     22  C   UNL     1      30.761 -11.198 -21.283  0.00  0.00    +0.099 C 
BRANCH  22  23
ATOM     23  C   UNL     1      31.326 -11.331 -19.873  0.00  0.00    +0.022 C 
ATOM     24  C   UNL     1      31.735  -9.992 -19.275  0.00  0.00    +0.002 C 
ENDBRANCH  22  23
ENDBRANCH   5  22
BRANCH  10  25
ATOM     25  C   UNL     1      34.242  -8.648 -23.285  0.00  0.00    +0.017 C 
BRANCH  25  26
ATOM     26  C   UNL     1      34.524  -7.504 -24.252  0.00  0.00    +0.001 C 
ATOM     27  C   UNL     1      33.351  -6.539 -24.320  0.00  0.00    +0.000 C 
ENDBRANCH  25  26
ENDBRANCH  10  25
TORSDOF 5
ENDMDL
MODEL 2
REMARK VINA RESULT:      -9.4     10.359     14.261
REMARK  Name = 70691449
REMARK  5 active torsions:
REMARK  status: ('A' for Active; 'I' for Inactive)
REMARK    1  A    between atoms: N_5  and  C_22
REMARK    2  A    between atoms: C_6  and  C_20
REMARK    3  A    between atoms: C_10  and  C_25
REMARK    4  A    between atoms: C_22  and  C_23
REMARK    5  A    between atoms: C_25  and  C_26
REMARK                            x       y       z     vdW  Elec       q    Type
REMARK                         _______ _______ _______ _____ _____    ______ ____
ROOT
ATOM      1  O   UNL     1      32.013 -23.210 -12.998  0.00  0.00    -0.289 OA
ATOM      2  O   UNL     1      30.984 -22.623 -17.633  0.00  0.00    -0.274 OA
ATOM      3  N   UNL     1      34.790 -23.732 -13.964  0.00  0.00    -0.315 N 
ATOM      4  N   UNL     1      35.369 -23.695 -16.114  0.00  0.00    -0.306 N 
ATOM      5  N   UNL     1      33.150 -23.168 -17.021  0.00  0.00    -0.246 N 
ATOM      6  C   UNL     1      35.798 -23.870 -14.882  0.00  0.00    +0.145 C 
ATOM      7  C   UNL     1      33.649 -23.456 -14.661  0.00  0.00    +0.109 C 
ATOM      8  C   UNL     1      34.029 -23.436 -15.977  0.00  0.00    +0.120 C 
ATOM      9  C   UNL     1      32.327 -23.225 -14.185  0.00  0.00    +0.197 C 
ATOM     10  C   UNL     1      31.303 -23.014 -15.294  0.00  0.00    +0.140 C 
ATOM     11  C   UNL     1      31.802 -22.913 -16.750  0.00  0.00    +0.237 C 
ATOM     12  H   UNL     1      34.873 -23.817 -12.987  0.00  0.00    +0.148 HD
ATOM     13  H   UNL     1      35.892 -23.740 -16.946  0.00  0.00    +0.149 HD
ENDROOT
BRANCH   6  20
ATOM     14  O   UNL     1      40.069 -26.462 -14.141  0.00  0.00    -0.354 OA
ATOM     15  C   UNL     1      37.872 -25.504 -14.977  0.00  0.00    +0.033 C 
ATOM     16  C   UNL     1      39.373 -25.362 -14.735  0.00  0.00    +0.142 C 
ATOM     17  C   UNL     1      39.514 -25.486 -13.254  0.00  0.00    +0.142 C 
ATOM     18  C   UNL     1      38.095 -25.708 -12.759  0.00  0.00    +0.030 C 
ATOM     19  C   UNL     1      37.444 -26.516 -13.893  0.00  0.00    +0.005 C 
ATOM     20  C   UNL     1      37.216 -24.186 -14.452  0.00  0.00    +0.040 C 
ATOM     21  C   UNL     1      37.336 -24.368 -12.901  0.00  0.00    +0.006 C 
ENDBRANCH   6  20
BRANCH   5  22
ATOM     22  C   UNL     1      33.651 -23.132 -18.391  0.00  0.00    +0.099 C 
BRANCH  22  23
ATOM     23  C   UNL     1      34.202 -21.763 -18.770  0.00  0.00    +0.022 C 
ATOM     24  C   UNL     1      33.345 -21.051 -19.809  0.00  0.00    +0.002 C 
ENDBRANCH  22  23
ENDBRANCH   5  22
BRANCH  10  25
ATOM     25  C   UNL     1      30.256 -24.124 -15.211  0.00  0.00    +0.017 C 
BRANCH  25  26
ATOM     26  C   UNL     1      28.847 -23.567 -15.392  0.00  0.00    +0.001 C 
ATOM     27  C   UNL     1      28.210 -24.088 -16.670  0.00  0.00    +0.000 C 
ENDBRANCH  25  26
ENDBRANCH  10  25
TORSDOF 5
ENDMDL
MODEL 3
REMARK VINA RESULT:      -9.2      8.106     11.092
REMARK  Name = 70691449
REMARK  5 active torsions:
REMARK  status: ('A' for Active; 'I' for Inactive)
REMARK    1  A    between atoms: N_5  and  C_22
REMARK    2  A    between atoms: C_6  and  C_20
REMARK    3  A    between atoms: C_10  and  C_25
REMARK    4  A    between atoms: C_22  and  C_23
REMARK    5  A    between atoms: C_25  and  C_26
REMARK                            x       y       z     vdW  Elec       q    Type
REMARK                         _______ _______ _______ _____ _____    ______ ____
ROOT
ATOM      1  O   UNL     1      32.213 -19.922 -20.600  0.00  0.00    -0.289 OA
ATOM      2  O   UNL     1      36.988 -19.814 -20.333  0.00  0.00    -0.274 OA
ATOM      3  N   UNL     1      32.419 -22.046 -18.511  0.00  0.00    -0.315 N 
ATOM      4  N   UNL     1      34.356 -22.759 -17.673  0.00  0.00    -0.306 N 
ATOM      5  N   UNL     1      35.820 -21.309 -19.006  0.00  0.00    -0.246 N 
ATOM      6  C   UNL     1      33.046 -22.887 -17.630  0.00  0.00    +0.145 C 
ATOM      7  C   UNL     1      33.396 -21.342 -19.155  0.00  0.00    +0.109 C 
ATOM      8  C   UNL     1      34.575 -21.795 -18.623  0.00  0.00    +0.120 C 
ATOM      9  C   UNL     1      33.281 -20.342 -20.163  0.00  0.00    +0.197 C 
ATOM     10  C   UNL     1      34.622 -19.838 -20.683  0.00  0.00    +0.140 C 
ATOM     11  C   UNL     1      35.912 -20.316 -19.987  0.00  0.00    +0.237 C 
ATOM     12  H   UNL     1      31.449 -21.964 -18.652  0.00  0.00    +0.148 HD
ATOM     13  H   UNL     1      35.026 -23.245 -17.142  0.00  0.00    +0.149 HD
ENDROOT
BRANCH   6  20
ATOM     14  O   UNL     1      29.401 -24.596 -14.580  0.00  0.00    -0.354 OA
ATOM     15  C   UNL     1      30.806 -23.412 -16.331  0.00  0.00    +0.033 C 
ATOM     16  C   UNL     1      30.130 -24.677 -15.808  0.00  0.00    +0.142 C 
ATOM     17  C   UNL     1      30.791 -24.924 -14.493  0.00  0.00    +0.142 C 
ATOM     18  C   UNL     1      31.779 -23.779 -14.350  0.00  0.00    +0.030 C 
ATOM     19  C   UNL     1      31.068 -22.605 -15.043  0.00  0.00    +0.005 C 
ATOM     20  C   UNL     1      32.256 -23.827 -16.742  0.00  0.00    +0.040 C 
ATOM     21  C   UNL     1      32.935 -24.031 -15.346  0.00  0.00    +0.006 C 
ENDBRANCH   6  20
BRANCH   5  22
ATOM     22  C   UNL     1      37.022 -21.826 -18.359  0.00  0.00    +0.099 C 
BRANCH  22  23
ATOM     23  C   UNL     1      37.193 -21.290 -16.942  0.00  0.00    +0.022 C 
ATOM     24  C   UNL     1      37.418 -22.396 -15.919  0.00  0.00    +0.002 C 
ENDBRANCH  22  23
ENDBRANCH   5  22
BRANCH  10  25
ATOM     25  C   UNL     1      34.721 -20.160 -22.174  0.00  0.00    +0.017 C 
BRANCH  25  26
ATOM     26  C   UNL     1      34.942 -18.896 -22.998  0.00  0.00    +0.001 C 
ATOM     27  C   UNL     1      34.632 -19.135 -24.467  0.00  0.00    +0.000 C 
ENDBRANCH  25  26
ENDBRANCH  10  25
TORSDOF 5
ENDMDL
MODEL 4
REMARK VINA RESULT:      -9.1      2.326      8.186
REMARK  Name = 70691449
REMARK  5 active torsions:
REMARK  status: ('A' for Active; 'I' for Inactive)
REMARK    1  A    between atoms: N_5  and  C_22
REMARK    2  A    between atoms: C_6  and  C_20
REMARK    3  A    between atoms: C_10  and  C_25
REMARK    4  A    between atoms: C_22  and  C_23
REMARK    5  A    between atoms: C_25  and  C_26
REMARK                            x       y       z     vdW  Elec       q    Type
REMARK                         _______ _______ _______ _____ _____    ______ ____
ROOT
ATOM      1  O   UNL     1      30.999 -12.191 -20.502  0.00  0.00    -0.289 OA
ATOM      2  O   UNL     1      33.431 -14.421 -23.965  0.00  0.00    -0.274 OA
ATOM      3  N   UNL     1      31.849  -9.690 -21.894  0.00  0.00    -0.315 N 
ATOM      4  N   UNL     1      33.105  -9.675 -23.733  0.00  0.00    -0.306 N 
ATOM      5  N   UNL     1      33.367 -12.106 -23.945  0.00  0.00    -0.246 N 
ATOM      6  C   UNL     1      32.465  -8.932 -22.855  0.00  0.00    +0.145 C 
ATOM      7  C   UNL     1      32.121 -10.996 -22.180  0.00  0.00    +0.109 C 
ATOM      8  C   UNL     1      32.891 -10.963 -23.313  0.00  0.00    +0.120 C 
ATOM      9  C   UNL     1      31.721 -12.180 -21.495  0.00  0.00    +0.197 C 
ATOM     10  C   UNL     1      32.290 -13.459 -22.095  0.00  0.00    +0.140 C 
ATOM     11  C   UNL     1      33.074 -13.369 -23.420  0.00  0.00    +0.237 C 
ATOM     12  H   UNL     1      31.313  -9.355 -21.139  0.00  0.00    +0.148 HD
ATOM     13  H   UNL     1      33.621  -9.374 -24.515  0.00  0.00    +0.149 HD
ENDROOT
BRANCH   6  20
ATOM     14  O   UNL     1      30.565  -4.286 -23.421  0.00  0.00    -0.354 OA
ATOM     15  C   UNL     1      30.967  -6.763 -23.036  0.00  0.00    +0.033 C 
ATOM     16  C   UNL     1      31.107  -5.311 -22.582  0.00  0.00    +0.142 C 
ATOM     17  C   UNL     1      31.922  -4.673 -23.657  0.00  0.00    +0.142 C 
ATOM     18  C   UNL     1      32.174  -5.793 -24.651  0.00  0.00    +0.030 C 
ATOM     19  C   UNL     1      30.892  -6.637 -24.572  0.00  0.00    +0.005 C 
ATOM     20  C   UNL     1      32.372  -7.420 -22.843  0.00  0.00    +0.040 C 
ATOM     21  C   UNL     1      33.189  -6.769 -24.010  0.00  0.00    +0.006 C 
ENDBRANCH   6  20
BRANCH   5  22
ATOM     22  C   UNL     1      34.150 -11.976 -25.170  0.00  0.00    +0.099 C 
BRANCH  22  23
ATOM     23  C   UNL     1      33.291 -12.096 -26.423  0.00  0.00    +0.022 C 
ATOM     24  C   UNL     1      33.608 -13.344 -27.237  0.00  0.00    +0.002 C 
ENDBRANCH  22  23
ENDBRANCH   5  22
BRANCH  10  25
ATOM     25  C   UNL     1      33.172 -14.140 -21.049  0.00  0.00    +0.017 C 
BRANCH  25  26
ATOM     26  C   UNL     1      32.779 -15.602 -20.864  0.00  0.00    +0.001 C 
ATOM     27  C   UNL     1      33.956 -16.526 -21.129  0.00  0.00    +0.000 C 
ENDBRANCH  25  26
ENDBRANCH  10  25
TORSDOF 5
ENDMDL
MODEL 5
REMARK VINA RESULT:      -9.0      2.129      7.651
REMARK  Name = 70691449
REMARK  5 active torsions:
REMARK  status: ('A' for Active; 'I' for Inactive)
REMARK    1  A    between atoms: N_5  and  C_22
REMARK    2  A    between atoms: C_6  and  C_20
REMARK    3  A    between atoms: C_10  and  C_25
REMARK    4  A    between atoms: C_22  and  C_23
REMARK    5  A    between atoms: C_25  and  C_26
REMARK                            x       y       z     vdW  Elec       q    Type
REMARK                         _______ _______ _______ _____ _____    ______ ____
ROOT
ATOM      1  O   UNL     1      32.349 -14.940 -19.953  0.00  0.00    -0.289 OA
ATOM      2  O   UNL     1      34.270 -16.446 -24.067  0.00  0.00    -0.274 OA
ATOM      3  N   UNL     1      32.046 -12.329 -21.370  0.00  0.00    -0.315 N 
ATOM      4  N   UNL     1      32.695 -11.991 -23.473  0.00  0.00    -0.306 N 
ATOM      5  N   UNL     1      33.564 -14.247 -23.893  0.00  0.00    -0.246 N 
ATOM      6  C   UNL     1      32.136 -11.445 -22.413  0.00  0.00    +0.145 C 
ATOM      7  C   UNL     1      32.586 -13.508 -21.796  0.00  0.00    +0.109 C 
ATOM      8  C   UNL     1      32.976 -13.277 -23.089  0.00  0.00    +0.120 C 
ATOM      9  C   UNL     1      32.738 -14.742 -21.101  0.00  0.00    +0.197 C 
ATOM     10  C   UNL     1      33.459 -15.816 -21.907  0.00  0.00    +0.140 C 
ATOM     11  C   UNL     1      33.793 -15.530 -23.385  0.00  0.00    +0.237 C 
ATOM     12  H   UNL     1      31.664 -12.147 -20.481  0.00  0.00    +0.148 HD
ATOM     13  H   UNL     1      32.872 -11.570 -24.345  0.00  0.00    +0.149 HD
ENDROOT
BRANCH   6  20
ATOM     14  O   UNL     1      31.640  -6.488 -23.245  0.00  0.00    -0.354 OA
ATOM     15  C   UNL     1      32.035  -8.992 -23.388  0.00  0.00    +0.033 C 
ATOM     16  C   UNL     1      31.084  -7.807 -23.237  0.00  0.00    +0.142 C 
ATOM     17  C   UNL     1      31.531  -7.142 -21.978  0.00  0.00    +0.142 C 
ATOM     18  C   UNL     1      32.710  -7.979 -21.511  0.00  0.00    +0.030 C 
ATOM     19  C   UNL     1      33.361  -8.442 -22.823  0.00  0.00    +0.005 C 
ATOM     20  C   UNL     1      31.628 -10.024 -22.287  0.00  0.00    +0.040 C 
ATOM     21  C   UNL     1      32.152  -9.323 -20.988  0.00  0.00    +0.006 C 
ENDBRANCH   6  20
BRANCH   5  22
ATOM     22  C   UNL     1      33.914 -13.922 -25.272  0.00  0.00    +0.099 C 
BRANCH  22  23
ATOM     23  C   UNL     1      32.788 -14.247 -26.247  0.00  0.00    +0.022 C 
ATOM     24  C   UNL     1      32.702 -13.253 -27.398  0.00  0.00    +0.002 C 
ENDBRANCH  22  23
ENDBRANCH   5  22
BRANCH  10  25
ATOM     25  C   UNL     1      34.748 -16.193 -21.176  0.00  0.00    +0.017 C 
BRANCH  25  26
ATOM     26  C   UNL     1      34.850 -17.702 -20.984  0.00  0.00    +0.001 C 
ATOM     27  C   UNL     1      36.043 -18.272 -21.734  0.00  0.00    +0.000 C 
ENDBRANCH  25  26
ENDBRANCH  10  25
TORSDOF 5
ENDMDL
MODEL 6
REMARK VINA RESULT:      -8.7      7.394     12.138
REMARK  Name = 70691449
REMARK  5 active torsions:
REMARK  status: ('A' for Active; 'I' for Inactive)
REMARK    1  A    between atoms: N_5  and  C_22
REMARK    2  A    between atoms: C_6  and  C_20
REMARK    3  A    between atoms: C_10  and  C_25
REMARK    4  A    between atoms: C_22  and  C_23
REMARK    5  A    between atoms: C_25  and  C_26
REMARK                            x       y       z     vdW  Elec       q    Type
REMARK                         _______ _______ _______ _____ _____    ______ ____
ROOT
ATOM      1  O   UNL     1      38.078 -21.346 -16.288  0.00  0.00    -0.289 OA
ATOM      2  O   UNL     1      34.406 -24.117 -14.978  0.00  0.00    -0.274 OA
ATOM      3  N   UNL     1      36.500 -20.908 -18.785  0.00  0.00    -0.315 N 
ATOM      4  N   UNL     1      34.512 -21.841 -19.160  0.00  0.00    -0.306 N 
ATOM      5  N   UNL     1      34.353 -23.083 -17.049  0.00  0.00    -0.246 N 
ATOM      6  C   UNL     1      35.440 -21.041 -19.643  0.00  0.00    +0.145 C 
ATOM      7  C   UNL     1      36.226 -21.676 -17.690  0.00  0.00    +0.109 C 
ATOM      8  C   UNL     1      35.002 -22.236 -17.941  0.00  0.00    +0.120 C 
ATOM      9  C   UNL     1      36.999 -21.887 -16.512  0.00  0.00    +0.197 C 
ATOM     10  C   UNL     1      36.375 -22.878 -15.537  0.00  0.00    +0.140 C 
ATOM     11  C   UNL     1      34.956 -23.407 -15.830  0.00  0.00    +0.237 C 
ATOM     12  H   UNL     1      37.306 -20.362 -18.931  0.00  0.00    +0.148 HD
ATOM     13  H   UNL     1      33.660 -22.096 -19.579  0.00  0.00    +0.149 HD
ENDROOT
BRANCH   6  20
ATOM     14  O   UNL     1      36.056 -17.393 -23.082  0.00  0.00    -0.354 OA
ATOM     15  C   UNL     1      36.215 -18.986 -21.112  0.00  0.00    +0.033 C 
ATOM     16  C   UNL     1      36.341 -18.713 -22.609  0.00  0.00    +0.142 C 
ATOM     17  C   UNL     1      34.963 -18.315 -23.022  0.00  0.00    +0.142 C 
ATOM     18  C   UNL     1      34.156 -18.371 -21.736  0.00  0.00    +0.030 C 
ATOM     19  C   UNL     1      35.168 -17.947 -20.660  0.00  0.00    +0.005 C 
ATOM     20  C   UNL     1      35.411 -20.320 -20.975  0.00  0.00    +0.040 C 
ATOM     21  C   UNL     1      33.966 -19.861 -21.366  0.00  0.00    +0.006 C 
ENDBRANCH   6  20
BRANCH   5  22
ATOM     22  C   UNL     1      33.032 -23.605 -17.386  0.00  0.00    +0.099 C 
BRANCH  22  23
ATOM     23  C   UNL     1      31.909 -22.700 -16.895  0.00  0.00    +0.022 C 
ATOM     24  C   UNL     1      31.071 -23.344 -15.798  0.00  0.00    +0.002 C 
ENDBRANCH  22  23
ENDBRANCH   5  22
BRANCH  10  25
ATOM     25  C   UNL     1      37.320 -24.069 -15.378  0.00  0.00    +0.017 C 
BRANCH  25  26
ATOM     26  C   UNL     1      37.754 -24.237 -13.926  0.00  0.00    +0.001 C 
ATOM     27  C   UNL     1      38.425 -25.584 -13.705  0.00  0.00    +0.000 C 
ENDBRANCH  25  26
ENDBRANCH  10  25
TORSDOF 5
ENDMDL
MODEL 7
REMARK VINA RESULT:      -8.7      2.743      7.871
REMARK  Name = 70691449
REMARK  5 active torsions:
REMARK  status: ('A' for Active; 'I' for Inactive)
REMARK    1  A    between atoms: N_5  and  C_22
REMARK    2  A    between atoms: C_6  and  C_20
REMARK    3  A    between atoms: C_10  and  C_25
REMARK    4  A    between atoms: C_22  and  C_23
REMARK    5  A    between atoms: C_25  and  C_26
REMARK                            x       y       z     vdW  Elec       q    Type
REMARK                         _______ _______ _______ _____ _____    ______ ____
ROOT
ATOM      1  O   UNL     1      34.677 -11.258 -25.077  0.00  0.00    -0.289 OA
ATOM      2  O   UNL     1      32.022 -13.563 -21.833  0.00  0.00    -0.274 OA
ATOM      3  N   UNL     1      33.372  -8.800 -23.994  0.00  0.00    -0.315 N 
ATOM      4  N   UNL     1      31.870  -8.831 -22.350  0.00  0.00    -0.306 N 
ATOM      5  N   UNL     1      31.840 -11.260 -22.006  0.00  0.00    -0.246 N 
ATOM      6  C   UNL     1      32.547  -8.067 -23.182  0.00  0.00    +0.145 C 
ATOM      7  C   UNL     1      33.203 -10.112 -23.657  0.00  0.00    +0.109 C 
ATOM      8  C   UNL     1      32.279 -10.106 -22.645  0.00  0.00    +0.120 C 
ATOM      9  C   UNL     1      33.822 -11.276 -24.195  0.00  0.00    +0.197 C 
ATOM     10  C   UNL     1      33.312 -12.579 -23.591  0.00  0.00    +0.140 C 
ATOM     11  C   UNL     1      32.340 -12.507 -22.397  0.00  0.00    +0.237 C 
ATOM     12  H   UNL     1      33.973  -8.447 -24.689  0.00  0.00    +0.148 HD
ATOM     13  H   UNL     1      31.217  -8.549 -21.670  0.00  0.00    +0.149 HD
ENDROOT
BRANCH   6  20
ATOM     14  O   UNL     1      30.625  -3.427 -23.719  0.00  0.00    -0.354 OA
ATOM     15  C   UNL     1      31.075  -5.874 -23.212  0.00  0.00    +0.033 C 
ATOM     16  C   UNL     1      31.333  -4.394 -22.937  0.00  0.00    +0.142 C 
ATOM     17  C   UNL     1      31.887  -3.877 -24.223  0.00  0.00    +0.142 C 
ATOM     18  C   UNL     1      31.889  -5.086 -25.142  0.00  0.00    +0.030 C 
ATOM     19  C   UNL     1      30.649  -5.878 -24.695  0.00  0.00    +0.005 C 
ATOM     20  C   UNL     1      32.479  -6.557 -23.287  0.00  0.00    +0.040 C 
ATOM     21  C   UNL     1      33.012  -6.036 -24.664  0.00  0.00    +0.006 C 
ENDBRANCH   6  20
BRANCH   5  22
ATOM     22  C   UNL     1      30.879 -11.155 -20.913  0.00  0.00    +0.099 C 
BRANCH  22  23
ATOM     23  C   UNL     1      31.418 -10.341 -19.743  0.00  0.00    +0.022 C 
ATOM     24  C   UNL     1      31.283 -11.065 -18.410  0.00  0.00    +0.002 C 
ENDBRANCH  22  23
ENDBRANCH   5  22
BRANCH  10  25
ATOM     25  C   UNL     1      32.668 -13.412 -24.699  0.00  0.00    +0.017 C 
BRANCH  25  26
ATOM     26  C   UNL     1      33.354 -14.768 -24.837  0.00  0.00    +0.001 C 
ATOM     27  C   UNL     1      33.196 -15.323 -26.243  0.00  0.00    +0.000 C 
ENDBRANCH  25  26
ENDBRANCH  10  25
TORSDOF 5
ENDMDL
MODEL 8
REMARK VINA RESULT:      -8.6      8.349     12.140
REMARK  Name = 70691449
REMARK  5 active torsions:
REMARK  status: ('A' for Active; 'I' for Inactive)
REMARK    1  A    between atoms: N_5  and  C_22
REMARK    2  A    between atoms: C_6  and  C_20
REMARK    3  A    between atoms: C_10  and  C_25
REMARK    4  A    between atoms: C_22  and  C_23
REMARK    5  A    between atoms: C_25  and  C_26
REMARK                            x       y       z     vdW  Elec       q    Type
REMARK                         _______ _______ _______ _____ _____    ______ ____
ROOT
ATOM      1  O   UNL     1      37.224 -20.789 -19.710  0.00  0.00    -0.289 OA
ATOM      2  O   UNL     1      32.636 -22.072 -20.141  0.00  0.00    -0.274 OA
ATOM      3  N   UNL     1      37.092 -22.219 -17.091  0.00  0.00    -0.315 N 
ATOM      4  N   UNL     1      35.253 -23.220 -16.331  0.00  0.00    -0.306 N 
ATOM      5  N   UNL     1      33.796 -22.668 -18.227  0.00  0.00    -0.246 N 
ATOM      6  C   UNL     1      36.518 -22.950 -16.084  0.00  0.00    +0.145 C 
ATOM      7  C   UNL     1      36.126 -22.010 -18.034  0.00  0.00    +0.109 C 
ATOM      8  C   UNL     1      35.008 -22.634 -17.547  0.00  0.00    +0.120 C 
ATOM      9  C   UNL     1      36.201 -21.310 -19.273  0.00  0.00    +0.197 C 
ATOM     10  C   UNL     1      34.875 -21.240 -20.019  0.00  0.00    +0.140 C 
ATOM     11  C   UNL     1      33.674 -22.035 -19.469  0.00  0.00    +0.237 C 
ATOM     12  H   UNL     1      38.024 -21.904 -17.128  0.00  0.00    +0.148 HD
ATOM     13  H   UNL     1      34.625 -23.727 -15.769  0.00  0.00    +0.149 HD
ENDROOT
BRANCH   6  20
ATOM     14  O   UNL     1      38.861 -25.896 -12.717  0.00  0.00    -0.354 OA
ATOM     15  C   UNL     1      37.834 -24.834 -14.781  0.00  0.00    +0.033 C 
ATOM     16  C   UNL     1      38.904 -24.849 -13.692  0.00  0.00    +0.142 C 
ATOM     17  C   UNL     1      38.132 -24.700 -12.423  0.00  0.00    +0.142 C 
ATOM     18  C   UNL     1      36.683 -24.629 -12.873  0.00  0.00    +0.030 C 
ATOM     19  C   UNL     1      36.645 -25.547 -14.104  0.00  0.00    +0.005 C 
ATOM     20  C   UNL     1      37.311 -23.363 -14.862  0.00  0.00    +0.040 C 
ATOM     21  C   UNL     1      36.469 -23.253 -13.546  0.00  0.00    +0.006 C 
ENDBRANCH   6  20
BRANCH   5  22
ATOM     22  C   UNL     1      32.667 -23.388 -17.648  0.00  0.00    +0.099 C 
BRANCH  22  23
ATOM     23  C   UNL     1      31.768 -22.482 -16.814  0.00  0.00    +0.022 C 
ATOM     24  C   UNL     1      31.030 -23.236 -15.715  0.00  0.00    +0.002 C 
ENDBRANCH  22  23
ENDBRANCH   5  22
BRANCH  10  25
ATOM     25  C   UNL     1      34.469 -19.773 -20.159  0.00  0.00    +0.017 C 
BRANCH  25  26
ATOM     26  C   UNL     1      34.484 -19.334 -21.619  0.00  0.00    +0.001 C 
ATOM     27  C   UNL     1      35.656 -18.409 -21.904  0.00  0.00    +0.000 C 
ENDBRANCH  25  26
ENDBRANCH  10  25
TORSDOF 5
ENDMDL
MODEL 9
REMARK VINA RESULT:      -7.7      1.604      3.340
REMARK  Name = 70691449
REMARK  5 active torsions:
REMARK  status: ('A' for Active; 'I' for Inactive)
REMARK    1  A    between atoms: N_5  and  C_22
REMARK    2  A    between atoms: C_6  and  C_20
REMARK    3  A    between atoms: C_10  and  C_25
REMARK    4  A    between atoms: C_22  and  C_23
REMARK    5  A    between atoms: C_25  and  C_26
REMARK                            x       y       z     vdW  Elec       q    Type
REMARK                         _______ _______ _______ _____ _____    ______ ____
ROOT
ATOM      1  O   UNL     1      30.699 -10.348 -21.312  0.00  0.00    -0.289 OA
ATOM      2  O   UNL     1      33.919  -7.940 -23.902  0.00  0.00    -0.274 OA
ATOM      3  N   UNL     1      32.205 -12.770 -22.197  0.00  0.00    -0.315 N 
ATOM      4  N   UNL     1      33.990 -12.687 -23.527  0.00  0.00    -0.306 N 
ATOM      5  N   UNL     1      34.043 -10.251 -23.818  0.00  0.00    -0.246 N 
ATOM      6  C   UNL     1      33.185 -13.475 -22.845  0.00  0.00    +0.145 C 
ATOM      7  C   UNL     1      32.400 -11.452 -22.492  0.00  0.00    +0.109 C 
ATOM      8  C   UNL     1      33.501 -11.425 -23.307  0.00  0.00    +0.120 C 
ATOM      9  C   UNL     1      31.661 -10.308 -22.073  0.00  0.00    +0.197 C 
ATOM     10  C   UNL     1      32.159  -9.000 -22.678  0.00  0.00    +0.140 C 
ATOM     11  C   UNL     1      33.454  -9.019 -23.514  0.00  0.00    +0.237 C 
ATOM     12  H   UNL     1      31.495 -13.144 -21.628  0.00  0.00    +0.148 HD
ATOM     13  H   UNL     1      34.767 -12.946 -24.072  0.00  0.00    +0.149 HD
ENDROOT
BRANCH   6  20
ATOM     14  O   UNL     1      33.847 -18.066 -20.845  0.00  0.00    -0.354 OA
ATOM     15  C   UNL     1      33.339 -15.623 -21.315  0.00  0.00    +0.033 C 
ATOM     16  C   UNL     1      33.009 -17.104 -21.493  0.00  0.00    +0.142 C 
ATOM     17  C   UNL     1      34.215 -17.665 -22.169  0.00  0.00    +0.142 C 
ATOM     18  C   UNL     1      35.151 -16.477 -22.312  0.00  0.00    +0.030 C 
ATOM     19  C   UNL     1      34.860 -15.640 -21.057  0.00  0.00    +0.005 C 
ATOM     20  C   UNL     1      33.269 -14.984 -22.740  0.00  0.00    +0.040 C 
ATOM     21  C   UNL     1      34.568 -15.551 -23.405  0.00  0.00    +0.006 C 
ENDBRANCH   6  20
BRANCH   5  22
ATOM     22  C   UNL     1      35.241 -10.315 -24.650  0.00  0.00    +0.099 C 
BRANCH  22  23
ATOM     23  C   UNL     1      34.950 -10.863 -26.043  0.00  0.00    +0.022 C 
ATOM     24  C   UNL     1      36.017 -10.479 -27.059  0.00  0.00    +0.002 C 
ENDBRANCH  22  23
ENDBRANCH   5  22
BRANCH  10  25
ATOM     25  C   UNL     1      31.038  -8.394 -23.522  0.00  0.00    +0.017 C 
BRANCH  25  26
ATOM     26  C   UNL     1      30.772  -6.946 -23.124  0.00  0.00    +0.001 C 
ATOM     27  C   UNL     1      31.079  -5.996 -24.271  0.00  0.00    +0.000 C 
ENDBRANCH  25  26
ENDBRANCH  10  25
TORSDOF 5
ENDMDL
