MODEL 1
REMARK VINA RESULT:     -10.3      0.000      0.000
REMARK  Name = 4477
REMARK  4 active torsions:
REMARK  status: ('A' for Active; 'I' for Inactive)
REMARK    1  A    between atoms: N_2  and  C_6
REMARK    2  A    between atoms: C_3  and  C_16
REMARK    3  A    between atoms: C_9  and  N_14
REMARK    4  A    between atoms: C_17  and  O_22
REMARK                            x       y       z     vdW  Elec       q    Type
REMARK                         _______ _______ _______ _____ _____    ______ ____
ROOT
ATOM      1  O   UNL     1      34.933 -16.222 -20.084  0.00  0.00    -0.270 OA
ATOM      2  N   UNL     1      33.822 -17.651 -21.556  0.00  0.00    -0.280 N 
ATOM      3  C   UNL     1      34.267 -16.401 -21.110  0.00  0.00    +0.252 C 
ATOM      4  H   UNL     1      33.300 -17.649 -22.391  0.00  0.00    +0.155 HD
ENDROOT
BRANCH   2   6
ATOM      5 CL   UNL     1      36.679 -18.691 -21.572  0.00  0.00    -0.081 Cl
ATOM      6  C   UNL     1      34.028 -18.918 -20.957  0.00  0.00    +0.061 C 
ATOM      7  C   UNL     1      35.293 -19.483 -20.912  0.00  0.00    +0.073 C 
ATOM      8  C   UNL     1      32.929 -19.569 -20.422  0.00  0.00    +0.017 C 
ATOM      9  C   UNL     1      34.364 -21.401 -19.773  0.00  0.00    +0.144 C 
ATOM     10  C   UNL     1      35.462 -20.732 -20.316  0.00  0.00    +0.037 C 
ATOM     11  C   UNL     1      33.097 -20.820 -19.827  0.00  0.00    +0.025 C 
BRANCH   9  14
ATOM     12  O   UNL     1      35.129 -22.742 -18.065  0.00  0.00    -0.126 OA
ATOM     13  O   UNL     1      34.086 -23.686 -19.755  0.00  0.00    -0.126 OA
ATOM     14  N   UNL     1      34.535 -22.673 -19.167  0.00  0.00    +0.058 N 
ENDBRANCH   9  14
ENDBRANCH   2   6
BRANCH   3  16
ATOM     15 CL   UNL     1      31.469 -12.129 -21.839  0.00  0.00    -0.082 Cl
ATOM     16  C   UNL     1      33.924 -15.284 -21.979  0.00  0.00    +0.088 C 
ATOM     17  C   UNL     1      34.531 -15.137 -23.227  0.00  0.00    +0.138 C 
ATOM     18  C   UNL     1      32.977 -14.354 -21.549  0.00  0.00    +0.019 C 
ATOM     19  C   UNL     1      34.189 -14.060 -24.045  0.00  0.00    +0.038 C 
ATOM     20  C   UNL     1      32.637 -13.277 -22.368  0.00  0.00    +0.058 C 
ATOM     21  C   UNL     1      33.242 -13.130 -23.616  0.00  0.00    +0.015 C 
BRANCH  17  22
ATOM     22  O   UNL     1      35.459 -16.034 -23.664  0.00  0.00    -0.505 OA
ATOM     23  H   UNL     1      35.192 -16.770 -24.179  0.00  0.00    +0.292 HD
ENDBRANCH  17  22
ENDBRANCH   3  16
TORSDOF 4
ENDMDL
MODEL 2
REMARK VINA RESULT:      -9.7      1.618      2.106
REMARK  Name = 4477
REMARK  4 active torsions:
REMARK  status: ('A' for Active; 'I' for Inactive)
REMARK    1  A    between atoms: N_2  and  C_6
REMARK    2  A    between atoms: C_3  and  C_16
REMARK    3  A    between atoms: C_9  and  N_14
REMARK    4  A    between atoms: C_17  and  O_22
REMARK                            x       y       z     vdW  Elec       q    Type
REMARK                         _______ _______ _______ _____ _____    ______ ____
ROOT
ATOM      1  O   UNL     1      35.068 -18.433 -23.732  0.00  0.00    -0.270 OA
ATOM      2  N   UNL     1      34.147 -17.927 -21.649  0.00  0.00    -0.280 N 
ATOM      3  C   UNL     1      34.552 -17.623 -22.954  0.00  0.00    +0.252 C 
ATOM      4  H   UNL     1      33.750 -17.185 -21.138  0.00  0.00    +0.155 HD
ENDROOT
BRANCH   2   6
ATOM      5 CL   UNL     1      36.956 -18.929 -21.062  0.00  0.00    -0.081 Cl
ATOM      6  C   UNL     1      34.238 -19.168 -20.971  0.00  0.00    +0.061 C 
ATOM      7  C   UNL     1      35.472 -19.714 -20.657  0.00  0.00    +0.073 C 
ATOM      8  C   UNL     1      33.058 -19.812 -20.638  0.00  0.00    +0.017 C 
ATOM      9  C   UNL     1      34.347 -21.599 -19.647  0.00  0.00    +0.144 C 
ATOM     10  C   UNL     1      35.526 -20.938 -19.990  0.00  0.00    +0.037 C 
ATOM     11  C   UNL     1      33.112 -21.037 -19.972  0.00  0.00    +0.025 C 
BRANCH   9  14
ATOM     12  O   UNL     1      34.916 -22.890 -17.828  0.00  0.00    -0.126 OA
ATOM     13  O   UNL     1      33.933 -23.862 -19.539  0.00  0.00    -0.126 OA
ATOM     14  N   UNL     1      34.401 -22.846 -18.971  0.00  0.00    +0.058 N 
ENDBRANCH   9  14
ENDBRANCH   2   6
BRANCH   3  16
ATOM     15 CL   UNL     1      33.103 -14.417 -26.727  0.00  0.00    -0.082 Cl
ATOM     16  C   UNL     1      34.282 -16.256 -23.376  0.00  0.00    +0.088 C 
ATOM     17  C   UNL     1      34.427 -15.192 -22.485  0.00  0.00    +0.138 C 
ATOM     18  C   UNL     1      33.873 -16.017 -24.688  0.00  0.00    +0.019 C 
ATOM     19  C   UNL     1      34.163 -13.889 -22.907  0.00  0.00    +0.038 C 
ATOM     20  C   UNL     1      33.609 -14.714 -25.109  0.00  0.00    +0.058 C 
ATOM     21  C   UNL     1      33.754 -13.649 -24.219  0.00  0.00    +0.015 C 
BRANCH  17  22
ATOM     22  O   UNL     1      34.824 -15.405 -21.199  0.00  0.00    -0.505 OA
ATOM     23  H   UNL     1      35.399 -16.118 -20.998  0.00  0.00    +0.292 HD
ENDBRANCH  17  22
ENDBRANCH   3  16
TORSDOF 4
ENDMDL
MODEL 3
REMARK VINA RESULT:      -9.7      1.689      2.062
REMARK  Name = 4477
REMARK  4 active torsions:
REMARK  status: ('A' for Active; 'I' for Inactive)
REMARK    1  A    between atoms: N_2  and  C_6
REMARK    2  A    between atoms: C_3  and  C_16
REMARK    3  A    between atoms: C_9  and  N_14
REMARK    4  A    between atoms: C_17  and  O_22
REMARK                            x       y       z     vdW  Elec       q    Type
REMARK                         _______ _______ _______ _____ _____    ______ ____
ROOT
ATOM      1  O   UNL     1      35.149 -17.192 -20.651  0.00  0.00    -0.270 OA
ATOM      2  N   UNL     1      34.286 -19.092 -21.695  0.00  0.00    -0.280 N 
ATOM      3  C   UNL     1      34.653 -17.742 -21.640  0.00  0.00    +0.252 C 
ATOM      4  H   UNL     1      33.900 -19.399 -22.547  0.00  0.00    +0.155 HD
ENDROOT
BRANCH   2   6
ATOM      5 CL   UNL     1      37.110 -19.747 -20.778  0.00  0.00    -0.081 Cl
ATOM      6  C   UNL     1      34.400 -20.072 -20.677  0.00  0.00    +0.061 C 
ATOM      7  C   UNL     1      35.642 -20.443 -20.189  0.00  0.00    +0.073 C 
ATOM      8  C   UNL     1      33.235 -20.642 -20.193  0.00  0.00    +0.017 C 
ATOM      9  C   UNL     1      34.555 -21.995 -18.689  0.00  0.00    +0.144 C 
ATOM     10  C   UNL     1      35.720 -21.411 -19.188  0.00  0.00    +0.037 C 
ATOM     11  C   UNL     1      33.312 -21.611 -19.193  0.00  0.00    +0.025 C 
BRANCH   9  14
ATOM     12  O   UNL     1      33.733 -23.852 -17.605  0.00  0.00    -0.126 OA
ATOM     13  O   UNL     1      35.602 -22.951 -16.875  0.00  0.00    -0.126 OA
ATOM     14  N   UNL     1      34.634 -22.982 -17.672  0.00  0.00    +0.058 N 
ENDBRANCH   9  14
ENDBRANCH   2   6
BRANCH   3  16
ATOM     15 CL   UNL     1      32.874 -13.479 -23.938  0.00  0.00    -0.082 Cl
ATOM     16  C   UNL     1      34.446 -17.001 -22.877  0.00  0.00    +0.088 C 
ATOM     17  C   UNL     1      34.852 -17.530 -24.102  0.00  0.00    +0.138 C 
ATOM     18  C   UNL     1      33.834 -15.749 -22.825  0.00  0.00    +0.019 C 
ATOM     19  C   UNL     1      34.646 -16.806 -25.277  0.00  0.00    +0.038 C 
ATOM     20  C   UNL     1      33.628 -15.025 -24.000  0.00  0.00    +0.058 C 
ATOM     21  C   UNL     1      34.034 -15.553 -25.226  0.00  0.00    +0.015 C 
BRANCH  17  22
ATOM     22  O   UNL     1      35.453 -18.751 -24.173  0.00  0.00    -0.505 OA
ATOM     23  H   UNL     1      35.740 -19.178 -23.390  0.00  0.00    +0.292 HD
ENDBRANCH  17  22
ENDBRANCH   3  16
TORSDOF 4
ENDMDL
MODEL 4
REMARK VINA RESULT:      -9.5      4.969      7.712
REMARK  Name = 4477
REMARK  4 active torsions:
REMARK  status: ('A' for Active; 'I' for Inactive)
REMARK    1  A    between atoms: N_2  and  C_6
REMARK    2  A    between atoms: C_3  and  C_16
REMARK    3  A    between atoms: C_9  and  N_14
REMARK    4  A    between atoms: C_17  and  O_22
REMARK                            x       y       z     vdW  Elec       q    Type
REMARK                         _______ _______ _______ _____ _____    ______ ____
ROOT
ATOM      1  O   UNL     1      34.030 -23.872 -17.830  0.00  0.00    -0.270 OA
ATOM      2  N   UNL     1      35.402 -22.431 -16.611  0.00  0.00    -0.280 N 
ATOM      3  C   UNL     1      34.649 -22.806 -17.730  0.00  0.00    +0.252 C 
ATOM      4  H   UNL     1      35.845 -21.553 -16.665  0.00  0.00    +0.155 HD
ENDROOT
BRANCH   2   6
ATOM      5 CL   UNL     1      38.280 -23.177 -15.974  0.00  0.00    -0.081 Cl
ATOM      6  C   UNL     1      35.608 -23.156 -15.411  0.00  0.00    +0.061 C 
ATOM      7  C   UNL     1      36.881 -23.546 -15.029  0.00  0.00    +0.073 C 
ATOM      8  C   UNL     1      34.499 -23.461 -14.640  0.00  0.00    +0.017 C 
ATOM      9  C   UNL     1      35.942 -24.575 -13.055  0.00  0.00    +0.144 C 
ATOM     10  C   UNL     1      37.049 -24.260 -13.842  0.00  0.00    +0.037 C 
ATOM     11  C   UNL     1      34.666 -24.176 -13.454  0.00  0.00    +0.025 C 
BRANCH   9  14
ATOM     12  O   UNL     1      36.977 -26.210 -11.807  0.00  0.00    -0.126 OA
ATOM     13  O   UNL     1      35.390 -25.015 -10.863  0.00  0.00    -0.126 OA
ATOM     14  N   UNL     1      36.112 -25.303 -11.848  0.00  0.00    +0.058 N 
ENDBRANCH   9  14
ENDBRANCH   2   6
BRANCH   3  16
ATOM     15 CL   UNL     1      37.233 -19.652 -20.889  0.00  0.00    -0.082 Cl
ATOM     16  C   UNL     1      34.599 -21.814 -18.794  0.00  0.00    +0.088 C 
ATOM     17  C   UNL     1      33.379 -21.406 -19.334  0.00  0.00    +0.138 C 
ATOM     18  C   UNL     1      35.791 -21.272 -19.274  0.00  0.00    +0.019 C 
ATOM     19  C   UNL     1      33.352 -20.455 -20.354  0.00  0.00    +0.038 C 
ATOM     20  C   UNL     1      35.763 -20.322 -20.295  0.00  0.00    +0.058 C 
ATOM     21  C   UNL     1      34.544 -19.912 -20.834  0.00  0.00    +0.015 C 
BRANCH  17  22
ATOM     22  O   UNL     1      32.204 -21.924 -18.879  0.00  0.00    -0.505 OA
ATOM     23  H   UNL     1      32.208 -22.694 -18.344  0.00  0.00    +0.292 HD
ENDBRANCH  17  22
ENDBRANCH   3  16
TORSDOF 4
ENDMDL
MODEL 5
REMARK VINA RESULT:      -9.4      8.480     11.050
REMARK  Name = 4477
REMARK  4 active torsions:
REMARK  status: ('A' for Active; 'I' for Inactive)
REMARK    1  A    between atoms: N_2  and  C_6
REMARK    2  A    between atoms: C_3  and  C_16
REMARK    3  A    between atoms: C_9  and  N_14
REMARK    4  A    between atoms: C_17  and  O_22
REMARK                            x       y       z     vdW  Elec       q    Type
REMARK                         _______ _______ _______ _____ _____    ______ ____
ROOT
ATOM      1  O   UNL     1      35.255 -22.379 -14.910  0.00  0.00    -0.270 OA
ATOM      2  N   UNL     1      33.889 -24.243 -14.585  0.00  0.00    -0.280 N 
ATOM      3  C   UNL     1      35.109 -23.555 -14.560  0.00  0.00    +0.252 C 
ATOM      4  H   UNL     1      33.916 -25.178 -14.277  0.00  0.00    +0.155 HD
ENDROOT
BRANCH   2   6
ATOM      5 CL   UNL     1      33.616 -23.551 -17.532  0.00  0.00    -0.081 Cl
ATOM      6  C   UNL     1      32.622 -23.762 -14.998  0.00  0.00    +0.061 C 
ATOM      7  C   UNL     1      32.393 -23.418 -16.320  0.00  0.00    +0.073 C 
ATOM      8  C   UNL     1      31.628 -23.648 -14.040  0.00  0.00    +0.017 C 
ATOM      9  C   UNL     1      30.123 -22.826 -15.740  0.00  0.00    +0.144 C 
ATOM     10  C   UNL     1      31.134 -22.946 -16.694  0.00  0.00    +0.037 C 
ATOM     11  C   UNL     1      30.370 -23.176 -14.413  0.00  0.00    +0.025 C 
BRANCH   9  14
ATOM     12  O   UNL     1      28.093 -21.863 -15.237  0.00  0.00    -0.126 OA
ATOM     13  O   UNL     1      28.504 -22.415 -17.325  0.00  0.00    -0.126 OA
ATOM     14  N   UNL     1      28.842 -22.344 -16.120  0.00  0.00    +0.058 N 
ENDBRANCH   9  14
ENDBRANCH   2   6
BRANCH   3  16
ATOM     15 CL   UNL     1      39.976 -25.151 -15.176  0.00  0.00    -0.082 Cl
ATOM     16  C   UNL     1      36.232 -24.321 -14.037  0.00  0.00    +0.088 C 
ATOM     17  C   UNL     1      36.129 -25.002 -12.824  0.00  0.00    +0.138 C 
ATOM     18  C   UNL     1      37.421 -24.366 -14.765  0.00  0.00    +0.019 C 
ATOM     19  C   UNL     1      37.216 -25.730 -12.339  0.00  0.00    +0.038 C 
ATOM     20  C   UNL     1      38.508 -25.094 -14.280  0.00  0.00    +0.058 C 
ATOM     21  C   UNL     1      38.405 -25.776 -13.067  0.00  0.00    +0.015 C 
BRANCH  17  22
ATOM     22  O   UNL     1      34.977 -24.968 -12.097  0.00  0.00    -0.505 OA
ATOM     23  H   UNL     1      34.588 -25.767 -11.799  0.00  0.00    +0.292 HD
ENDBRANCH  17  22
ENDBRANCH   3  16
TORSDOF 4
ENDMDL
MODEL 6
REMARK VINA RESULT:      -9.3      3.737      8.075
REMARK  Name = 4477
REMARK  4 active torsions:
REMARK  status: ('A' for Active; 'I' for Inactive)
REMARK    1  A    between atoms: N_2  and  C_6
REMARK    2  A    between atoms: C_3  and  C_16
REMARK    3  A    between atoms: C_9  and  N_14
REMARK    4  A    between atoms: C_17  and  O_22
REMARK                            x       y       z     vdW  Elec       q    Type
REMARK                         _______ _______ _______ _____ _____    ______ ____
ROOT
ATOM      1  O   UNL     1      34.812 -14.844 -20.577  0.00  0.00    -0.270 OA
ATOM      2  N   UNL     1      33.293 -14.738 -22.345  0.00  0.00    -0.280 N 
ATOM      3  C   UNL     1      34.218 -15.385 -21.516  0.00  0.00    +0.252 C 
ATOM      4  H   UNL     1      32.895 -15.289 -23.057  0.00  0.00    +0.155 HD
ENDROOT
BRANCH   2   6
ATOM      5 CL   UNL     1      34.049 -12.988 -24.714  0.00  0.00    -0.081 Cl
ATOM      6  C   UNL     1      32.861 -13.390 -22.289  0.00  0.00    +0.061 C 
ATOM      7  C   UNL     1      33.154 -12.509 -23.317  0.00  0.00    +0.073 C 
ATOM      8  C   UNL     1      32.141 -12.986 -21.176  0.00  0.00    +0.017 C 
ATOM      9  C   UNL     1      31.988 -10.766 -22.115  0.00  0.00    +0.144 C 
ATOM     10  C   UNL     1      32.714 -11.188 -23.230  0.00  0.00    +0.037 C 
ATOM     11  C   UNL     1      31.703 -11.665 -21.088  0.00  0.00    +0.025 C 
BRANCH   9  14
ATOM     12  O   UNL     1      31.007  -8.894 -23.029  0.00  0.00    -0.126 OA
ATOM     13  O   UNL     1      31.699  -8.806 -20.943  0.00  0.00    -0.126 OA
ATOM     14  N   UNL     1      31.543  -9.421 -22.025  0.00  0.00    +0.058 N 
ENDBRANCH   9  14
ENDBRANCH   2   6
BRANCH   3  16
ATOM     15 CL   UNL     1      33.266 -20.291 -20.236  0.00  0.00    -0.082 Cl
ATOM     16  C   UNL     1      34.418 -16.797 -21.809  0.00  0.00    +0.088 C 
ATOM     17  C   UNL     1      35.192 -17.199 -22.897  0.00  0.00    +0.138 C 
ATOM     18  C   UNL     1      33.822 -17.753 -20.985  0.00  0.00    +0.019 C 
ATOM     19  C   UNL     1      35.372 -18.557 -23.162  0.00  0.00    +0.038 C 
ATOM     20  C   UNL     1      34.001 -19.110 -21.250  0.00  0.00    +0.058 C 
ATOM     21  C   UNL     1      34.777 -19.513 -22.338  0.00  0.00    +0.015 C 
BRANCH  17  22
ATOM     22  O   UNL     1      35.782 -16.281 -23.714  0.00  0.00    -0.505 OA
ATOM     23  H   UNL     1      35.310 -15.514 -23.973  0.00  0.00    +0.292 HD
ENDBRANCH  17  22
ENDBRANCH   3  16
TORSDOF 4
ENDMDL
MODEL 7
REMARK VINA RESULT:      -9.3      5.106      8.998
REMARK  Name = 4477
REMARK  4 active torsions:
REMARK  status: ('A' for Active; 'I' for Inactive)
REMARK    1  A    between atoms: N_2  and  C_6
REMARK    2  A    between atoms: C_3  and  C_16
REMARK    3  A    between atoms: C_9  and  N_14
REMARK    4  A    between atoms: C_17  and  O_22
REMARK                            x       y       z     vdW  Elec       q    Type
REMARK                         _______ _______ _______ _____ _____    ______ ____
ROOT
ATOM      1  O   UNL     1      32.374 -13.979 -25.198  0.00  0.00    -0.270 OA
ATOM      2  N   UNL     1      33.403 -13.240 -23.238  0.00  0.00    -0.280 N 
ATOM      3  C   UNL     1      33.122 -14.182 -24.236  0.00  0.00    +0.252 C 
ATOM      4  H   UNL     1      34.017 -13.536 -22.528  0.00  0.00    +0.155 HD
ENDROOT
BRANCH   2   6
ATOM      5 CL   UNL     1      34.673 -11.178 -25.075  0.00  0.00    -0.081 Cl
ATOM      6  C   UNL     1      32.912 -11.916 -23.123  0.00  0.00    +0.061 C 
ATOM      7  C   UNL     1      33.424 -10.900 -23.914  0.00  0.00    +0.073 C 
ATOM      8  C   UNL     1      31.911 -11.674 -22.197  0.00  0.00    +0.017 C 
ATOM      9  C   UNL     1      31.912  -9.347 -22.847  0.00  0.00    +0.144 C 
ATOM     10  C   UNL     1      32.921  -9.607 -23.775  0.00  0.00    +0.037 C 
ATOM     11  C   UNL     1      31.408 -10.380 -22.057  0.00  0.00    +0.025 C 
BRANCH   9  14
ATOM     12  O   UNL     1      30.670  -7.565 -23.610  0.00  0.00    -0.126 OA
ATOM     13  O   UNL     1      31.696  -7.378 -21.674  0.00  0.00    -0.126 OA
ATOM     14  N   UNL     1      31.400  -8.031 -22.703  0.00  0.00    +0.058 N 
ENDBRANCH   9  14
ENDBRANCH   2   6
BRANCH   3  16
ATOM     15 CL   UNL     1      35.387 -17.596 -21.100  0.00  0.00    -0.082 Cl
ATOM     16  C   UNL     1      33.822 -15.451 -24.093  0.00  0.00    +0.088 C 
ATOM     17  C   UNL     1      34.092 -16.248 -25.206  0.00  0.00    +0.138 C 
ATOM     18  C   UNL     1      34.222 -15.867 -22.823  0.00  0.00    +0.019 C 
ATOM     19  C   UNL     1      34.764 -17.460 -25.049  0.00  0.00    +0.038 C 
ATOM     20  C   UNL     1      34.893 -17.080 -22.666  0.00  0.00    +0.058 C 
ATOM     21  C   UNL     1      35.164 -17.877 -23.779  0.00  0.00    +0.015 C 
BRANCH  17  22
ATOM     22  O   UNL     1      33.709 -15.859 -26.454  0.00  0.00    -0.505 OA
ATOM     23  H   UNL     1      33.892 -14.989 -26.751  0.00  0.00    +0.292 HD
ENDBRANCH  17  22
ENDBRANCH   3  16
TORSDOF 4
ENDMDL
MODEL 8
REMARK VINA RESULT:      -9.3      4.949      7.785
REMARK  Name = 4477
REMARK  4 active torsions:
REMARK  status: ('A' for Active; 'I' for Inactive)
REMARK    1  A    between atoms: N_2  and  C_6
REMARK    2  A    between atoms: C_3  and  C_16
REMARK    3  A    between atoms: C_9  and  N_14
REMARK    4  A    between atoms: C_17  and  O_22
REMARK                            x       y       z     vdW  Elec       q    Type
REMARK                         _______ _______ _______ _____ _____    ______ ____
ROOT
ATOM      1  O   UNL     1      34.068 -23.899 -17.970  0.00  0.00    -0.270 OA
ATOM      2  N   UNL     1      35.360 -22.444 -16.682  0.00  0.00    -0.280 N 
ATOM      3  C   UNL     1      34.642 -22.814 -17.826  0.00  0.00    +0.252 C 
ATOM      4  H   UNL     1      35.768 -21.549 -16.701  0.00  0.00    +0.155 HD
ENDROOT
BRANCH   2   6
ATOM      5 CL   UNL     1      32.899 -22.988 -14.982  0.00  0.00    -0.081 Cl
ATOM      6  C   UNL     1      35.572 -23.197 -15.501  0.00  0.00    +0.061 C 
ATOM      7  C   UNL     1      34.516 -23.499 -14.655  0.00  0.00    +0.073 C 
ATOM      8  C   UNL     1      36.862 -23.616 -15.222  0.00  0.00    +0.017 C 
ATOM      9  C   UNL     1      36.053 -24.671 -13.205  0.00  0.00    +0.144 C 
ATOM     10  C   UNL     1      34.759 -24.242 -13.499  0.00  0.00    +0.037 C 
ATOM     11  C   UNL     1      37.105 -24.357 -14.065  0.00  0.00    +0.025 C 
BRANCH   9  14
ATOM     12  O   UNL     1      35.721 -25.094 -10.966  0.00  0.00    -0.126 OA
ATOM     13  O   UNL     1      37.092 -26.396 -12.089  0.00  0.00    -0.126 OA
ATOM     14  N   UNL     1      36.301 -25.425 -12.027  0.00  0.00    +0.058 N 
ENDBRANCH   9  14
ENDBRANCH   2   6
BRANCH   3  16
ATOM     15 CL   UNL     1      37.169 -19.585 -20.957  0.00  0.00    -0.082 Cl
ATOM     16  C   UNL     1      34.573 -21.792 -18.861  0.00  0.00    +0.088 C 
ATOM     17  C   UNL     1      33.343 -21.363 -19.361  0.00  0.00    +0.138 C 
ATOM     18  C   UNL     1      35.757 -21.243 -19.354  0.00  0.00    +0.019 C 
ATOM     19  C   UNL     1      33.297 -20.384 -20.352  0.00  0.00    +0.038 C 
ATOM     20  C   UNL     1      35.710 -20.264 -20.347  0.00  0.00    +0.058 C 
ATOM     21  C   UNL     1      34.480 -19.833 -20.846  0.00  0.00    +0.015 C 
BRANCH  17  22
ATOM     22  O   UNL     1      32.176 -21.889 -18.893  0.00  0.00    -0.505 OA
ATOM     23  H   UNL     1      32.093 -22.815 -18.774  0.00  0.00    +0.292 HD
ENDBRANCH  17  22
ENDBRANCH   3  16
TORSDOF 4
ENDMDL
MODEL 9
REMARK VINA RESULT:      -9.3      4.147      8.364
REMARK  Name = 4477
REMARK  4 active torsions:
REMARK  status: ('A' for Active; 'I' for Inactive)
REMARK    1  A    between atoms: N_2  and  C_6
REMARK    2  A    between atoms: C_3  and  C_16
REMARK    3  A    between atoms: C_9  and  N_14
REMARK    4  A    between atoms: C_17  and  O_22
REMARK                            x       y       z     vdW  Elec       q    Type
REMARK                         _______ _______ _______ _____ _____    ______ ____
ROOT
ATOM      1  O   UNL     1      33.914 -23.767 -19.166  0.00  0.00    -0.270 OA
ATOM      2  N   UNL     1      33.627 -21.534 -18.551  0.00  0.00    -0.280 N 
ATOM      3  C   UNL     1      33.598 -22.916 -18.327  0.00  0.00    +0.252 C 
ATOM      4  H   UNL     1      33.348 -20.970 -17.794  0.00  0.00    +0.155 HD
ENDROOT
BRANCH   2   6
ATOM      5 CL   UNL     1      36.609 -21.416 -19.129  0.00  0.00    -0.081 Cl
ATOM      6  C   UNL     1      34.007 -20.847 -19.730  0.00  0.00    +0.061 C 
ATOM      7  C   UNL     1      35.342 -20.734 -20.085  0.00  0.00    +0.073 C 
ATOM      8  C   UNL     1      33.005 -20.293 -20.509  0.00  0.00    +0.017 C 
ATOM      9  C   UNL     1      34.684 -19.487 -22.047  0.00  0.00    +0.144 C 
ATOM     10  C   UNL     1      35.683 -20.050 -21.251  0.00  0.00    +0.037 C 
ATOM     11  C   UNL     1      33.345 -19.608 -21.675  0.00  0.00    +0.025 C 
BRANCH   9  14
ATOM     12  O   UNL     1      34.705 -19.280 -24.340  0.00  0.00    -0.126 OA
ATOM     13  O   UNL     1      35.650 -17.702 -23.135  0.00  0.00    -0.126 OA
ATOM     14  N   UNL     1      35.031 -18.788 -23.233  0.00  0.00    +0.058 N 
ENDBRANCH   9  14
ENDBRANCH   2   6
BRANCH   3  16
ATOM     15 CL   UNL     1      29.774 -23.635 -14.940  0.00  0.00    -0.082 Cl
ATOM     16  C   UNL     1      33.197 -23.310 -16.983  0.00  0.00    +0.088 C 
ATOM     17  C   UNL     1      34.147 -23.707 -16.043  0.00  0.00    +0.138 C 
ATOM     18  C   UNL     1      31.845 -23.287 -16.643  0.00  0.00    +0.019 C 
ATOM     19  C   UNL     1      33.745 -24.081 -14.760  0.00  0.00    +0.038 C 
ATOM     20  C   UNL     1      31.442 -23.662 -15.361  0.00  0.00    +0.058 C 
ATOM     21  C   UNL     1      32.392 -24.058 -14.419  0.00  0.00    +0.015 C 
BRANCH  17  22
ATOM     22  O   UNL     1      35.473 -23.737 -16.356  0.00  0.00    -0.505 OA
ATOM     23  H   UNL     1      36.040 -23.053 -16.058  0.00  0.00    +0.292 HD
ENDBRANCH  17  22
ENDBRANCH   3  16
TORSDOF 4
ENDMDL
