MODEL 1
REMARK VINA RESULT:      -9.5      0.000      0.000
REMARK  Name = 9823294
REMARK  4 active torsions:
REMARK  status: ('A' for Active; 'I' for Inactive)
REMARK    1  A    between atoms: C_14  and  O_17
REMARK    2  A    between atoms: O_17  and  C_20
REMARK    3  A    between atoms: N_19  and  C_22
REMARK    4  A    between atoms: C_23  and  C_28
REMARK                            x       y       z     vdW  Elec       q    Type
REMARK                         _______ _______ _______ _____ _____    ______ ____
ROOT
ATOM      1  O   UNL     1      34.136 -15.436 -23.917  0.00  0.00    -0.264 OA
ATOM      2  N   UNL     1      32.865 -13.998 -25.278  0.00  0.00    -0.283 N 
ATOM      3  N   UNL     1      34.307 -15.975 -22.576  0.00  0.00    -0.163 NA
ATOM      4  C   UNL     1      32.958 -13.487 -22.922  0.00  0.00    +0.066 C 
ATOM      5  C   UNL     1      32.929 -14.660 -23.968  0.00  0.00    +0.217 C 
ATOM      6  C   UNL     1      33.690 -13.856 -21.616  0.00  0.00    +0.028 C 
ATOM      7  C   UNL     1      33.633 -12.425 -23.767  0.00  0.00    -0.002 C 
ATOM      8  C   UNL     1      33.509 -12.774 -25.124  0.00  0.00    +0.046 C 
ATOM      9  C   UNL     1      31.531 -13.005 -22.598  0.00  0.00    +0.009 C 
ATOM     10  C   UNL     1      34.836 -14.844 -21.814  0.00  0.00    +0.102 C 
ATOM     11  C   UNL     1      34.241 -11.241 -23.376  0.00  0.00    +0.035 C 
ATOM     12  C   UNL     1      32.826 -14.733 -26.519  0.00  0.00    +0.114 C 
ATOM     13  C   UNL     1      33.994 -11.923 -26.107  0.00  0.00    +0.017 C 
ATOM     14  C   UNL     1      34.740 -10.394 -24.366  0.00  0.00    +0.150 C 
ATOM     15  C   UNL     1      35.312 -17.020 -22.737  0.00  0.00    +0.121 C 
ATOM     16  C   UNL     1      34.617 -10.732 -25.721  0.00  0.00    +0.039 C 
ENDROOT
BRANCH  14  17
ATOM     17  O   UNL     1      35.343  -9.225 -24.015  0.00  0.00    -0.410 OA
BRANCH  17  20
ATOM     18  O   UNL     1      34.642  -7.249 -24.999  0.00  0.00    -0.226 OA
ATOM     19  N   UNL     1      33.630  -8.060 -23.049  0.00  0.00    -0.250 N 
ATOM     20  C   UNL     1      34.526  -8.076 -24.101  0.00  0.00    +0.410 C 
ATOM     21  H   UNL     1      33.688  -8.817 -22.422  0.00  0.00    +0.158 HD
BRANCH  19  22
ATOM     22  C   UNL     1      32.642  -7.092 -22.763  0.00  0.00    +0.049 C 
ATOM     23  C   UNL     1      32.232  -6.877 -21.456  0.00  0.00    -0.009 C 
ATOM     24  C   UNL     1      32.097  -6.370 -23.813  0.00  0.00    +0.014 C 
ATOM     25  C   UNL     1      31.255  -5.916 -21.193  0.00  0.00    -0.003 C 
ATOM     26  C   UNL     1      31.120  -5.409 -23.551  0.00  0.00    +0.001 C 
ATOM     27  C   UNL     1      30.699  -5.182 -22.241  0.00  0.00    -0.000 C 
BRANCH  23  28
ATOM     28  C   UNL     1      32.812  -7.646 -20.313  0.00  0.00    +0.028 C 
ATOM     29  C   UNL     1      32.082  -8.964 -20.074  0.00  0.00    +0.005 C 
ENDBRANCH  23  28
ENDBRANCH  19  22
ENDBRANCH  17  20
ENDBRANCH  14  17
TORSDOF 4
ENDMDL
MODEL 2
REMARK VINA RESULT:      -9.3      2.759      9.027
REMARK  Name = 9823294
REMARK  4 active torsions:
REMARK  status: ('A' for Active; 'I' for Inactive)
REMARK    1  A    between atoms: C_14  and  O_17
REMARK    2  A    between atoms: O_17  and  C_20
REMARK    3  A    between atoms: N_19  and  C_22
REMARK    4  A    between atoms: C_23  and  C_28
REMARK                            x       y       z     vdW  Elec       q    Type
REMARK                         _______ _______ _______ _____ _____    ______ ____
ROOT
ATOM      1  O   UNL     1      33.382  -9.637 -23.203  0.00  0.00    -0.264 OA
ATOM      2  N   UNL     1      31.778 -11.349 -23.031  0.00  0.00    -0.283 N 
ATOM      3  N   UNL     1      34.293  -8.933 -24.094  0.00  0.00    -0.163 NA
ATOM      4  C   UNL     1      33.450 -11.576 -24.756  0.00  0.00    +0.066 C 
ATOM      5  C   UNL     1      32.569 -10.539 -23.967  0.00  0.00    +0.217 C 
ATOM      6  C   UNL     1      34.783 -10.984 -25.255  0.00  0.00    +0.028 C 
ATOM      7  C   UNL     1      33.574 -12.648 -23.692  0.00  0.00    -0.002 C 
ATOM      8  C   UNL     1      32.549 -12.471 -22.744  0.00  0.00    +0.046 C 
ATOM      9  C   UNL     1      32.669 -12.168 -25.944  0.00  0.00    +0.009 C 
ATOM     10  C   UNL     1      35.357  -9.907 -24.339  0.00  0.00    +0.102 C 
ATOM     11  C   UNL     1      34.465 -13.708 -23.606  0.00  0.00    +0.035 C 
ATOM     12  C   UNL     1      30.832 -10.768 -22.110  0.00  0.00    +0.114 C 
ATOM     13  C   UNL     1      32.409 -13.371 -21.697  0.00  0.00    +0.017 C 
ATOM     14  C   UNL     1      34.329 -14.602 -22.545  0.00  0.00    +0.150 C 
ATOM     15  C   UNL     1      34.777  -7.811 -23.298  0.00  0.00    +0.121 C 
ATOM     16  C   UNL     1      33.309 -14.436 -21.598  0.00  0.00    +0.039 C 
ENDROOT
BRANCH  14  17
ATOM     17  O   UNL     1      35.189 -15.653 -22.431  0.00  0.00    -0.410 OA
BRANCH  17  20
ATOM     18  O   UNL     1      35.043 -16.210 -20.188  0.00  0.00    -0.226 OA
ATOM     19  N   UNL     1      34.523 -17.763 -21.861  0.00  0.00    -0.250 N 
ATOM     20  C   UNL     1      34.921 -16.538 -21.363  0.00  0.00    +0.410 C 
ATOM     21  H   UNL     1      34.484 -17.839 -22.842  0.00  0.00    +0.158 HD
BRANCH  19  22
ATOM     22  C   UNL     1      34.163 -18.921 -21.136  0.00  0.00    +0.049 C 
ATOM     23  C   UNL     1      35.143 -19.785 -20.670  0.00  0.00    -0.009 C 
ATOM     24  C   UNL     1      32.819 -19.169 -20.905  0.00  0.00    +0.014 C 
ATOM     25  C   UNL     1      34.768 -20.924 -19.955  0.00  0.00    -0.003 C 
ATOM     26  C   UNL     1      32.444 -20.307 -20.190  0.00  0.00    +0.001 C 
ATOM     27  C   UNL     1      33.419 -21.184 -19.715  0.00  0.00    -0.000 C 
BRANCH  23  28
ATOM     28  C   UNL     1      36.596 -19.531 -20.910  0.00  0.00    +0.028 C 
ATOM     29  C   UNL     1      37.487 -20.354 -19.986  0.00  0.00    +0.005 C 
ENDBRANCH  23  28
ENDBRANCH  19  22
ENDBRANCH  17  20
ENDBRANCH  14  17
TORSDOF 4
ENDMDL
MODEL 3
REMARK VINA RESULT:      -9.1      1.857      8.213
REMARK  Name = 9823294
REMARK  4 active torsions:
REMARK  status: ('A' for Active; 'I' for Inactive)
REMARK    1  A    between atoms: C_14  and  O_17
REMARK    2  A    between atoms: O_17  and  C_20
REMARK    3  A    between atoms: N_19  and  C_22
REMARK    4  A    between atoms: C_23  and  C_28
REMARK                            x       y       z     vdW  Elec       q    Type
REMARK                         _______ _______ _______ _____ _____    ______ ____
ROOT
ATOM      1  O   UNL     1      32.415  -6.072 -24.075  0.00  0.00    -0.264 OA
ATOM      2  N   UNL     1      34.259  -7.413 -23.497  0.00  0.00    -0.283 N 
ATOM      3  N   UNL     1      31.323  -5.254 -23.567  0.00  0.00    -0.163 NA
ATOM      4  C   UNL     1      32.465  -7.259 -21.891  0.00  0.00    +0.066 C 
ATOM      5  C   UNL     1      33.264  -6.460 -22.985  0.00  0.00    +0.217 C 
ATOM      6  C   UNL     1      31.015  -6.764 -21.718  0.00  0.00    +0.028 C 
ATOM      7  C   UNL     1      32.611  -8.658 -22.456  0.00  0.00    -0.002 C 
ATOM      8  C   UNL     1      33.694  -8.676 -23.354  0.00  0.00    +0.046 C 
ATOM      9  C   UNL     1      33.193  -7.211 -20.535  0.00  0.00    +0.009 C 
ATOM     10  C   UNL     1      30.391  -6.232 -23.006  0.00  0.00    +0.102 C 
ATOM     11  C   UNL     1      31.897  -9.809 -22.158  0.00  0.00    +0.035 C 
ATOM     12  C   UNL     1      35.203  -7.069 -24.532  0.00  0.00    +0.114 C 
ATOM     13  C   UNL     1      34.073  -9.865 -23.960  0.00  0.00    +0.017 C 
ATOM     14  C   UNL     1      32.272 -11.000 -22.779  0.00  0.00    +0.150 C 
ATOM     15  C   UNL     1      30.768  -4.620 -24.758  0.00  0.00    +0.121 C 
ATOM     16  C   UNL     1      33.352 -11.029 -23.672  0.00  0.00    +0.039 C 
ENDROOT
BRANCH  14  17
ATOM     17  O   UNL     1      31.591 -12.148 -22.508  0.00  0.00    -0.410 OA
BRANCH  17  20
ATOM     18  O   UNL     1      32.702 -13.744 -21.252  0.00  0.00    -0.226 OA
ATOM     19  N   UNL     1      32.735 -13.803 -23.593  0.00  0.00    -0.250 N 
ATOM     20  C   UNL     1      32.391 -13.301 -22.352  0.00  0.00    +0.410 C 
ATOM     21  H   UNL     1      32.388 -13.308 -24.370  0.00  0.00    +0.158 HD
BRANCH  19  22
ATOM     22  C   UNL     1      33.523 -14.940 -23.883  0.00  0.00    +0.049 C 
ATOM     23  C   UNL     1      33.536 -15.471 -25.163  0.00  0.00    -0.009 C 
ATOM     24  C   UNL     1      34.274 -15.504 -22.863  0.00  0.00    +0.014 C 
ATOM     25  C   UNL     1      34.321 -16.594 -25.431  0.00  0.00    -0.003 C 
ATOM     26  C   UNL     1      35.058 -16.627 -23.130  0.00  0.00    +0.001 C 
ATOM     27  C   UNL     1      35.081 -17.172 -24.414  0.00  0.00    -0.000 C 
BRANCH  23  28
ATOM     28  C   UNL     1      32.733 -14.873 -26.273  0.00  0.00    +0.028 C 
ATOM     29  C   UNL     1      33.463 -13.723 -26.959  0.00  0.00    +0.005 C 
ENDBRANCH  23  28
ENDBRANCH  19  22
ENDBRANCH  17  20
ENDBRANCH  14  17
TORSDOF 4
ENDMDL
MODEL 4
REMARK VINA RESULT:      -9.1      1.994      8.291
REMARK  Name = 9823294
REMARK  4 active torsions:
REMARK  status: ('A' for Active; 'I' for Inactive)
REMARK    1  A    between atoms: C_14  and  O_17
REMARK    2  A    between atoms: O_17  and  C_20
REMARK    3  A    between atoms: N_19  and  C_22
REMARK    4  A    between atoms: C_23  and  C_28
REMARK                            x       y       z     vdW  Elec       q    Type
REMARK                         _______ _______ _______ _____ _____    ______ ____
ROOT
ATOM      1  O   UNL     1      32.459  -6.132 -24.068  0.00  0.00    -0.264 OA
ATOM      2  N   UNL     1      34.300  -7.472 -23.477  0.00  0.00    -0.283 N 
ATOM      3  N   UNL     1      31.348  -5.336 -23.568  0.00  0.00    -0.163 NA
ATOM      4  C   UNL     1      32.466  -7.372 -21.913  0.00  0.00    +0.066 C 
ATOM      5  C   UNL     1      33.285  -6.540 -22.967  0.00  0.00    +0.217 C 
ATOM      6  C   UNL     1      31.007  -6.893 -21.765  0.00  0.00    +0.028 C 
ATOM      7  C   UNL     1      32.638  -8.755 -22.508  0.00  0.00    -0.002 C 
ATOM      8  C   UNL     1      33.742  -8.743 -23.379  0.00  0.00    +0.046 C 
ATOM      9  C   UNL     1      33.159  -7.351 -20.538  0.00  0.00    +0.009 C 
ATOM     10  C   UNL     1      30.411  -6.335 -23.054  0.00  0.00    +0.102 C 
ATOM     11  C   UNL     1      31.926  -9.919 -22.255  0.00  0.00    +0.035 C 
ATOM     12  C   UNL     1      35.266  -7.095 -24.479  0.00  0.00    +0.114 C 
ATOM     13  C   UNL     1      34.147  -9.914 -24.003  0.00  0.00    +0.017 C 
ATOM     14  C   UNL     1      32.327 -11.091 -22.895  0.00  0.00    +0.150 C 
ATOM     15  C   UNL     1      30.817  -4.677 -24.757  0.00  0.00    +0.121 C 
ATOM     16  C   UNL     1      33.429 -11.090 -23.762  0.00  0.00    +0.039 C 
ENDROOT
BRANCH  14  17
ATOM     17  O   UNL     1      31.649 -12.251 -22.670  0.00  0.00    -0.410 OA
BRANCH  17  20
ATOM     18  O   UNL     1      32.291 -13.158 -20.639  0.00  0.00    -0.226 OA
ATOM     19  N   UNL     1      32.978 -14.111 -22.664  0.00  0.00    -0.250 N 
ATOM     20  C   UNL     1      32.322 -13.195 -21.863  0.00  0.00    +0.410 C 
ATOM     21  H   UNL     1      32.886 -13.979 -23.635  0.00  0.00    +0.158 HD
BRANCH  19  22
ATOM     22  C   UNL     1      33.764 -15.213 -22.260  0.00  0.00    +0.049 C 
ATOM     23  C   UNL     1      34.262 -16.099 -23.203  0.00  0.00    -0.009 C 
ATOM     24  C   UNL     1      34.022 -15.384 -20.908  0.00  0.00    +0.014 C 
ATOM     25  C   UNL     1      35.037 -17.182 -22.784  0.00  0.00    -0.003 C 
ATOM     26  C   UNL     1      34.797 -16.466 -20.489  0.00  0.00    +0.001 C 
ATOM     27  C   UNL     1      35.304 -17.365 -21.427  0.00  0.00    -0.000 C 
BRANCH  23  28
ATOM     28  C   UNL     1      33.994 -15.927 -24.663  0.00  0.00    +0.028 C 
ATOM     29  C   UNL     1      34.567 -17.070 -25.495  0.00  0.00    +0.005 C 
ENDBRANCH  23  28
ENDBRANCH  19  22
ENDBRANCH  17  20
ENDBRANCH  14  17
TORSDOF 4
ENDMDL
MODEL 5
REMARK VINA RESULT:      -8.9      1.348      2.511
REMARK  Name = 9823294
REMARK  4 active torsions:
REMARK  status: ('A' for Active; 'I' for Inactive)
REMARK    1  A    between atoms: C_14  and  O_17
REMARK    2  A    between atoms: O_17  and  C_20
REMARK    3  A    between atoms: N_19  and  C_22
REMARK    4  A    between atoms: C_23  and  C_28
REMARK                            x       y       z     vdW  Elec       q    Type
REMARK                         _______ _______ _______ _____ _____    ______ ____
ROOT
ATOM      1  O   UNL     1      33.930 -15.265 -23.572  0.00  0.00    -0.264 OA
ATOM      2  N   UNL     1      32.792 -13.892 -25.106  0.00  0.00    -0.283 N 
ATOM      3  N   UNL     1      34.010 -15.703 -22.186  0.00  0.00    -0.163 NA
ATOM      4  C   UNL     1      32.786 -13.200 -22.795  0.00  0.00    +0.066 C 
ATOM      5  C   UNL     1      32.761 -14.451 -23.747  0.00  0.00    +0.217 C 
ATOM      6  C   UNL     1      33.434 -13.493 -21.426  0.00  0.00    +0.028 C 
ATOM      7  C   UNL     1      33.547 -12.234 -23.681  0.00  0.00    -0.002 C 
ATOM      8  C   UNL     1      33.477 -12.684 -25.011  0.00  0.00    +0.046 C 
ATOM      9  C   UNL     1      31.366 -12.641 -22.585  0.00  0.00    +0.009 C 
ATOM     10  C   UNL     1      34.547 -14.536 -21.486  0.00  0.00    +0.102 C 
ATOM     11  C   UNL     1      34.183 -11.047 -23.349  0.00  0.00    +0.035 C 
ATOM     12  C   UNL     1      32.785 -14.720 -26.287  0.00  0.00    +0.114 C 
ATOM     13  C   UNL     1      34.047 -11.933 -26.029  0.00  0.00    +0.017 C 
ATOM     14  C   UNL     1      34.767 -10.301 -24.373  0.00  0.00    +0.150 C 
ATOM     15  C   UNL     1      34.977 -16.794 -22.211  0.00  0.00    +0.121 C 
ATOM     16  C   UNL     1      34.699 -10.740 -25.703  0.00  0.00    +0.039 C 
ENDROOT
BRANCH  14  17
ATOM     17  O   UNL     1      35.400  -9.131 -24.082  0.00  0.00    -0.410 OA
BRANCH  17  20
ATOM     18  O   UNL     1      34.589  -7.835 -22.343  0.00  0.00    -0.226 OA
ATOM     19  N   UNL     1      33.810  -7.552 -24.533  0.00  0.00    -0.250 N 
ATOM     20  C   UNL     1      34.579  -8.121 -23.535  0.00  0.00    +0.410 C 
ATOM     21  H   UNL     1      33.941  -7.917 -25.438  0.00  0.00    +0.158 HD
BRANCH  19  22
ATOM     22  C   UNL     1      32.860  -6.513 -24.413  0.00  0.00    +0.049 C 
ATOM     23  C   UNL     1      32.888  -5.437 -25.288  0.00  0.00    -0.009 C 
ATOM     24  C   UNL     1      31.909  -6.595 -23.408  0.00  0.00    +0.014 C 
ATOM     25  C   UNL     1      31.942  -4.421 -25.154  0.00  0.00    -0.003 C 
ATOM     26  C   UNL     1      30.963  -5.579 -23.274  0.00  0.00    +0.001 C 
ATOM     27  C   UNL     1      30.980  -4.492 -24.147  0.00  0.00    -0.000 C 
BRANCH  23  28
ATOM     28  C   UNL     1      33.906  -5.336 -26.378  0.00  0.00    +0.028 C 
ATOM     29  C   UNL     1      33.416  -4.491 -27.550  0.00  0.00    +0.005 C 
ENDBRANCH  23  28
ENDBRANCH  19  22
ENDBRANCH  17  20
ENDBRANCH  14  17
TORSDOF 4
ENDMDL
MODEL 6
REMARK VINA RESULT:      -8.8      1.794      7.306
REMARK  Name = 9823294
REMARK  4 active torsions:
REMARK  status: ('A' for Active; 'I' for Inactive)
REMARK    1  A    between atoms: C_14  and  O_17
REMARK    2  A    between atoms: O_17  and  C_20
REMARK    3  A    between atoms: N_19  and  C_22
REMARK    4  A    between atoms: C_23  and  C_28
REMARK                            x       y       z     vdW  Elec       q    Type
REMARK                         _______ _______ _______ _____ _____    ______ ____
ROOT
ATOM      1  O   UNL     1      32.572  -6.764 -23.918  0.00  0.00    -0.264 OA
ATOM      2  N   UNL     1      34.439  -8.013 -23.219  0.00  0.00    -0.283 N 
ATOM      3  N   UNL     1      31.156  -6.505 -23.704  0.00  0.00    -0.163 NA
ATOM      4  C   UNL     1      32.264  -8.997 -22.870  0.00  0.00    +0.066 C 
ATOM      5  C   UNL     1      33.057  -7.639 -22.889  0.00  0.00    +0.217 C 
ATOM      6  C   UNL     1      30.773  -8.834 -23.230  0.00  0.00    +0.028 C 
ATOM      7  C   UNL     1      33.092  -9.776 -23.872  0.00  0.00    -0.002 C 
ATOM      8  C   UNL     1      34.353  -9.165 -23.996  0.00  0.00    +0.046 C 
ATOM      9  C   UNL     1      32.392  -9.689 -21.500  0.00  0.00    +0.009 C 
ATOM     10  C   UNL     1      30.502  -7.707 -24.223  0.00  0.00    +0.102 C 
ATOM     11  C   UNL     1      32.782 -10.942 -24.556  0.00  0.00    +0.035 C 
ATOM     12  C   UNL     1      35.498  -7.042 -23.339  0.00  0.00    +0.114 C 
ATOM     13  C   UNL     1      35.322  -9.730 -24.812  0.00  0.00    +0.017 C 
ATOM     14  C   UNL     1      33.753 -11.501 -25.386  0.00  0.00    +0.150 C 
ATOM     15  C   UNL     1      30.874  -5.346 -24.543  0.00  0.00    +0.121 C 
ATOM     16  C   UNL     1      35.014 -10.900 -25.513  0.00  0.00    +0.039 C 
ENDROOT
BRANCH  14  17
ATOM     17  O   UNL     1      33.480 -12.645 -26.073  0.00  0.00    -0.410 OA
BRANCH  17  20
ATOM     18  O   UNL     1      32.375 -14.618 -25.579  0.00  0.00    -0.226 OA
ATOM     19  N   UNL     1      34.028 -13.764 -24.157  0.00  0.00    -0.250 N 
ATOM     20  C   UNL     1      33.214 -13.779 -25.275  0.00  0.00    +0.410 C 
ATOM     21  H   UNL     1      34.646 -13.002 -24.084  0.00  0.00    +0.158 HD
BRANCH  19  22
ATOM     22  C   UNL     1      34.081 -14.710 -23.109  0.00  0.00    +0.049 C 
ATOM     23  C   UNL     1      33.251 -14.576 -22.006  0.00  0.00    -0.009 C 
ATOM     24  C   UNL     1      34.976 -15.764 -23.210  0.00  0.00    +0.014 C 
ATOM     25  C   UNL     1      33.318 -15.520 -20.980  0.00  0.00    -0.003 C 
ATOM     26  C   UNL     1      35.043 -16.707 -22.184  0.00  0.00    +0.001 C 
ATOM     27  C   UNL     1      34.214 -16.585 -21.070  0.00  0.00    -0.000 C 
BRANCH  23  28
ATOM     28  C   UNL     1      32.281 -13.446 -21.883  0.00  0.00    +0.028 C 
ATOM     29  C   UNL     1      32.109 -12.986 -20.439  0.00  0.00    +0.005 C 
ENDBRANCH  23  28
ENDBRANCH  19  22
ENDBRANCH  17  20
ENDBRANCH  14  17
TORSDOF 4
ENDMDL
MODEL 7
REMARK VINA RESULT:      -8.7      8.016     12.800
REMARK  Name = 9823294
REMARK  4 active torsions:
REMARK  status: ('A' for Active; 'I' for Inactive)
REMARK    1  A    between atoms: C_14  and  O_17
REMARK    2  A    between atoms: O_17  and  C_20
REMARK    3  A    between atoms: N_19  and  C_22
REMARK    4  A    between atoms: C_23  and  C_28
REMARK                            x       y       z     vdW  Elec       q    Type
REMARK                         _______ _______ _______ _____ _____    ______ ____
ROOT
ATOM      1  O   UNL     1      35.561 -25.282 -14.869  0.00  0.00    -0.264 OA
ATOM      2  N   UNL     1      34.082 -23.474 -15.157  0.00  0.00    -0.283 N 
ATOM      3  N   UNL     1      36.899 -25.681 -14.459  0.00  0.00    -0.163 NA
ATOM      4  C   UNL     1      36.442 -23.003 -15.326  0.00  0.00    +0.066 C 
ATOM      5  C   UNL     1      35.372 -23.887 -14.587  0.00  0.00    +0.217 C 
ATOM      6  C   UNL     1      37.823 -23.682 -15.430  0.00  0.00    +0.028 C 
ATOM      7  C   UNL     1      35.720 -22.797 -16.643  0.00  0.00    -0.002 C 
ATOM      8  C   UNL     1      34.350 -23.056 -16.457  0.00  0.00    +0.046 C 
ATOM      9  C   UNL     1      36.590 -21.632 -14.641  0.00  0.00    +0.009 C 
ATOM     10  C   UNL     1      37.751 -25.202 -15.546  0.00  0.00    +0.102 C 
ATOM     11  C   UNL     1      36.216 -22.364 -17.863  0.00  0.00    +0.035 C 
ATOM     12  C   UNL     1      32.829 -24.057 -14.743  0.00  0.00    +0.114 C 
ATOM     13  C   UNL     1      33.460 -22.875 -17.506  0.00  0.00    +0.017 C 
ATOM     14  C   UNL     1      35.321 -22.196 -18.920  0.00  0.00    +0.150 C 
ATOM     15  C   UNL     1      36.844 -27.138 -14.433  0.00  0.00    +0.121 C 
ATOM     16  C   UNL     1      33.954 -22.448 -18.743  0.00  0.00    +0.039 C 
ENDROOT
BRANCH  14  17
ATOM     17  O   UNL     1      35.777 -21.773 -20.132  0.00  0.00    -0.410 OA
BRANCH  17  20
ATOM     18  O   UNL     1      36.793 -19.768 -19.576  0.00  0.00    -0.226 OA
ATOM     19  N   UNL     1      35.117 -19.868 -21.208  0.00  0.00    -0.250 N 
ATOM     20  C   UNL     1      35.972 -20.379 -20.250  0.00  0.00    +0.410 C 
ATOM     21  H   UNL     1      34.524 -20.518 -21.649  0.00  0.00    +0.158 HD
BRANCH  19  22
ATOM     22  C   UNL     1      34.989 -18.526 -21.632  0.00  0.00    +0.049 C 
ATOM     23  C   UNL     1      34.929 -18.224 -22.984  0.00  0.00    -0.009 C 
ATOM     24  C   UNL     1      34.928 -17.529 -20.670  0.00  0.00    +0.014 C 
ATOM     25  C   UNL     1      34.803 -16.892 -23.383  0.00  0.00    -0.003 C 
ATOM     26  C   UNL     1      34.802 -16.198 -21.070  0.00  0.00    +0.001 C 
ATOM     27  C   UNL     1      34.740 -15.880 -22.426  0.00  0.00    -0.000 C 
BRANCH  23  28
ATOM     28  C   UNL     1      34.993 -19.287 -24.032  0.00  0.00    +0.028 C 
ATOM     29  C   UNL     1      34.188 -18.924 -25.275  0.00  0.00    +0.005 C 
ENDBRANCH  23  28
ENDBRANCH  19  22
ENDBRANCH  17  20
ENDBRANCH  14  17
TORSDOF 4
ENDMDL
MODEL 8
REMARK VINA RESULT:      -8.7      2.107      8.134
REMARK  Name = 9823294
REMARK  4 active torsions:
REMARK  status: ('A' for Active; 'I' for Inactive)
REMARK    1  A    between atoms: C_14  and  O_17
REMARK    2  A    between atoms: O_17  and  C_20
REMARK    3  A    between atoms: N_19  and  C_22
REMARK    4  A    between atoms: C_23  and  C_28
REMARK                            x       y       z     vdW  Elec       q    Type
REMARK                         _______ _______ _______ _____ _____    ______ ____
ROOT
ATOM      1  O   UNL     1      33.681  -7.712 -22.283  0.00  0.00    -0.264 OA
ATOM      2  N   UNL     1      31.888  -7.974 -20.781  0.00  0.00    -0.283 N 
ATOM      3  N   UNL     1      34.077  -7.690 -23.683  0.00  0.00    -0.163 NA
ATOM      4  C   UNL     1      31.699  -9.069 -22.923  0.00  0.00    +0.066 C 
ATOM      5  C   UNL     1      32.251  -7.790 -22.193  0.00  0.00    +0.217 C 
ATOM      6  C   UNL     1      32.505  -9.443 -24.183  0.00  0.00    +0.028 C 
ATOM      7  C   UNL     1      31.787 -10.059 -21.779  0.00  0.00    -0.002 C 
ATOM      8  C   UNL     1      31.860  -9.349 -20.566  0.00  0.00    +0.046 C 
ATOM      9  C   UNL     1      30.214  -8.893 -23.292  0.00  0.00    +0.009 C 
ATOM     10  C   UNL     1      33.987  -9.093 -24.089  0.00  0.00    +0.102 C 
ATOM     11  C   UNL     1      31.744 -11.445 -21.806  0.00  0.00    +0.035 C 
ATOM     12  C   UNL     1      32.221  -7.009 -19.762  0.00  0.00    +0.114 C 
ATOM     13  C   UNL     1      31.885 -10.035 -19.360  0.00  0.00    +0.017 C 
ATOM     14  C   UNL     1      31.783 -12.132 -20.592  0.00  0.00    +0.150 C 
ATOM     15  C   UNL     1      35.463  -7.236 -23.655  0.00  0.00    +0.121 C 
ATOM     16  C   UNL     1      31.852 -11.432 -19.379  0.00  0.00    +0.039 C 
ENDROOT
BRANCH  14  17
ATOM     17  O   UNL     1      31.744 -13.493 -20.584  0.00  0.00    -0.410 OA
BRANCH  17  20
ATOM     18  O   UNL     1      34.027 -13.871 -20.496  0.00  0.00    -0.226 OA
ATOM     19  N   UNL     1      32.658 -15.051 -21.985  0.00  0.00    -0.250 N 
ATOM     20  C   UNL     1      32.936 -14.133 -20.990  0.00  0.00    +0.410 C 
ATOM     21  H   UNL     1      31.713 -15.123 -22.253  0.00  0.00    +0.158 HD
BRANCH  19  22
ATOM     22  C   UNL     1      33.562 -15.898 -22.663  0.00  0.00    +0.049 C 
ATOM     23  C   UNL     1      33.856 -15.679 -24.000  0.00  0.00    -0.009 C 
ATOM     24  C   UNL     1      34.142 -16.946 -21.964  0.00  0.00    +0.014 C 
ATOM     25  C   UNL     1      34.752 -16.527 -24.653  0.00  0.00    -0.003 C 
ATOM     26  C   UNL     1      35.038 -17.793 -22.616  0.00  0.00    +0.001 C 
ATOM     27  C   UNL     1      35.342 -17.583 -23.961  0.00  0.00    -0.000 C 
BRANCH  23  28
ATOM     28  C   UNL     1      33.239 -14.553 -24.767  0.00  0.00    +0.028 C 
ATOM     29  C   UNL     1      32.996 -14.915 -26.228  0.00  0.00    +0.005 C 
ENDBRANCH  23  28
ENDBRANCH  19  22
ENDBRANCH  17  20
ENDBRANCH  14  17
TORSDOF 4
ENDMDL
MODEL 9
REMARK VINA RESULT:      -8.3     10.496     15.007
REMARK  Name = 9823294
REMARK  4 active torsions:
REMARK  status: ('A' for Active; 'I' for Inactive)
REMARK    1  A    between atoms: C_14  and  O_17
REMARK    2  A    between atoms: O_17  and  C_20
REMARK    3  A    between atoms: N_19  and  C_22
REMARK    4  A    between atoms: C_23  and  C_28
REMARK                            x       y       z     vdW  Elec       q    Type
REMARK                         _______ _______ _______ _____ _____    ______ ____
ROOT
ATOM      1  O   UNL     1      37.844 -25.070 -13.228  0.00  0.00    -0.264 OA
ATOM      2  N   UNL     1      36.004 -23.747 -12.595  0.00  0.00    -0.283 N 
ATOM      3  N   UNL     1      39.121 -25.091 -13.925  0.00  0.00    -0.163 NA
ATOM      4  C   UNL     1      37.199 -23.092 -14.587  0.00  0.00    +0.066 C 
ATOM      5  C   UNL     1      37.363 -23.720 -13.155  0.00  0.00    +0.217 C 
ATOM      6  C   UNL     1      38.271 -23.571 -15.586  0.00  0.00    +0.028 C 
ATOM      7  C   UNL     1      35.783 -23.541 -14.889  0.00  0.00    -0.002 C 
ATOM      8  C   UNL     1      35.142 -23.872 -13.681  0.00  0.00    +0.046 C 
ATOM      9  C   UNL     1      37.209 -21.553 -14.516  0.00  0.00    +0.009 C 
ATOM     10  C   UNL     1      38.747 -25.000 -15.336  0.00  0.00    +0.102 C 
ATOM     11  C   UNL     1      35.113 -23.590 -16.102  0.00  0.00    +0.035 C 
ATOM     12  C   UNL     1      35.717 -24.261 -11.279  0.00  0.00    +0.114 C 
ATOM     13  C   UNL     1      33.809 -24.254 -13.684  0.00  0.00    +0.017 C 
ATOM     14  C   UNL     1      33.776 -23.988 -16.104  0.00  0.00    +0.150 C 
ATOM     15  C   UNL     1      39.679 -26.402 -13.610  0.00  0.00    +0.121 C 
ATOM     16  C   UNL     1      33.128 -24.317 -14.904  0.00  0.00    +0.039 C 
ENDROOT
BRANCH  14  17
ATOM     17  O   UNL     1      33.089 -24.049 -17.278  0.00  0.00    -0.410 OA
BRANCH  17  20
ATOM     18  O   UNL     1      31.857 -22.121 -17.634  0.00  0.00    -0.226 OA
ATOM     19  N   UNL     1      33.851 -22.519 -18.796  0.00  0.00    -0.250 N 
ATOM     20  C   UNL     1      32.841 -22.804 -17.897  0.00  0.00    +0.410 C 
ATOM     21  H   UNL     1      34.564 -23.193 -18.871  0.00  0.00    +0.158 HD
BRANCH  19  22
ATOM     22  C   UNL     1      33.986 -21.379 -19.619  0.00  0.00    +0.049 C 
ATOM     23  C   UNL     1      35.244 -20.927 -19.986  0.00  0.00    -0.009 C 
ATOM     24  C   UNL     1      32.838 -20.730 -20.047  0.00  0.00    +0.014 C 
ATOM     25  C   UNL     1      35.357 -19.799 -20.800  0.00  0.00    -0.003 C 
ATOM     26  C   UNL     1      32.950 -19.602 -20.861  0.00  0.00    +0.001 C 
ATOM     27  C   UNL     1      34.210 -19.137 -21.237  0.00  0.00    -0.000 C 
BRANCH  23  28
ATOM     28  C   UNL     1      36.491 -21.617 -19.534  0.00  0.00    +0.028 C 
ATOM     29  C   UNL     1      36.878 -21.236 -18.109  0.00  0.00    +0.005 C 
ENDBRANCH  23  28
ENDBRANCH  19  22
ENDBRANCH  17  20
ENDBRANCH  14  17
TORSDOF 4
ENDMDL
