MODEL 1
REMARK VINA RESULT:      -8.2      0.000      0.000
REMARK  Name = 11370864
REMARK  4 active torsions:
REMARK  status: ('A' for Active; 'I' for Inactive)
REMARK    1  A    between atoms: C_4  and  C_19
REMARK    2  A    between atoms: C_5  and  C_13
REMARK    3  A    between atoms: C_19  and  O_20
REMARK    4  A    between atoms: O_20  and  C_21
REMARK                            x       y       z     vdW  Elec       q    Type
REMARK                         _______ _______ _______ _____ _____    ______ ____
ROOT
ATOM      1  N   UNL     1      37.113 -25.046 -14.418  0.00  0.00    +0.388 N 
ATOM      2  C   UNL     1      36.758 -23.984 -15.368  0.00  0.00    -0.055 C 
ATOM      3  C   UNL     1      36.546 -24.587 -13.148  0.00  0.00    -0.058 C 
ATOM      4  C   UNL     1      35.228 -23.924 -15.642  0.00  0.00    +0.015 C 
ATOM      5  C   UNL     1      34.418 -23.732 -14.325  0.00  0.00    +0.021 C 
ATOM      6  C   UNL     1      35.004 -24.571 -13.163  0.00  0.00    -0.016 C 
ATOM      7  C   UNL     1      37.279 -22.771 -14.579  0.00  0.00    -0.023 C 
ATOM      8  C   UNL     1      37.124 -23.168 -13.105  0.00  0.00    -0.023 C 
ATOM      9  C   UNL     1      36.777 -26.401 -14.813  0.00  0.00    -0.100 C 
ATOM     10  H   UNL     1      38.123 -25.167 -14.358  0.00  0.00    -0.080 HD
ENDROOT
BRANCH   5  13
ATOM     11 CL   UNL     1      29.932 -22.462 -16.615  0.00  0.00    -0.081 Cl
ATOM     12 CL   UNL     1      28.514 -24.821 -14.913  0.00  0.00    -0.081 Cl
ATOM     13  C   UNL     1      32.929 -23.992 -14.484  0.00  0.00    -0.022 C 
ATOM     14  C   UNL     1      32.180 -23.216 -15.363  0.00  0.00    +0.008 C 
ATOM     15  C   UNL     1      32.323 -25.009 -13.750  0.00  0.00    -0.003 C 
ATOM     16  C   UNL     1      30.813 -23.457 -15.509  0.00  0.00    +0.068 C 
ATOM     17  C   UNL     1      30.957 -25.249 -13.897  0.00  0.00    +0.012 C 
ATOM     18  C   UNL     1      30.202 -24.473 -14.776  0.00  0.00    +0.068 C 
ENDBRANCH   5  13
BRANCH   4  19
ATOM     19  C   UNL     1      34.892 -22.834 -16.671  0.00  0.00    +0.140 C 
BRANCH  19  20
ATOM     20  O   UNL     1      34.366 -23.461 -17.823  0.00  0.00    -0.354 OA
BRANCH  20  21
ATOM     21  C   UNL     1      33.885 -22.513 -18.769  0.00  0.00    +0.142 C 
ATOM     22  C   UNL     1      35.064 -21.788 -19.384  0.00  0.00    +0.035 C 
ENDBRANCH  20  21
ENDBRANCH  19  20
ENDBRANCH   4  19
TORSDOF 4
ENDMDL
MODEL 2
REMARK VINA RESULT:      -8.0      9.217     11.525
REMARK  Name = 11370864
REMARK  4 active torsions:
REMARK  status: ('A' for Active; 'I' for Inactive)
REMARK    1  A    between atoms: C_4  and  C_19
REMARK    2  A    between atoms: C_5  and  C_13
REMARK    3  A    between atoms: C_19  and  O_20
REMARK    4  A    between atoms: O_20  and  C_21
REMARK                            x       y       z     vdW  Elec       q    Type
REMARK                         _______ _______ _______ _____ _____    ______ ____
ROOT
ATOM      1  N   UNL     1      34.597 -19.260 -21.917  0.00  0.00    +0.388 N 
ATOM      2  C   UNL     1      34.910 -18.710 -23.243  0.00  0.00    -0.055 C 
ATOM      3  C   UNL     1      35.345 -18.401 -20.995  0.00  0.00    -0.058 C 
ATOM      4  C   UNL     1      34.289 -17.300 -23.458  0.00  0.00    +0.015 C 
ATOM      5  C   UNL     1      34.752 -16.296 -22.361  0.00  0.00    +0.021 C 
ATOM      6  C   UNL     1      34.801 -16.959 -20.961  0.00  0.00    -0.016 C 
ATOM      7  C   UNL     1      36.443 -18.685 -23.138  0.00  0.00    -0.023 C 
ATOM      8  C   UNL     1      36.731 -18.466 -21.646  0.00  0.00    -0.023 C 
ATOM      9  C   UNL     1      33.192 -19.448 -21.613  0.00  0.00    -0.100 C 
ATOM     10  H   UNL     1      34.886 -20.234 -21.843  0.00  0.00    -0.080 HD
ENDROOT
BRANCH   5  13
ATOM     11 CL   UNL     1      33.848 -11.580 -24.340  0.00  0.00    -0.081 Cl
ATOM     12 CL   UNL     1      31.472 -11.238 -22.170  0.00  0.00    -0.081 Cl
ATOM     13  C   UNL     1      33.936 -15.015 -22.325  0.00  0.00    -0.022 C 
ATOM     14  C   UNL     1      34.212 -13.992 -23.228  0.00  0.00    +0.008 C 
ATOM     15  C   UNL     1      32.914 -14.872 -21.390  0.00  0.00    -0.003 C 
ATOM     16  C   UNL     1      33.462 -12.817 -23.196  0.00  0.00    +0.068 C 
ATOM     17  C   UNL     1      32.164 -13.697 -21.358  0.00  0.00    +0.012 C 
ATOM     18  C   UNL     1      32.438 -12.669 -22.260  0.00  0.00    +0.068 C 
ENDBRANCH   5  13
BRANCH   4  19
ATOM     19  C   UNL     1      34.595 -16.770 -24.867  0.00  0.00    +0.140 C 
BRANCH  19  20
ATOM     20  O   UNL     1      33.682 -17.361 -25.770  0.00  0.00    -0.354 OA
BRANCH  20  21
ATOM     21  C   UNL     1      32.734 -16.417 -26.257  0.00  0.00    +0.142 C 
ATOM     22  C   UNL     1      33.380 -15.048 -26.301  0.00  0.00    +0.035 C 
ENDBRANCH  20  21
ENDBRANCH  19  20
ENDBRANCH   4  19
TORSDOF 4
ENDMDL
MODEL 3
REMARK VINA RESULT:      -7.8      1.304      2.013
REMARK  Name = 11370864
REMARK  4 active torsions:
REMARK  status: ('A' for Active; 'I' for Inactive)
REMARK    1  A    between atoms: C_4  and  C_19
REMARK    2  A    between atoms: C_5  and  C_13
REMARK    3  A    between atoms: C_19  and  O_20
REMARK    4  A    between atoms: O_20  and  C_21
REMARK                            x       y       z     vdW  Elec       q    Type
REMARK                         _______ _______ _______ _____ _____    ______ ____
ROOT
ATOM      1  N   UNL     1      37.599 -25.562 -13.779  0.00  0.00    +0.388 N 
ATOM      2  C   UNL     1      37.705 -24.244 -14.417  0.00  0.00    -0.055 C 
ATOM      3  C   UNL     1      36.716 -25.328 -12.633  0.00  0.00    -0.058 C 
ATOM      4  C   UNL     1      36.365 -23.792 -15.065  0.00  0.00    +0.015 C 
ATOM      5  C   UNL     1      35.205 -23.770 -14.025  0.00  0.00    +0.021 C 
ATOM      6  C   UNL     1      35.276 -24.981 -13.062  0.00  0.00    -0.016 C 
ATOM      7  C   UNL     1      38.093 -23.410 -13.186  0.00  0.00    -0.023 C 
ATOM      8  C   UNL     1      37.423 -24.124 -12.003  0.00  0.00    -0.023 C 
ATOM      9  C   UNL     1      37.240 -26.669 -14.644  0.00  0.00    -0.100 C 
ATOM     10  H   UNL     1      38.513 -25.907 -13.486  0.00  0.00    -0.080 HD
ENDROOT
BRANCH   5  13
ATOM     11 CL   UNL     1      30.055 -24.167 -13.478  0.00  0.00    -0.081 Cl
ATOM     12 CL   UNL     1      29.763 -23.307 -16.584  0.00  0.00    -0.081 Cl
ATOM     13  C   UNL     1      33.826 -23.659 -14.655  0.00  0.00    -0.022 C 
ATOM     14  C   UNL     1      32.693 -23.926 -13.893  0.00  0.00    +0.008 C 
ATOM     15  C   UNL     1      33.705 -23.288 -15.991  0.00  0.00    -0.003 C 
ATOM     16  C   UNL     1      31.428 -23.823 -14.471  0.00  0.00    +0.068 C 
ATOM     17  C   UNL     1      32.440 -23.185 -16.570  0.00  0.00    +0.012 C 
ATOM     18  C   UNL     1      31.302 -23.453 -15.810  0.00  0.00    +0.068 C 
ENDBRANCH   5  13
BRANCH   4  19
ATOM     19  C   UNL     1      36.518 -22.432 -15.762  0.00  0.00    +0.140 C 
BRANCH  19  20
ATOM     20  O   UNL     1      36.933 -22.662 -17.093  0.00  0.00    -0.354 OA
BRANCH  20  21
ATOM     21  C   UNL     1      36.716 -21.523 -17.919  0.00  0.00    +0.142 C 
ATOM     22  C   UNL     1      35.625 -21.841 -18.920  0.00  0.00    +0.035 C 
ENDBRANCH  20  21
ENDBRANCH  19  20
ENDBRANCH   4  19
TORSDOF 4
ENDMDL
MODEL 4
REMARK VINA RESULT:      -7.5     14.024     17.044
REMARK  Name = 11370864
REMARK  4 active torsions:
REMARK  status: ('A' for Active; 'I' for Inactive)
REMARK    1  A    between atoms: C_4  and  C_19
REMARK    2  A    between atoms: C_5  and  C_13
REMARK    3  A    between atoms: C_19  and  O_20
REMARK    4  A    between atoms: O_20  and  C_21
REMARK                            x       y       z     vdW  Elec       q    Type
REMARK                         _______ _______ _______ _____ _____    ______ ____
ROOT
ATOM      1  N   UNL     1      31.784  -6.097 -22.520  0.00  0.00    +0.388 N 
ATOM      2  C   UNL     1      33.094  -6.537 -23.018  0.00  0.00    -0.055 C 
ATOM      3  C   UNL     1      30.828  -6.790 -23.387  0.00  0.00    -0.058 C 
ATOM      4  C   UNL     1      33.358  -8.044 -22.735  0.00  0.00    +0.015 C 
ATOM      5  C   UNL     1      32.244  -8.944 -23.347  0.00  0.00    +0.021 C 
ATOM      6  C   UNL     1      30.838  -8.317 -23.172  0.00  0.00    -0.016 C 
ATOM      7  C   UNL     1      32.901  -6.227 -24.511  0.00  0.00    -0.023 C 
ATOM      8  C   UNL     1      31.397  -6.409 -24.758  0.00  0.00    -0.023 C 
ATOM      9  C   UNL     1      31.561  -6.227 -21.093  0.00  0.00    -0.100 C 
ATOM     10  H   UNL     1      31.685  -5.085 -22.584  0.00  0.00    -0.080 HD
ENDROOT
BRANCH   5  13
ATOM     11 CL   UNL     1      33.681 -13.881 -24.082  0.00  0.00    -0.081 Cl
ATOM     12 CL   UNL     1      32.305 -14.597 -21.242  0.00  0.00    -0.081 Cl
ATOM     13  C   UNL     1      32.267 -10.374 -22.831  0.00  0.00    -0.022 C 
ATOM     14  C   UNL     1      32.882 -11.371 -23.582  0.00  0.00    +0.008 C 
ATOM     15  C   UNL     1      31.674 -10.677 -21.609  0.00  0.00    -0.003 C 
ATOM     16  C   UNL     1      32.904 -12.683 -23.108  0.00  0.00    +0.068 C 
ATOM     17  C   UNL     1      31.696 -11.989 -21.134  0.00  0.00    +0.012 C 
ATOM     18  C   UNL     1      32.310 -12.991 -21.884  0.00  0.00    +0.068 C 
ENDBRANCH   5  13
BRANCH   4  19
ATOM     19  C   UNL     1      34.751  -8.464 -23.226  0.00  0.00    +0.140 C 
BRANCH  19  20
ATOM     20  O   UNL     1      34.631  -8.923 -24.558  0.00  0.00    -0.354 OA
BRANCH  20  21
ATOM     21  C   UNL     1      35.558  -9.964 -24.844  0.00  0.00    +0.142 C 
ATOM     22  C   UNL     1      35.423 -10.359 -26.300  0.00  0.00    +0.035 C 
ENDBRANCH  20  21
ENDBRANCH  19  20
ENDBRANCH   4  19
TORSDOF 4
ENDMDL
MODEL 5
REMARK VINA RESULT:      -7.4      3.046      5.037
REMARK  Name = 11370864
REMARK  4 active torsions:
REMARK  status: ('A' for Active; 'I' for Inactive)
REMARK    1  A    between atoms: C_4  and  C_19
REMARK    2  A    between atoms: C_5  and  C_13
REMARK    3  A    between atoms: C_19  and  O_20
REMARK    4  A    between atoms: O_20  and  C_21
REMARK                            x       y       z     vdW  Elec       q    Type
REMARK                         _______ _______ _______ _____ _____    ______ ____
ROOT
ATOM      1  N   UNL     1      36.183 -24.703 -11.695  0.00  0.00    +0.388 N 
ATOM      2  C   UNL     1      36.786 -25.616 -12.675  0.00  0.00    -0.055 C 
ATOM      3  C   UNL     1      36.959 -23.469 -11.841  0.00  0.00    -0.058 C 
ATOM      4  C   UNL     1      36.513 -25.174 -14.141  0.00  0.00    +0.015 C 
ATOM      5  C   UNL     1      37.019 -23.725 -14.406  0.00  0.00    +0.021 C 
ATOM      6  C   UNL     1      36.731 -22.789 -13.206  0.00  0.00    -0.016 C 
ATOM      7  C   UNL     1      38.261 -25.470 -12.265  0.00  0.00    -0.023 C 
ATOM      8  C   UNL     1      38.376 -24.038 -11.724  0.00  0.00    -0.023 C 
ATOM      9  C   UNL     1      34.741 -24.560 -11.752  0.00  0.00    -0.100 C 
ATOM     10  H   UNL     1      36.247 -25.079 -10.750  0.00  0.00    -0.080 HD
ENDROOT
BRANCH   5  13
ATOM     11 CL   UNL     1      33.025 -23.045 -17.656  0.00  0.00    -0.081 Cl
ATOM     12 CL   UNL     1      34.996 -21.316 -19.552  0.00  0.00    -0.081 Cl
ATOM     13  C   UNL     1      36.493 -23.125 -15.700  0.00  0.00    -0.022 C 
ATOM     14  C   UNL     1      35.165 -23.321 -16.065  0.00  0.00    +0.008 C 
ATOM     15  C   UNL     1      37.345 -22.382 -16.512  0.00  0.00    -0.003 C 
ATOM     16  C   UNL     1      34.683 -22.770 -17.252  0.00  0.00    +0.068 C 
ATOM     17  C   UNL     1      36.863 -21.830 -17.700  0.00  0.00    +0.012 C 
ATOM     18  C   UNL     1      35.533 -22.025 -18.070  0.00  0.00    +0.068 C 
ENDBRANCH   5  13
BRANCH   4  19
ATOM     19  C   UNL     1      37.117 -26.171 -15.141  0.00  0.00    +0.140 C 
BRANCH  19  20
ATOM     20  O   UNL     1      38.378 -26.580 -14.651  0.00  0.00    -0.354 OA
BRANCH  20  21
ATOM     21  C   UNL     1      39.445 -25.902 -15.304  0.00  0.00    +0.142 C 
ATOM     22  C   UNL     1      40.689 -26.000 -14.446  0.00  0.00    +0.035 C 
ENDBRANCH  20  21
ENDBRANCH  19  20
ENDBRANCH   4  19
TORSDOF 4
ENDMDL
MODEL 6
REMARK VINA RESULT:      -7.4      3.422      5.515
REMARK  Name = 11370864
REMARK  4 active torsions:
REMARK  status: ('A' for Active; 'I' for Inactive)
REMARK    1  A    between atoms: C_4  and  C_19
REMARK    2  A    between atoms: C_5  and  C_13
REMARK    3  A    between atoms: C_19  and  O_20
REMARK    4  A    between atoms: O_20  and  C_21
REMARK                            x       y       z     vdW  Elec       q    Type
REMARK                         _______ _______ _______ _____ _____    ______ ____
ROOT
ATOM      1  N   UNL     1      30.709 -23.092 -14.462  0.00  0.00    +0.388 N 
ATOM      2  C   UNL     1      31.328 -23.228 -15.787  0.00  0.00    -0.055 C 
ATOM      3  C   UNL     1      30.869 -24.419 -13.862  0.00  0.00    -0.058 C 
ATOM      4  C   UNL     1      32.870 -23.417 -15.702  0.00  0.00    +0.015 C 
ATOM      5  C   UNL     1      33.248 -24.649 -14.827  0.00  0.00    +0.021 C 
ATOM      6  C   UNL     1      32.345 -24.761 -13.574  0.00  0.00    -0.016 C 
ATOM      7  C   UNL     1      30.591 -24.487 -16.270  0.00  0.00    -0.023 C 
ATOM      8  C   UNL     1      30.299 -25.284 -14.991  0.00  0.00    -0.023 C 
ATOM      9  C   UNL     1      31.154 -21.971 -13.656  0.00  0.00    -0.100 C 
ATOM     10  H   UNL     1      29.728 -22.828 -14.536  0.00  0.00    -0.080 HD
ENDROOT
BRANCH   5  13
ATOM     11 CL   UNL     1      37.057 -22.914 -11.750  0.00  0.00    -0.081 Cl
ATOM     12 CL   UNL     1      39.090 -24.865 -13.341  0.00  0.00    -0.081 Cl
ATOM     13  C   UNL     1      34.718 -24.691 -14.440  0.00  0.00    -0.022 C 
ATOM     14  C   UNL     1      35.184 -23.890 -13.402  0.00  0.00    +0.008 C 
ATOM     15  C   UNL     1      35.589 -25.532 -15.127  0.00  0.00    -0.003 C 
ATOM     16  C   UNL     1      36.533 -23.930 -13.047  0.00  0.00    +0.068 C 
ATOM     17  C   UNL     1      36.937 -25.572 -14.773  0.00  0.00    +0.012 C 
ATOM     18  C   UNL     1      37.409 -24.771 -13.733  0.00  0.00    +0.068 C 
ENDBRANCH   5  13
BRANCH   4  19
ATOM     19  C   UNL     1      33.494 -23.511 -17.102  0.00  0.00    +0.140 C 
BRANCH  19  20
ATOM     20  O   UNL     1      32.931 -22.495 -17.907  0.00  0.00    -0.354 OA
BRANCH  20  21
ATOM     21  C   UNL     1      33.780 -22.150 -18.995  0.00  0.00    +0.142 C 
ATOM     22  C   UNL     1      33.182 -20.970 -19.733  0.00  0.00    +0.035 C 
ENDBRANCH  20  21
ENDBRANCH  19  20
ENDBRANCH   4  19
TORSDOF 4
ENDMDL
MODEL 7
REMARK VINA RESULT:      -7.3      7.016      9.978
REMARK  Name = 11370864
REMARK  4 active torsions:
REMARK  status: ('A' for Active; 'I' for Inactive)
REMARK    1  A    between atoms: C_4  and  C_19
REMARK    2  A    between atoms: C_5  and  C_13
REMARK    3  A    between atoms: C_19  and  O_20
REMARK    4  A    between atoms: O_20  and  C_21
REMARK                            x       y       z     vdW  Elec       q    Type
REMARK                         _______ _______ _______ _____ _____    ______ ____
ROOT
ATOM      1  N   UNL     1      34.282 -14.263 -21.402  0.00  0.00    +0.388 N 
ATOM      2  C   UNL     1      34.701 -15.020 -22.589  0.00  0.00    -0.055 C 
ATOM      3  C   UNL     1      32.914 -14.728 -21.154  0.00  0.00    -0.058 C 
ATOM      4  C   UNL     1      34.870 -16.537 -22.293  0.00  0.00    +0.015 C 
ATOM      5  C   UNL     1      33.561 -17.158 -21.721  0.00  0.00    +0.021 C 
ATOM      6  C   UNL     1      32.865 -16.206 -20.718  0.00  0.00    -0.016 C 
ATOM      7  C   UNL     1      33.506 -14.712 -23.506  0.00  0.00    -0.023 C 
ATOM      8  C   UNL     1      32.317 -14.532 -22.552  0.00  0.00    -0.023 C 
ATOM      9  C   UNL     1      35.182 -14.298 -20.265  0.00  0.00    -0.100 C 
ATOM     10  H   UNL     1      34.313 -13.259 -21.573  0.00  0.00    -0.080 HD
ENDROOT
BRANCH   5  13
ATOM     11 CL   UNL     1      36.844 -20.834 -20.082  0.00  0.00    -0.081 Cl
ATOM     12 CL   UNL     1      34.273 -22.636 -19.300  0.00  0.00    -0.081 Cl
ATOM     13  C   UNL     1      33.758 -18.537 -21.113  0.00  0.00    -0.022 C 
ATOM     14  C   UNL     1      35.044 -19.020 -20.893  0.00  0.00    +0.008 C 
ATOM     15  C   UNL     1      32.649 -19.309 -20.778  0.00  0.00    -0.003 C 
ATOM     16  C   UNL     1      35.224 -20.285 -20.333  0.00  0.00    +0.068 C 
ATOM     17  C   UNL     1      32.829 -20.574 -20.218  0.00  0.00    +0.012 C 
ATOM     18  C   UNL     1      34.116 -21.062 -19.996  0.00  0.00    +0.068 C 
ENDBRANCH   5  13
BRANCH   4  19
ATOM     19  C   UNL     1      35.352 -17.294 -23.540  0.00  0.00    +0.140 C 
BRANCH  19  20
ATOM     20  O   UNL     1      34.305 -17.294 -24.489  0.00  0.00    -0.354 OA
BRANCH  20  21
ATOM     21  C   UNL     1      34.241 -18.522 -25.206  0.00  0.00    +0.142 C 
ATOM     22  C   UNL     1      34.920 -19.604 -24.393  0.00  0.00    +0.035 C 
ENDBRANCH  20  21
ENDBRANCH  19  20
ENDBRANCH   4  19
TORSDOF 4
ENDMDL
MODEL 8
REMARK VINA RESULT:      -7.3     13.859     16.251
REMARK  Name = 11370864
REMARK  4 active torsions:
REMARK  status: ('A' for Active; 'I' for Inactive)
REMARK    1  A    between atoms: C_4  and  C_19
REMARK    2  A    between atoms: C_5  and  C_13
REMARK    3  A    between atoms: C_19  and  O_20
REMARK    4  A    between atoms: O_20  and  C_21
REMARK                            x       y       z     vdW  Elec       q    Type
REMARK                         _______ _______ _______ _____ _____    ______ ____
ROOT
ATOM      1  N   UNL     1      32.028  -7.532 -23.294  0.00  0.00    +0.388 N 
ATOM      2  C   UNL     1      31.944  -8.434 -22.138  0.00  0.00    -0.055 C 
ATOM      3  C   UNL     1      33.416  -7.666 -23.744  0.00  0.00    -0.058 C 
ATOM      4  C   UNL     1      32.061  -9.931 -22.547  0.00  0.00    +0.015 C 
ATOM      5  C   UNL     1      33.381 -10.210 -23.325  0.00  0.00    +0.021 C 
ATOM      6  C   UNL     1      33.716  -9.067 -24.315  0.00  0.00    -0.016 C 
ATOM      7  C   UNL     1      33.160  -7.927 -21.347  0.00  0.00    -0.023 C 
ATOM      8  C   UNL     1      34.143  -7.430 -22.417  0.00  0.00    -0.023 C 
ATOM      9  C   UNL     1      31.009  -7.695 -24.314  0.00  0.00    -0.100 C 
ATOM     10  H   UNL     1      31.808  -6.572 -23.032  0.00  0.00    -0.080 HD
ENDROOT
BRANCH   5  13
ATOM     11 CL   UNL     1      33.340 -15.390 -22.941  0.00  0.00    -0.081 Cl
ATOM     12 CL   UNL     1      33.451 -15.527 -26.172  0.00  0.00    -0.081 Cl
ATOM     13  C   UNL     1      33.399 -11.558 -24.027  0.00  0.00    -0.022 C 
ATOM     14  C   UNL     1      33.366 -12.730 -23.277  0.00  0.00    +0.008 C 
ATOM     15  C   UNL     1      33.447 -11.612 -25.417  0.00  0.00    -0.003 C 
ATOM     16  C   UNL     1      33.382 -13.967 -23.922  0.00  0.00    +0.068 C 
ATOM     17  C   UNL     1      33.462 -12.849 -26.062  0.00  0.00    +0.012 C 
ATOM     18  C   UNL     1      33.430 -14.026 -25.314  0.00  0.00    +0.068 C 
ENDBRANCH   5  13
BRANCH   4  19
ATOM     19  C   UNL     1      31.925 -10.851 -21.325  0.00  0.00    +0.140 C 
BRANCH  19  20
ATOM     20  O   UNL     1      30.601 -10.749 -20.840  0.00  0.00    -0.354 OA
BRANCH  20  21
ATOM     21  C   UNL     1      30.559 -10.726 -19.417  0.00  0.00    +0.142 C 
ATOM     22  C   UNL     1      31.941 -10.406 -18.888  0.00  0.00    +0.035 C 
ENDBRANCH  20  21
ENDBRANCH  19  20
ENDBRANCH   4  19
TORSDOF 4
ENDMDL
MODEL 9
REMARK VINA RESULT:      -7.1      3.456      5.552
REMARK  Name = 11370864
REMARK  4 active torsions:
REMARK  status: ('A' for Active; 'I' for Inactive)
REMARK    1  A    between atoms: C_4  and  C_19
REMARK    2  A    between atoms: C_5  and  C_13
REMARK    3  A    between atoms: C_19  and  O_20
REMARK    4  A    between atoms: O_20  and  C_21
REMARK                            x       y       z     vdW  Elec       q    Type
REMARK                         _______ _______ _______ _____ _____    ______ ____
ROOT
ATOM      1  N   UNL     1      30.293 -23.193 -14.668  0.00  0.00    +0.388 N 
ATOM      2  C   UNL     1      31.081 -23.325 -15.900  0.00  0.00    -0.055 C 
ATOM      3  C   UNL     1      30.449 -24.492 -14.010  0.00  0.00    -0.058 C 
ATOM      4  C   UNL     1      32.608 -23.418 -15.617  0.00  0.00    +0.015 C 
ATOM      5  C   UNL     1      32.942 -24.602 -14.662  0.00  0.00    +0.021 C 
ATOM      6  C   UNL     1      31.894 -24.737 -13.529  0.00  0.00    -0.016 C 
ATOM      7  C   UNL     1      30.483 -24.638 -16.430  0.00  0.00    -0.023 C 
ATOM      8  C   UNL     1      30.077 -25.418 -15.172  0.00  0.00    -0.023 C 
ATOM      9  C   UNL     1      30.567 -22.027 -13.850  0.00  0.00    -0.100 C 
ATOM     10  H   UNL     1      29.315 -22.990 -14.874  0.00  0.00    -0.080 HD
ENDROOT
BRANCH   5  13
ATOM     11 CL   UNL     1      37.919 -26.039 -15.042  0.00  0.00    -0.081 Cl
ATOM     12 CL   UNL     1      38.509 -24.334 -12.356  0.00  0.00    -0.081 Cl
ATOM     13  C   UNL     1      34.350 -24.545 -14.093  0.00  0.00    -0.022 C 
ATOM     14  C   UNL     1      35.382 -25.227 -14.731  0.00  0.00    +0.008 C 
ATOM     15  C   UNL     1      34.600 -23.810 -12.938  0.00  0.00    -0.003 C 
ATOM     16  C   UNL     1      36.675 -25.173 -14.209  0.00  0.00    +0.068 C 
ATOM     17  C   UNL     1      35.892 -23.757 -12.416  0.00  0.00    +0.012 C 
ATOM     18  C   UNL     1      36.929 -24.439 -13.052  0.00  0.00    +0.068 C 
ENDBRANCH   5  13
BRANCH   4  19
ATOM     19  C   UNL     1      33.409 -23.510 -16.924  0.00  0.00    +0.140 C 
BRANCH  19  20
ATOM     20  O   UNL     1      32.861 -22.588 -17.845  0.00  0.00    -0.354 OA
BRANCH  20  21
ATOM     21  C   UNL     1      33.753 -22.320 -18.921  0.00  0.00    +0.142 C 
ATOM     22  C   UNL     1      33.278 -21.086 -19.660  0.00  0.00    +0.035 C 
ENDBRANCH  20  21
ENDBRANCH  19  20
ENDBRANCH   4  19
TORSDOF 4
ENDMDL
