MODEL 1
REMARK VINA RESULT:      -8.6      0.000      0.000
REMARK  Name = 447336
REMARK  7 active torsions:
REMARK  status: ('A' for Active; 'I' for Inactive)
REMARK    1  A    between atoms: C_1  and  C_2
REMARK    2  A    between atoms: C_1  and  N_8
REMARK    3  A    between atoms: C_1  and  P_18
REMARK    4  A    between atoms: N_8  and  C_11
REMARK    5  A    between atoms: C_11  and  C_12
REMARK    6  A    between atoms: P_18  and  O_20
REMARK    7  A    between atoms: P_18  and  O_22
REMARK                            x       y       z     vdW  Elec       q    Type
REMARK                         _______ _______ _______ _____ _____    ______ ____
ROOT
ATOM      1  C   UNL     1      35.106 -18.101 -21.430  0.00  0.00    +0.069 C 
ENDROOT
BRANCH   1   2
ATOM      2  C   UNL     1      34.591 -19.357 -20.763  0.00  0.00    -0.031 C 
ATOM      3  C   UNL     1      33.225 -19.547 -20.642  0.00  0.00    -0.006 C 
ATOM      4  C   UNL     1      35.496 -20.290 -20.286  0.00  0.00    -0.006 C 
ATOM      5  C   UNL     1      32.749 -20.705 -20.026  0.00  0.00    -0.000 C 
ATOM      6  C   UNL     1      35.020 -21.448 -19.671  0.00  0.00    -0.000 C 
ATOM      7  C   UNL     1      33.646 -21.655 -19.541  0.00  0.00    -0.000 C 
ENDBRANCH   1   2
BRANCH   1   8
ATOM      8  N   UNL     1      34.103 -17.052 -21.625  0.00  0.00    +0.398 N 
ATOM      9  H   UNL     1      33.195 -17.410 -21.330  0.00  0.00    -0.083 HD
ATOM     10  H   UNL     1      34.109 -16.803 -22.614  0.00  0.00    -0.083 HD
BRANCH   8  11
ATOM     11  C   UNL     1      34.394 -15.844 -20.867  0.00  0.00    -0.053 C 
BRANCH  11  12
ATOM     12  C   UNL     1      33.697 -14.659 -21.477  0.00  0.00    -0.044 C 
ATOM     13  C   UNL     1      32.659 -14.046 -20.788  0.00  0.00    -0.006 C 
ATOM     14  C   UNL     1      34.099 -14.192 -22.721  0.00  0.00    -0.006 C 
ATOM     15  C   UNL     1      32.012 -12.947 -21.352  0.00  0.00    -0.000 C 
ATOM     16  C   UNL     1      33.452 -13.093 -23.287  0.00  0.00    -0.000 C 
ATOM     17  C   UNL     1      32.409 -12.471 -22.603  0.00  0.00    -0.000 C 
ENDBRANCH  11  12
ENDBRANCH   8  11
ENDBRANCH   1   8
BRANCH   1  18
ATOM     18  P   UNL     1      35.702 -18.305 -23.117  0.00  0.00    +0.321 P 
ATOM     19  O   UNL     1      35.020 -19.363 -23.934  0.00  0.00    -0.260 OA
BRANCH  18  20
ATOM     20  O   UNL     1      35.624 -16.811 -23.737  0.00  0.00    -0.325 OA
ATOM     21  H   UNL     1      35.711 -16.160 -23.023  0.00  0.00    +0.220 HD
ENDBRANCH  18  20
BRANCH  18  22
ATOM     22  O   UNL     1      37.293 -18.524 -22.920  0.00  0.00    -0.325 OA
ATOM     23  H   UNL     1      37.699 -18.736 -23.775  0.00  0.00    +0.220 HD
ENDBRANCH  18  22
ENDBRANCH   1  18
TORSDOF 7
ENDMDL
MODEL 2
REMARK VINA RESULT:      -8.4      6.837      8.823
REMARK  Name = 447336
REMARK  7 active torsions:
REMARK  status: ('A' for Active; 'I' for Inactive)
REMARK    1  A    between atoms: C_1  and  C_2
REMARK    2  A    between atoms: C_1  and  N_8
REMARK    3  A    between atoms: C_1  and  P_18
REMARK    4  A    between atoms: N_8  and  C_11
REMARK    5  A    between atoms: C_11  and  C_12
REMARK    6  A    between atoms: P_18  and  O_20
REMARK    7  A    between atoms: P_18  and  O_22
REMARK                            x       y       z     vdW  Elec       q    Type
REMARK                         _______ _______ _______ _____ _____    ______ ____
ROOT
ATOM      1  C   UNL     1      34.171 -24.166 -15.706  0.00  0.00    +0.069 C 
ENDROOT
BRANCH   1   2
ATOM      2  C   UNL     1      35.629 -24.409 -15.390  0.00  0.00    -0.031 C 
ATOM      3  C   UNL     1      36.033 -25.670 -14.985  0.00  0.00    -0.006 C 
ATOM      4  C   UNL     1      36.532 -23.365 -15.513  0.00  0.00    -0.006 C 
ATOM      5  C   UNL     1      37.378 -25.894 -14.693  0.00  0.00    -0.000 C 
ATOM      6  C   UNL     1      37.877 -23.591 -15.221  0.00  0.00    -0.000 C 
ATOM      7  C   UNL     1      38.300 -24.855 -14.811  0.00  0.00    -0.000 C 
ENDBRANCH   1   2
BRANCH   1   8
ATOM      8  N   UNL     1      33.899 -22.935 -16.451  0.00  0.00    +0.398 N 
ATOM      9  H   UNL     1      34.754 -22.379 -16.487  0.00  0.00    -0.083 HD
ATOM     10  H   UNL     1      33.147 -22.444 -15.968  0.00  0.00    -0.083 HD
BRANCH   8  11
ATOM     11  C   UNL     1      33.453 -23.186 -17.814  0.00  0.00    -0.053 C 
BRANCH  11  12
ATOM     12  C   UNL     1      34.030 -22.164 -18.755  0.00  0.00    -0.044 C 
ATOM     13  C   UNL     1      33.178 -21.374 -19.514  0.00  0.00    -0.006 C 
ATOM     14  C   UNL     1      35.408 -22.024 -18.853  0.00  0.00    -0.006 C 
ATOM     15  C   UNL     1      33.712 -20.426 -20.387  0.00  0.00    -0.000 C 
ATOM     16  C   UNL     1      35.944 -21.076 -19.725  0.00  0.00    -0.000 C 
ATOM     17  C   UNL     1      35.095 -20.278 -20.492  0.00  0.00    -0.000 C 
ENDBRANCH  11  12
ENDBRANCH   8  11
ENDBRANCH   1   8
BRANCH   1  18
ATOM     18  P   UNL     1      33.094 -23.932 -14.281  0.00  0.00    +0.321 P 
ATOM     19  O   UNL     1      31.981 -22.941 -14.452  0.00  0.00    -0.260 OA
BRANCH  18  20
ATOM     20  O   UNL     1      32.617 -25.433 -13.908  0.00  0.00    -0.325 OA
ATOM     21  H   UNL     1      32.514 -25.511 -12.947  0.00  0.00    +0.220 HD
ENDBRANCH  18  20
BRANCH  18  22
ATOM     22  O   UNL     1      34.133 -23.584 -13.090  0.00  0.00    -0.325 OA
ATOM     23  H   UNL     1      33.988 -24.189 -12.347  0.00  0.00    +0.220 HD
ENDBRANCH  18  22
ENDBRANCH   1  18
TORSDOF 7
ENDMDL
MODEL 3
REMARK VINA RESULT:      -8.3      6.008      8.178
REMARK  Name = 447336
REMARK  7 active torsions:
REMARK  status: ('A' for Active; 'I' for Inactive)
REMARK    1  A    between atoms: C_1  and  C_2
REMARK    2  A    between atoms: C_1  and  N_8
REMARK    3  A    between atoms: C_1  and  P_18
REMARK    4  A    between atoms: N_8  and  C_11
REMARK    5  A    between atoms: C_11  and  C_12
REMARK    6  A    between atoms: P_18  and  O_20
REMARK    7  A    between atoms: P_18  and  O_22
REMARK                            x       y       z     vdW  Elec       q    Type
REMARK                         _______ _______ _______ _____ _____    ______ ____
ROOT
ATOM      1  C   UNL     1      33.898 -22.971 -15.860  0.00  0.00    +0.069 C 
ENDROOT
BRANCH   1   2
ATOM      2  C   UNL     1      32.701 -23.487 -15.094  0.00  0.00    -0.031 C 
ATOM      3  C   UNL     1      31.528 -22.751 -15.096  0.00  0.00    -0.006 C 
ATOM      4  C   UNL     1      32.802 -24.685 -14.407  0.00  0.00    -0.006 C 
ATOM      5  C   UNL     1      30.424 -23.226 -14.389  0.00  0.00    -0.000 C 
ATOM      6  C   UNL     1      31.696 -25.160 -13.701  0.00  0.00    -0.000 C 
ATOM      7  C   UNL     1      30.507 -24.431 -13.692  0.00  0.00    -0.000 C 
ENDBRANCH   1   2
BRANCH   1   8
ATOM      8  N   UNL     1      33.969 -23.405 -17.257  0.00  0.00    +0.398 N 
ATOM      9  H   UNL     1      33.721 -24.393 -17.305  0.00  0.00    -0.083 HD
ATOM     10  H   UNL     1      34.921 -23.237 -17.582  0.00  0.00    -0.083 HD
BRANCH   8  11
ATOM     11  C   UNL     1      33.072 -22.658 -18.127  0.00  0.00    -0.053 C 
BRANCH  11  12
ATOM     12  C   UNL     1      33.855 -21.778 -19.062  0.00  0.00    -0.044 C 
ATOM     13  C   UNL     1      35.234 -21.916 -19.138  0.00  0.00    -0.006 C 
ATOM     14  C   UNL     1      33.189 -20.838 -19.837  0.00  0.00    -0.006 C 
ATOM     15  C   UNL     1      35.961 -21.100 -20.004  0.00  0.00    -0.000 C 
ATOM     16  C   UNL     1      33.915 -20.021 -20.704  0.00  0.00    -0.000 C 
ATOM     17  C   UNL     1      35.301 -20.152 -20.787  0.00  0.00    -0.000 C 
ENDBRANCH  11  12
ENDBRANCH   8  11
ENDBRANCH   1   8
BRANCH   1  18
ATOM     18  P   UNL     1      35.504 -23.527 -15.261  0.00  0.00    +0.321 P 
ATOM     19  O   UNL     1      35.831 -24.971 -15.497  0.00  0.00    -0.260 OA
BRANCH  18  20
ATOM     20  O   UNL     1      36.545 -22.477 -15.920  0.00  0.00    -0.325 OA
ATOM     21  H   UNL     1      36.389 -22.423 -16.875  0.00  0.00    +0.220 HD
ENDBRANCH  18  20
BRANCH  18  22
ATOM     22  O   UNL     1      35.488 -23.083 -13.705  0.00  0.00    -0.325 OA
ATOM     23  H   UNL     1      34.573 -22.934 -13.420  0.00  0.00    +0.220 HD
ENDBRANCH  18  22
ENDBRANCH   1  18
TORSDOF 7
ENDMDL
MODEL 4
REMARK VINA RESULT:      -8.3      2.539      6.651
REMARK  Name = 447336
REMARK  7 active torsions:
REMARK  status: ('A' for Active; 'I' for Inactive)
REMARK    1  A    between atoms: C_1  and  C_2
REMARK    2  A    between atoms: C_1  and  N_8
REMARK    3  A    between atoms: C_1  and  P_18
REMARK    4  A    between atoms: N_8  and  C_11
REMARK    5  A    between atoms: C_11  and  C_12
REMARK    6  A    between atoms: P_18  and  O_20
REMARK    7  A    between atoms: P_18  and  O_22
REMARK                            x       y       z     vdW  Elec       q    Type
REMARK                         _______ _______ _______ _____ _____    ______ ____
ROOT
ATOM      1  C   UNL     1      34.564 -15.781 -22.572  0.00  0.00    +0.069 C 
ENDROOT
BRANCH   1   2
ATOM      2  C   UNL     1      34.050 -15.147 -23.844  0.00  0.00    -0.031 C 
ATOM      3  C   UNL     1      33.767 -15.952 -24.935  0.00  0.00    -0.006 C 
ATOM      4  C   UNL     1      33.873 -13.774 -23.894  0.00  0.00    -0.006 C 
ATOM      5  C   UNL     1      33.294 -15.367 -26.109  0.00  0.00    -0.000 C 
ATOM      6  C   UNL     1      33.399 -13.190 -25.068  0.00  0.00    -0.000 C 
ATOM      7  C   UNL     1      33.109 -13.986 -26.176  0.00  0.00    -0.000 C 
ENDBRANCH   1   2
BRANCH   1   8
ATOM      8  N   UNL     1      34.337 -17.224 -22.468  0.00  0.00    +0.398 N 
ATOM      9  H   UNL     1      34.020 -17.571 -23.374  0.00  0.00    -0.083 HD
ATOM     10  H   UNL     1      33.639 -17.373 -21.739  0.00  0.00    -0.083 HD
BRANCH   8  11
ATOM     11  C   UNL     1      35.534 -17.958 -22.084  0.00  0.00    -0.053 C 
BRANCH  11  12
ATOM     12  C   UNL     1      35.175 -19.140 -21.226  0.00  0.00    -0.044 C 
ATOM     13  C   UNL     1      36.184 -19.889 -20.635  0.00  0.00    -0.006 C 
ATOM     14  C   UNL     1      33.839 -19.470 -21.036  0.00  0.00    -0.006 C 
ATOM     15  C   UNL     1      35.852 -20.986 -19.839  0.00  0.00    -0.000 C 
ATOM     16  C   UNL     1      33.506 -20.566 -20.241  0.00  0.00    -0.000 C 
ATOM     17  C   UNL     1      34.513 -21.324 -19.643  0.00  0.00    -0.000 C 
ENDBRANCH  11  12
ENDBRANCH   8  11
ENDBRANCH   1   8
BRANCH   1  18
ATOM     18  P   UNL     1      33.784 -15.215 -21.050  0.00  0.00    +0.321 P 
ATOM     19  O   UNL     1      33.311 -13.792 -21.042  0.00  0.00    -0.260 OA
BRANCH  18  20
ATOM     20  O   UNL     1      32.630 -16.317 -20.775  0.00  0.00    -0.325 OA
ATOM     21  H   UNL     1      32.650 -16.987 -21.476  0.00  0.00    +0.220 HD
ENDBRANCH  18  20
BRANCH  18  22
ATOM     22  O   UNL     1      34.887 -15.568 -19.920  0.00  0.00    -0.325 OA
ATOM     23  H   UNL     1      35.688 -15.910 -20.345  0.00  0.00    +0.220 HD
ENDBRANCH  18  22
ENDBRANCH   1  18
TORSDOF 7
ENDMDL
MODEL 5
REMARK VINA RESULT:      -8.3      7.647      9.914
REMARK  Name = 447336
REMARK  7 active torsions:
REMARK  status: ('A' for Active; 'I' for Inactive)
REMARK    1  A    between atoms: C_1  and  C_2
REMARK    2  A    between atoms: C_1  and  N_8
REMARK    3  A    between atoms: C_1  and  P_18
REMARK    4  A    between atoms: N_8  and  C_11
REMARK    5  A    between atoms: C_11  and  C_12
REMARK    6  A    between atoms: P_18  and  O_20
REMARK    7  A    between atoms: P_18  and  O_22
REMARK                            x       y       z     vdW  Elec       q    Type
REMARK                         _______ _______ _______ _____ _____    ______ ____
ROOT
ATOM      1  C   UNL     1      34.510 -23.804 -15.394  0.00  0.00    +0.069 C 
ENDROOT
BRANCH   1   2
ATOM      2  C   UNL     1      34.684 -23.098 -16.719  0.00  0.00    -0.031 C 
ATOM      3  C   UNL     1      33.646 -23.113 -17.635  0.00  0.00    -0.006 C 
ATOM      4  C   UNL     1      35.879 -22.452 -16.990  0.00  0.00    -0.006 C 
ATOM      5  C   UNL     1      33.807 -22.463 -18.859  0.00  0.00    -0.000 C 
ATOM      6  C   UNL     1      36.039 -21.802 -18.214  0.00  0.00    -0.000 C 
ATOM      7  C   UNL     1      35.003 -21.807 -19.148  0.00  0.00    -0.000 C 
ENDBRANCH   1   2
BRANCH   1   8
ATOM      8  N   UNL     1      33.806 -23.027 -14.371  0.00  0.00    +0.398 N 
ATOM      9  H   UNL     1      33.291 -22.275 -14.829  0.00  0.00    -0.083 HD
ATOM     10  H   UNL     1      34.507 -22.667 -13.723  0.00  0.00    -0.083 HD
BRANCH   8  11
ATOM     11  C   UNL     1      32.867 -23.828 -13.599  0.00  0.00    -0.053 C 
BRANCH  11  12
ATOM     12  C   UNL     1      31.544 -23.919 -14.310  0.00  0.00    -0.044 C 
ATOM     13  C   UNL     1      30.811 -25.097 -14.245  0.00  0.00    -0.006 C 
ATOM     14  C   UNL     1      31.072 -22.825 -15.023  0.00  0.00    -0.006 C 
ATOM     15  C   UNL     1      29.585 -25.182 -14.903  0.00  0.00    -0.000 C 
ATOM     16  C   UNL     1      29.845 -22.910 -15.683  0.00  0.00    -0.000 C 
ATOM     17  C   UNL     1      29.103 -24.088 -15.623  0.00  0.00    -0.000 C 
ENDBRANCH  11  12
ENDBRANCH   8  11
ENDBRANCH   1   8
BRANCH   1  18
ATOM     18  P   UNL     1      36.032 -24.201 -14.516  0.00  0.00    +0.321 P 
ATOM     19  O   UNL     1      36.743 -23.045 -13.876  0.00  0.00    -0.260 OA
BRANCH  18  20
ATOM     20  O   UNL     1      35.593 -25.379 -13.496  0.00  0.00    -0.325 OA
ATOM     21  H   UNL     1      35.815 -26.240 -13.884  0.00  0.00    +0.220 HD
ENDBRANCH  18  20
BRANCH  18  22
ATOM     22  O   UNL     1      36.899 -24.996 -15.627  0.00  0.00    -0.325 OA
ATOM     23  H   UNL     1      36.681 -25.941 -15.592  0.00  0.00    +0.220 HD
ENDBRANCH  18  22
ENDBRANCH   1  18
TORSDOF 7
ENDMDL
MODEL 6
REMARK VINA RESULT:      -8.3      4.116      6.019
REMARK  Name = 447336
REMARK  7 active torsions:
REMARK  status: ('A' for Active; 'I' for Inactive)
REMARK    1  A    between atoms: C_1  and  C_2
REMARK    2  A    between atoms: C_1  and  N_8
REMARK    3  A    between atoms: C_1  and  P_18
REMARK    4  A    between atoms: N_8  and  C_11
REMARK    5  A    between atoms: C_11  and  C_12
REMARK    6  A    between atoms: P_18  and  O_20
REMARK    7  A    between atoms: P_18  and  O_22
REMARK                            x       y       z     vdW  Elec       q    Type
REMARK                         _______ _______ _______ _____ _____    ______ ____
ROOT
ATOM      1  C   UNL     1      34.055 -13.469 -24.886  0.00  0.00    +0.069 C 
ENDROOT
BRANCH   1   2
ATOM      2  C   UNL     1      33.726 -14.004 -23.510  0.00  0.00    -0.031 C 
ATOM      3  C   UNL     1      34.554 -14.955 -22.939  0.00  0.00    -0.006 C 
ATOM      4  C   UNL     1      32.603 -13.533 -22.851  0.00  0.00    -0.006 C 
ATOM      5  C   UNL     1      34.250 -15.450 -21.671  0.00  0.00    -0.000 C 
ATOM      6  C   UNL     1      32.300 -14.028 -21.583  0.00  0.00    -0.000 C 
ATOM      7  C   UNL     1      33.124 -14.987 -20.992  0.00  0.00    -0.000 C 
ENDBRANCH   1   2
BRANCH   1   8
ATOM      8  N   UNL     1      33.504 -12.144 -25.179  0.00  0.00    +0.398 N 
ATOM      9  H   UNL     1      32.816 -11.911 -24.462  0.00  0.00    -0.083 HD
ATOM     10  H   UNL     1      33.085 -12.185 -26.107  0.00  0.00    -0.083 HD
BRANCH   8  11
ATOM     11  C   UNL     1      34.520 -11.102 -25.202  0.00  0.00    -0.053 C 
BRANCH  11  12
ATOM     12  C   UNL     1      34.141  -9.976 -24.279  0.00  0.00    -0.044 C 
ATOM     13  C   UNL     1      34.935  -8.837 -24.227  0.00  0.00    -0.006 C 
ATOM     14  C   UNL     1      33.004 -10.088 -23.490  0.00  0.00    -0.006 C 
ATOM     15  C   UNL     1      34.585  -7.793 -23.371  0.00  0.00    -0.000 C 
ATOM     16  C   UNL     1      32.653  -9.044 -22.634  0.00  0.00    -0.000 C 
ATOM     17  C   UNL     1      33.444  -7.897 -22.575  0.00  0.00    -0.000 C 
ENDBRANCH  11  12
ENDBRANCH   8  11
ENDBRANCH   1   8
BRANCH   1  18
ATOM     18  P   UNL     1      33.393 -14.414 -26.268  0.00  0.00    +0.321 P 
ATOM     19  O   UNL     1      33.656 -15.890 -26.244  0.00  0.00    -0.260 OA
BRANCH  18  20
ATOM     20  O   UNL     1      31.827 -14.003 -26.301  0.00  0.00    -0.325 OA
ATOM     21  H   UNL     1      31.390 -14.453 -27.041  0.00  0.00    +0.220 HD
ENDBRANCH  18  20
BRANCH  18  22
ATOM     22  O   UNL     1      33.990 -13.642 -27.559  0.00  0.00    -0.325 OA
ATOM     23  H   UNL     1      33.516 -13.929 -28.355  0.00  0.00    +0.220 HD
ENDBRANCH  18  22
ENDBRANCH   1  18
TORSDOF 7
ENDMDL
MODEL 7
REMARK VINA RESULT:      -8.2      9.392     10.848
REMARK  Name = 447336
REMARK  7 active torsions:
REMARK  status: ('A' for Active; 'I' for Inactive)
REMARK    1  A    between atoms: C_1  and  C_2
REMARK    2  A    between atoms: C_1  and  N_8
REMARK    3  A    between atoms: C_1  and  P_18
REMARK    4  A    between atoms: N_8  and  C_11
REMARK    5  A    between atoms: C_11  and  C_12
REMARK    6  A    between atoms: P_18  and  O_20
REMARK    7  A    between atoms: P_18  and  O_22
REMARK                            x       y       z     vdW  Elec       q    Type
REMARK                         _______ _______ _______ _____ _____    ______ ____
ROOT
ATOM      1  C   UNL     1      36.448 -24.799 -14.803  0.00  0.00    +0.069 C 
ENDROOT
BRANCH   1   2
ATOM      2  C   UNL     1      36.509 -24.294 -13.379  0.00  0.00    -0.031 C 
ATOM      3  C   UNL     1      35.555 -24.719 -12.470  0.00  0.00    -0.006 C 
ATOM      4  C   UNL     1      37.516 -23.417 -13.013  0.00  0.00    -0.006 C 
ATOM      5  C   UNL     1      35.610 -24.253 -11.156  0.00  0.00    -0.000 C 
ATOM      6  C   UNL     1      37.571 -22.953 -11.699  0.00  0.00    -0.000 C 
ATOM      7  C   UNL     1      36.618 -23.370 -10.771  0.00  0.00    -0.000 C 
ENDBRANCH   1   2
BRANCH   1   8
ATOM      8  N   UNL     1      35.096 -24.978 -15.336  0.00  0.00    +0.398 N 
ATOM      9  H   UNL     1      34.460 -25.155 -14.558  0.00  0.00    -0.083 HD
ATOM     10  H   UNL     1      35.125 -25.761 -15.989  0.00  0.00    -0.083 HD
BRANCH   8  11
ATOM     11  C   UNL     1      34.618 -23.814 -16.069  0.00  0.00    -0.053 C 
BRANCH  11  12
ATOM     12  C   UNL     1      33.199 -23.496 -15.686  0.00  0.00    -0.044 C 
ATOM     13  C   UNL     1      32.263 -23.239 -16.679  0.00  0.00    -0.006 C 
ATOM     14  C   UNL     1      32.841 -23.463 -14.345  0.00  0.00    -0.006 C 
ATOM     15  C   UNL     1      30.947 -22.944 -16.325  0.00  0.00    -0.000 C 
ATOM     16  C   UNL     1      31.525 -23.167 -13.990  0.00  0.00    -0.000 C 
ATOM     17  C   UNL     1      30.578 -22.908 -14.980  0.00  0.00    -0.000 C 
ENDBRANCH  11  12
ENDBRANCH   8  11
ENDBRANCH   1   8
BRANCH   1  18
ATOM     18  P   UNL     1      37.130 -26.444 -15.076  0.00  0.00    +0.321 P 
ATOM     19  O   UNL     1      36.494 -27.246 -16.172  0.00  0.00    -0.260 OA
BRANCH  18  20
ATOM     20  O   UNL     1      38.716 -26.178 -15.260  0.00  0.00    -0.325 OA
ATOM     21  H   UNL     1      39.113 -26.916 -15.748  0.00  0.00    +0.220 HD
ENDBRANCH  18  20
BRANCH  18  22
ATOM     22  O   UNL     1      37.050 -27.121 -13.609  0.00  0.00    -0.325 OA
ATOM     23  H   UNL     1      36.206 -26.890 -13.191  0.00  0.00    +0.220 HD
ENDBRANCH  18  22
ENDBRANCH   1  18
TORSDOF 7
ENDMDL
MODEL 8
REMARK VINA RESULT:      -8.2      7.890     10.136
REMARK  Name = 447336
REMARK  7 active torsions:
REMARK  status: ('A' for Active; 'I' for Inactive)
REMARK    1  A    between atoms: C_1  and  C_2
REMARK    2  A    between atoms: C_1  and  N_8
REMARK    3  A    between atoms: C_1  and  P_18
REMARK    4  A    between atoms: N_8  and  C_11
REMARK    5  A    between atoms: C_11  and  C_12
REMARK    6  A    between atoms: P_18  and  O_20
REMARK    7  A    between atoms: P_18  and  O_22
REMARK                            x       y       z     vdW  Elec       q    Type
REMARK                         _______ _______ _______ _____ _____    ______ ____
ROOT
ATOM      1  C   UNL     1      38.334 -24.114 -14.457  0.00  0.00    +0.069 C 
ENDROOT
BRANCH   1   2
ATOM      2  C   UNL     1      37.365 -24.074 -13.297  0.00  0.00    -0.031 C 
ATOM      3  C   UNL     1      37.776 -23.534 -12.090  0.00  0.00    -0.006 C 
ATOM      4  C   UNL     1      36.086 -24.577 -13.465  0.00  0.00    -0.006 C 
ATOM      5  C   UNL     1      36.883 -23.497 -11.020  0.00  0.00    -0.000 C 
ATOM      6  C   UNL     1      35.192 -24.540 -12.394  0.00  0.00    -0.000 C 
ATOM      7  C   UNL     1      35.591 -24.000 -11.172  0.00  0.00    -0.000 C 
ENDBRANCH   1   2
BRANCH   1   8
ATOM      8  N   UNL     1      37.730 -23.888 -15.772  0.00  0.00    +0.398 N 
ATOM      9  H   UNL     1      36.868 -24.429 -15.832  0.00  0.00    -0.083 HD
ATOM     10  H   UNL     1      38.410 -24.177 -16.475  0.00  0.00    -0.083 HD
BRANCH   8  11
ATOM     11  C   UNL     1      37.417 -22.487 -16.016  0.00  0.00    -0.053 C 
BRANCH  11  12
ATOM     12  C   UNL     1      36.320 -22.363 -17.037  0.00  0.00    -0.044 C 
ATOM     13  C   UNL     1      35.076 -22.923 -16.777  0.00  0.00    -0.006 C 
ATOM     14  C   UNL     1      36.563 -21.690 -18.227  0.00  0.00    -0.006 C 
ATOM     15  C   UNL     1      34.058 -22.809 -17.723  0.00  0.00    -0.000 C 
ATOM     16  C   UNL     1      35.545 -21.575 -19.174  0.00  0.00    -0.000 C 
ATOM     17  C   UNL     1      34.293 -22.135 -18.922  0.00  0.00    -0.000 C 
ENDBRANCH  11  12
ENDBRANCH   8  11
ENDBRANCH   1   8
BRANCH   1  18
ATOM     18  P   UNL     1      39.147 -25.697 -14.737  0.00  0.00    +0.321 P 
ATOM     19  O   UNL     1      39.768 -26.341 -13.532  0.00  0.00    -0.260 OA
BRANCH  18  20
ATOM     20  O   UNL     1      38.015 -26.587 -15.476  0.00  0.00    -0.325 OA
ATOM     21  H   UNL     1      37.136 -26.288 -15.197  0.00  0.00    +0.220 HD
ENDBRANCH  18  20
BRANCH  18  22
ATOM     22  O   UNL     1      40.182 -25.370 -15.937  0.00  0.00    -0.325 OA
ATOM     23  H   UNL     1      40.298 -26.159 -16.488  0.00  0.00    +0.220 HD
ENDBRANCH  18  22
ENDBRANCH   1  18
TORSDOF 7
ENDMDL
MODEL 9
REMARK VINA RESULT:      -8.0      8.833     10.757
REMARK  Name = 447336
REMARK  7 active torsions:
REMARK  status: ('A' for Active; 'I' for Inactive)
REMARK    1  A    between atoms: C_1  and  C_2
REMARK    2  A    between atoms: C_1  and  N_8
REMARK    3  A    between atoms: C_1  and  P_18
REMARK    4  A    between atoms: N_8  and  C_11
REMARK    5  A    between atoms: C_11  and  C_12
REMARK    6  A    between atoms: P_18  and  O_20
REMARK    7  A    between atoms: P_18  and  O_22
REMARK                            x       y       z     vdW  Elec       q    Type
REMARK                         _______ _______ _______ _____ _____    ______ ____
ROOT
ATOM      1  C   UNL     1      37.907 -24.309 -14.397  0.00  0.00    +0.069 C 
ENDROOT
BRANCH   1   2
ATOM      2  C   UNL     1      37.213 -24.139 -13.065  0.00  0.00    -0.031 C 
ATOM      3  C   UNL     1      37.584 -23.093 -12.238  0.00  0.00    -0.006 C 
ATOM      4  C   UNL     1      36.221 -25.033 -12.699  0.00  0.00    -0.006 C 
ATOM      5  C   UNL     1      36.944 -22.935 -11.008  0.00  0.00    -0.000 C 
ATOM      6  C   UNL     1      35.581 -24.875 -11.469  0.00  0.00    -0.000 C 
ATOM      7  C   UNL     1      35.943 -23.826 -10.624  0.00  0.00    -0.000 C 
ENDBRANCH   1   2
BRANCH   1   8
ATOM      8  N   UNL     1      37.016 -24.324 -15.559  0.00  0.00    +0.398 N 
ATOM      9  H   UNL     1      36.241 -24.960 -15.368  0.00  0.00    -0.083 HD
ATOM     10  H   UNL     1      37.565 -24.625 -16.363  0.00  0.00    -0.083 HD
BRANCH   8  11
ATOM     11  C   UNL     1      36.470 -23.010 -15.868  0.00  0.00    -0.053 C 
BRANCH  11  12
ATOM     12  C   UNL     1      34.986 -23.097 -16.101  0.00  0.00    -0.044 C 
ATOM     13  C   UNL     1      34.483 -22.931 -17.385  0.00  0.00    -0.006 C 
ATOM     14  C   UNL     1      34.137 -23.341 -15.030  0.00  0.00    -0.006 C 
ATOM     15  C   UNL     1      33.108 -23.011 -17.601  0.00  0.00    -0.000 C 
ATOM     16  C   UNL     1      32.761 -23.421 -15.245  0.00  0.00    -0.000 C 
ATOM     17  C   UNL     1      32.247 -23.256 -16.531  0.00  0.00    -0.000 C 
ENDBRANCH  11  12
ENDBRANCH   8  11
ENDBRANCH   1   8
BRANCH   1  18
ATOM     18  P   UNL     1      38.774 -25.871 -14.629  0.00  0.00    +0.321 P 
ATOM     19  O   UNL     1      37.912 -27.072 -14.883  0.00  0.00    -0.260 OA
BRANCH  18  20
ATOM     20  O   UNL     1      39.848 -25.546 -15.796  0.00  0.00    -0.325 OA
ATOM     21  H   UNL     1      39.441 -24.965 -16.457  0.00  0.00    +0.220 HD
ENDBRANCH  18  20
BRANCH  18  22
ATOM     22  O   UNL     1      39.705 -25.973 -13.309  0.00  0.00    -0.325 OA
ATOM     23  H   UNL     1      39.316 -25.442 -12.597  0.00  0.00    +0.220 HD
ENDBRANCH  18  22
ENDBRANCH   1  18
TORSDOF 7
ENDMDL
