MODEL 1
REMARK VINA RESULT:      -9.0      0.000      0.000
REMARK  Name = 446157
REMARK  12 active torsions:
REMARK  status: ('A' for Active; 'I' for Inactive)
REMARK    1  A    between atoms: N_2  and  S_16
REMARK    2  A    between atoms: C_4  and  C_20
REMARK    3  A    between atoms: C_5  and  C_23
REMARK    4  A    between atoms: C_6  and  C_10
REMARK    5  A    between atoms: C_24  and  C_25
REMARK    6  A    between atoms: C_25  and  O_26
REMARK    7  A    between atoms: C_25  and  C_28
REMARK    8  A    between atoms: C_28  and  C_29
REMARK    9  A    between atoms: C_29  and  O_30
REMARK   10  A    between atoms: C_29  and  C_32
REMARK   11  A    between atoms: C_32  and  C_34
REMARK   12  A    between atoms: C_34  and  O_35
REMARK                            x       y       z     vdW  Elec       q    Type
REMARK                         _______ _______ _______ _____ _____    ______ ____
ROOT
ATOM      1  N   UNL     1      36.533 -23.920 -14.633  0.00  0.00    -0.335 NA
ATOM      2  N   UNL     1      35.905 -25.051 -12.660  0.00  0.00    -0.116 N 
ATOM      3  N   UNL     1      34.211 -24.151 -14.032  0.00  0.00    -0.331 NA
ATOM      4  C   UNL     1      36.143 -23.250 -15.736  0.00  0.00    +0.110 C 
ATOM      5  C   UNL     1      34.823 -22.995 -16.052  0.00  0.00    +0.124 C 
ATOM      6  C   UNL     1      33.891 -23.474 -15.155  0.00  0.00    +0.133 C 
ATOM      7  C   UNL     1      35.530 -24.336 -13.835  0.00  0.00    +0.221 C 
ATOM      8  C   UNL     1      37.161 -25.854 -12.713  0.00  0.00    +0.153 C 
ENDROOT
BRANCH   6  10
ATOM      9  F   UNL     1      28.403 -22.767 -15.852  0.00  0.00    -0.204 F 
ATOM     10  C   UNL     1      32.467 -23.289 -15.336  0.00  0.00    +0.027 C 
ATOM     11  C   UNL     1      31.671 -22.902 -14.257  0.00  0.00    +0.005 C 
ATOM     12  C   UNL     1      31.890 -23.501 -16.588  0.00  0.00    +0.005 C 
ATOM     13  C   UNL     1      30.299 -22.725 -14.433  0.00  0.00    +0.030 C 
ATOM     14  C   UNL     1      30.517 -23.325 -16.763  0.00  0.00    +0.030 C 
ATOM     15  C   UNL     1      29.722 -22.937 -15.685  0.00  0.00    +0.140 C 
ENDBRANCH   6  10
BRANCH   2  16
ATOM     16  S   UNL     1      35.464 -24.365 -11.137  0.00  0.00    +0.068 S 
ATOM     17  O   UNL     1      35.332 -25.421 -10.151  0.00  0.00    -0.154 OA
ATOM     18  O   UNL     1      34.395 -23.401 -11.319  0.00  0.00    -0.154 OA
ATOM     19  C   UNL     1      36.937 -23.454 -10.722  0.00  0.00    +0.201 C 
ENDBRANCH   2  16
BRANCH   4  20
ATOM     20  C   UNL     1      37.250 -22.783 -16.624  0.00  0.00    +0.050 C 
ATOM     21  C   UNL     1      38.619 -23.339 -16.195  0.00  0.00    +0.007 C 
ATOM     22  C   UNL     1      37.314 -21.248 -16.723  0.00  0.00    +0.007 C 
ENDBRANCH   4  20
BRANCH   5  23
ATOM     23  C   UNL     1      34.446 -22.256 -17.270  0.00  0.00    -0.015 C 
ATOM     24  C   UNL     1      34.491 -22.755 -18.516  0.00  0.00    -0.001 C 
BRANCH  24  25
ATOM     25  C   UNL     1      34.116 -22.023 -19.783  0.00  0.00    +0.135 C 
BRANCH  25  26
ATOM     26  O   UNL     1      32.730 -21.699 -19.791  0.00  0.00    -0.380 OA
ATOM     27  H   UNL     1      32.321 -22.009 -18.968  0.00  0.00    +0.211 HD
ENDBRANCH  25  26
BRANCH  25  28
ATOM     28  C   UNL     1      34.956 -20.741 -19.928  0.00  0.00    +0.064 C 
BRANCH  28  29
ATOM     29  C   UNL     1      34.565 -19.886 -21.143  0.00  0.00    +0.124 C 
BRANCH  29  30
ATOM     30  O   UNL     1      33.328 -19.232 -20.876  0.00  0.00    -0.384 OA
ATOM     31  H   UNL     1      32.952 -18.898 -21.706  0.00  0.00    +0.210 HD
ENDBRANCH  29  30
BRANCH  29  32
ATOM     32  C   UNL     1      35.629 -18.852 -21.518  0.00  0.00    +0.139 C 
BRANCH  32  34
ATOM     33  O   UNL     1      35.237 -16.756 -20.379  0.00  0.00    -0.250 OA
ATOM     34  C   UNL     1      35.142 -17.426 -21.399  0.00  0.00    +0.316 C 
BRANCH  34  35
ATOM     35  O   UNL     1      34.562 -16.970 -22.536  0.00  0.00    -0.480 OA
ATOM     36  H   UNL     1      33.675 -17.200 -22.734  0.00  0.00    +0.295 HD
ENDBRANCH  34  35
ENDBRANCH  32  34
ENDBRANCH  29  32
ENDBRANCH  28  29
ENDBRANCH  25  28
ENDBRANCH  24  25
ENDBRANCH   5  23
TORSDOF 12
ENDMDL
MODEL 2
REMARK VINA RESULT:      -8.9      3.890      6.414
REMARK  Name = 446157
REMARK  12 active torsions:
REMARK  status: ('A' for Active; 'I' for Inactive)
REMARK    1  A    between atoms: N_2  and  S_16
REMARK    2  A    between atoms: C_4  and  C_20
REMARK    3  A    between atoms: C_5  and  C_23
REMARK    4  A    between atoms: C_6  and  C_10
REMARK    5  A    between atoms: C_24  and  C_25
REMARK    6  A    between atoms: C_25  and  O_26
REMARK    7  A    between atoms: C_25  and  C_28
REMARK    8  A    between atoms: C_28  and  C_29
REMARK    9  A    between atoms: C_29  and  O_30
REMARK   10  A    between atoms: C_29  and  C_32
REMARK   11  A    between atoms: C_32  and  C_34
REMARK   12  A    between atoms: C_34  and  O_35
REMARK                            x       y       z     vdW  Elec       q    Type
REMARK                         _______ _______ _______ _____ _____    ______ ____
ROOT
ATOM      1  N   UNL     1      33.776 -24.427 -13.866  0.00  0.00    -0.335 NA
ATOM      2  N   UNL     1      36.105 -24.786 -13.756  0.00  0.00    -0.116 N 
ATOM      3  N   UNL     1      35.222 -23.684 -15.645  0.00  0.00    -0.331 NA
ATOM      4  C   UNL     1      32.730 -23.929 -14.558  0.00  0.00    +0.110 C 
ATOM      5  C   UNL     1      32.849 -23.303 -15.782  0.00  0.00    +0.124 C 
ATOM      6  C   UNL     1      34.132 -23.208 -16.283  0.00  0.00    +0.133 C 
ATOM      7  C   UNL     1      34.975 -24.273 -14.459  0.00  0.00    +0.221 C 
ATOM      8  C   UNL     1      36.038 -24.805 -12.266  0.00  0.00    +0.153 C 
ENDROOT
BRANCH   6  10
ATOM      9  F   UNL     1      35.278 -20.811 -21.185  0.00  0.00    -0.204 F 
ATOM     10  C   UNL     1      34.429 -22.585 -17.555  0.00  0.00    +0.027 C 
ATOM     11  C   UNL     1      33.424 -22.440 -18.512  0.00  0.00    +0.005 C 
ATOM     12  C   UNL     1      35.721 -22.132 -17.824  0.00  0.00    +0.005 C 
ATOM     13  C   UNL     1      33.712 -21.840 -19.738  0.00  0.00    +0.030 C 
ATOM     14  C   UNL     1      36.007 -21.533 -19.051  0.00  0.00    +0.030 C 
ATOM     15  C   UNL     1      35.003 -21.387 -20.007  0.00  0.00    +0.140 C 
ENDBRANCH   6  10
BRANCH   2  16
ATOM     16  S   UNL     1      37.026 -26.027 -14.526  0.00  0.00    +0.068 S 
ATOM     17  O   UNL     1      36.361 -26.432 -15.752  0.00  0.00    -0.154 OA
ATOM     18  O   UNL     1      37.427 -27.024 -13.552  0.00  0.00    -0.154 OA
ATOM     19  C   UNL     1      38.489 -25.133 -15.007  0.00  0.00    +0.201 C 
ENDBRANCH   2  16
BRANCH   4  20
ATOM     20  C   UNL     1      31.396 -24.098 -13.907  0.00  0.00    +0.050 C 
ATOM     21  C   UNL     1      31.163 -23.080 -12.776  0.00  0.00    +0.007 C 
ATOM     22  C   UNL     1      31.179 -25.528 -13.380  0.00  0.00    +0.007 C 
ENDBRANCH   4  20
BRANCH   5  23
ATOM     23  C   UNL     1      31.676 -22.776 -16.501  0.00  0.00    -0.015 C 
ATOM     24  C   UNL     1      30.430 -23.268 -16.401  0.00  0.00    -0.001 C 
BRANCH  24  25
ATOM     25  C   UNL     1      29.209 -22.754 -17.129  0.00  0.00    +0.135 C 
BRANCH  25  26
ATOM     26  O   UNL     1      28.414 -23.831 -17.611  0.00  0.00    -0.380 OA
ATOM     27  H   UNL     1      28.991 -24.561 -17.886  0.00  0.00    +0.211 HD
ENDBRANCH  25  26
BRANCH  25  28
ATOM     28  C   UNL     1      28.371 -21.858 -16.200  0.00  0.00    +0.064 C 
BRANCH  28  29
ATOM     29  C   UNL     1      27.007 -22.460 -15.832  0.00  0.00    +0.124 C 
BRANCH  29  30
ATOM     30  O   UNL     1      26.897 -22.534 -14.413  0.00  0.00    -0.384 OA
ATOM     31  H   UNL     1      27.232 -23.392 -14.106  0.00  0.00    +0.210 HD
ENDBRANCH  29  30
BRANCH  29  32
ATOM     32  C   UNL     1      25.827 -21.673 -16.404  0.00  0.00    +0.139 C 
BRANCH  32  34
ATOM     33  O   UNL     1      26.267 -21.967 -18.763  0.00  0.00    -0.250 OA
ATOM     34  C   UNL     1      26.052 -21.210 -17.825  0.00  0.00    +0.316 C 
BRANCH  34  35
ATOM     35  O   UNL     1      26.017 -19.860 -17.953  0.00  0.00    -0.480 OA
ATOM     36  H   UNL     1      25.514 -19.469 -18.640  0.00  0.00    +0.295 HD
ENDBRANCH  34  35
ENDBRANCH  32  34
ENDBRANCH  29  32
ENDBRANCH  28  29
ENDBRANCH  25  28
ENDBRANCH  24  25
ENDBRANCH   5  23
TORSDOF 12
ENDMDL
MODEL 3
REMARK VINA RESULT:      -8.3      3.811      7.338
REMARK  Name = 446157
REMARK  12 active torsions:
REMARK  status: ('A' for Active; 'I' for Inactive)
REMARK    1  A    between atoms: N_2  and  S_16
REMARK    2  A    between atoms: C_4  and  C_20
REMARK    3  A    between atoms: C_5  and  C_23
REMARK    4  A    between atoms: C_6  and  C_10
REMARK    5  A    between atoms: C_24  and  C_25
REMARK    6  A    between atoms: C_25  and  O_26
REMARK    7  A    between atoms: C_25  and  C_28
REMARK    8  A    between atoms: C_28  and  C_29
REMARK    9  A    between atoms: C_29  and  O_30
REMARK   10  A    between atoms: C_29  and  C_32
REMARK   11  A    between atoms: C_32  and  C_34
REMARK   12  A    between atoms: C_34  and  O_35
REMARK                            x       y       z     vdW  Elec       q    Type
REMARK                         _______ _______ _______ _____ _____    ______ ____
ROOT
ATOM      1  N   UNL     1      32.117 -24.068 -15.374  0.00  0.00    -0.335 NA
ATOM      2  N   UNL     1      30.096 -24.272 -16.573  0.00  0.00    -0.116 N 
ATOM      3  N   UNL     1      31.893 -23.122 -17.579  0.00  0.00    -0.331 NA
ATOM      4  C   UNL     1      33.383 -23.604 -15.343  0.00  0.00    +0.110 C 
ATOM      5  C   UNL     1      33.967 -22.901 -16.378  0.00  0.00    +0.124 C 
ATOM      6  C   UNL     1      33.167 -22.687 -17.482  0.00  0.00    +0.133 C 
ATOM      7  C   UNL     1      31.438 -23.795 -16.504  0.00  0.00    +0.221 C 
ATOM      8  C   UNL     1      29.768 -25.518 -15.821  0.00  0.00    +0.153 C 
ENDROOT
BRANCH   6  10
ATOM      9  F   UNL     1      34.932 -19.901 -21.978  0.00  0.00    -0.204 F 
ATOM     10  C   UNL     1      33.625 -21.966 -18.649  0.00  0.00    +0.027 C 
ATOM     11  C   UNL     1      34.935 -22.126 -19.099  0.00  0.00    +0.005 C 
ATOM     12  C   UNL     1      32.756 -21.106 -19.323  0.00  0.00    +0.005 C 
ATOM     13  C   UNL     1      35.376 -21.429 -20.224  0.00  0.00    +0.030 C 
ATOM     14  C   UNL     1      33.198 -20.409 -20.448  0.00  0.00    +0.030 C 
ATOM     15  C   UNL     1      34.508 -20.570 -20.898  0.00  0.00    +0.140 C 
ENDBRANCH   6  10
BRANCH   2  16
ATOM     16  S   UNL     1      28.842 -23.097 -16.749  0.00  0.00    +0.068 S 
ATOM     17  O   UNL     1      27.894 -23.548 -17.752  0.00  0.00    -0.154 OA
ATOM     18  O   UNL     1      29.417 -21.768 -16.837  0.00  0.00    -0.154 OA
ATOM     19  C   UNL     1      28.022 -23.220 -15.173  0.00  0.00    +0.201 C 
ENDBRANCH   2  16
BRANCH   4  20
ATOM     20  C   UNL     1      34.142 -23.901 -14.091  0.00  0.00    +0.050 C 
ATOM     21  C   UNL     1      34.807 -25.289 -14.124  0.00  0.00    +0.007 C 
ATOM     22  C   UNL     1      33.268 -23.767 -12.831  0.00  0.00    +0.007 C 
ENDBRANCH   4  20
BRANCH   5  23
ATOM     23  C   UNL     1      35.355 -22.413 -16.298  0.00  0.00    -0.015 C 
ATOM     24  C   UNL     1      36.440 -23.198 -16.202  0.00  0.00    -0.001 C 
BRANCH  24  25
ATOM     25  C   UNL     1      37.874 -22.728 -16.113  0.00  0.00    +0.135 C 
BRANCH  25  26
ATOM     26  O   UNL     1      37.989 -21.609 -15.241  0.00  0.00    -0.380 OA
ATOM     27  H   UNL     1      37.191 -21.542 -14.694  0.00  0.00    +0.211 HD
ENDBRANCH  25  26
BRANCH  25  28
ATOM     28  C   UNL     1      38.782 -23.870 -15.623  0.00  0.00    +0.064 C 
BRANCH  28  29
ATOM     29  C   UNL     1      38.060 -24.887 -14.726  0.00  0.00    +0.124 C 
BRANCH  29  30
ATOM     30  O   UNL     1      38.132 -26.176 -15.330  0.00  0.00    -0.384 OA
ATOM     31  H   UNL     1      38.809 -26.171 -16.025  0.00  0.00    +0.210 HD
ENDBRANCH  29  30
BRANCH  29  32
ATOM     32  C   UNL     1      38.627 -24.946 -13.307  0.00  0.00    +0.139 C 
BRANCH  32  34
ATOM     33  O   UNL     1      37.761 -22.830 -12.522  0.00  0.00    -0.250 OA
ATOM     34  C   UNL     1      37.910 -24.032 -12.340  0.00  0.00    +0.316 C 
BRANCH  34  35
ATOM     35  O   UNL     1      37.469 -24.676 -11.232  0.00  0.00    -0.480 OA
ATOM     36  H   UNL     1      36.558 -24.879 -11.141  0.00  0.00    +0.295 HD
ENDBRANCH  34  35
ENDBRANCH  32  34
ENDBRANCH  29  32
ENDBRANCH  28  29
ENDBRANCH  25  28
ENDBRANCH  24  25
ENDBRANCH   5  23
TORSDOF 12
ENDMDL
MODEL 4
REMARK VINA RESULT:      -8.2      4.008      7.624
REMARK  Name = 446157
REMARK  12 active torsions:
REMARK  status: ('A' for Active; 'I' for Inactive)
REMARK    1  A    between atoms: N_2  and  S_16
REMARK    2  A    between atoms: C_4  and  C_20
REMARK    3  A    between atoms: C_5  and  C_23
REMARK    4  A    between atoms: C_6  and  C_10
REMARK    5  A    between atoms: C_24  and  C_25
REMARK    6  A    between atoms: C_25  and  O_26
REMARK    7  A    between atoms: C_25  and  C_28
REMARK    8  A    between atoms: C_28  and  C_29
REMARK    9  A    between atoms: C_29  and  O_30
REMARK   10  A    between atoms: C_29  and  C_32
REMARK   11  A    between atoms: C_32  and  C_34
REMARK   12  A    between atoms: C_34  and  O_35
REMARK                            x       y       z     vdW  Elec       q    Type
REMARK                         _______ _______ _______ _____ _____    ______ ____
ROOT
ATOM      1  N   UNL     1      31.345 -24.207 -15.291  0.00  0.00    -0.335 NA
ATOM      2  N   UNL     1      29.461 -24.105 -16.706  0.00  0.00    -0.116 N 
ATOM      3  N   UNL     1      31.493 -23.178 -17.464  0.00  0.00    -0.331 NA
ATOM      4  C   UNL     1      32.650 -23.918 -15.106  0.00  0.00    +0.110 C 
ATOM      5  C   UNL     1      33.431 -23.270 -16.041  0.00  0.00    +0.124 C 
ATOM      6  C   UNL     1      32.793 -22.920 -17.214  0.00  0.00    +0.133 C 
ATOM      7  C   UNL     1      30.838 -23.814 -16.475  0.00  0.00    +0.221 C 
ATOM      8  C   UNL     1      28.893 -25.317 -16.048  0.00  0.00    +0.153 C 
ENDROOT
BRANCH   6  10
ATOM      9  F   UNL     1      35.394 -20.278 -21.380  0.00  0.00    -0.204 F 
ATOM     10  C   UNL     1      33.468 -22.233 -18.294  0.00  0.00    +0.027 C 
ATOM     11  C   UNL     1      32.762 -21.345 -19.106  0.00  0.00    +0.005 C 
ATOM     12  C   UNL     1      34.825 -22.462 -18.526  0.00  0.00    +0.005 C 
ATOM     13  C   UNL     1      33.413 -20.685 -20.148  0.00  0.00    +0.030 C 
ATOM     14  C   UNL     1      35.476 -21.801 -19.569  0.00  0.00    +0.030 C 
ATOM     15  C   UNL     1      34.769 -20.913 -20.379  0.00  0.00    +0.140 C 
ENDBRANCH   6  10
BRANCH   2  16
ATOM     16  S   UNL     1      28.398 -22.769 -16.965  0.00  0.00    +0.068 S 
ATOM     17  O   UNL     1      27.469 -23.089 -18.034  0.00  0.00    -0.154 OA
ATOM     18  O   UNL     1      29.156 -21.533 -17.006  0.00  0.00    -0.154 OA
ATOM     19  C   UNL     1      27.459 -22.768 -15.451  0.00  0.00    +0.201 C 
ENDBRANCH   2  16
BRANCH   4  20
ATOM     20  C   UNL     1      33.219 -24.348 -13.794  0.00  0.00    +0.050 C 
ATOM     21  C   UNL     1      32.348 -25.409 -13.096  0.00  0.00    +0.007 C 
ATOM     22  C   UNL     1      33.463 -23.162 -12.844  0.00  0.00    +0.007 C 
ENDBRANCH   4  20
BRANCH   5  23
ATOM     23  C   UNL     1      34.853 -22.974 -15.793  0.00  0.00    -0.015 C 
ATOM     24  C   UNL     1      35.792 -23.894 -15.519  0.00  0.00    -0.001 C 
BRANCH  24  25
ATOM     25  C   UNL     1      37.255 -23.622 -15.255  0.00  0.00    +0.135 C 
BRANCH  25  26
ATOM     26  O   UNL     1      37.633 -22.344 -15.756  0.00  0.00    -0.380 OA
ATOM     27  H   UNL     1      38.448 -22.430 -16.277  0.00  0.00    +0.211 HD
ENDBRANCH  25  26
BRANCH  25  28
ATOM     28  C   UNL     1      37.551 -23.702 -13.747  0.00  0.00    +0.064 C 
BRANCH  28  29
ATOM     29  C   UNL     1      38.293 -24.982 -13.333  0.00  0.00    +0.124 C 
BRANCH  29  30
ATOM     30  O   UNL     1      37.429 -25.786 -12.534  0.00  0.00    -0.384 OA
ATOM     31  H   UNL     1      36.957 -25.223 -11.901  0.00  0.00    +0.210 HD
ENDBRANCH  29  30
BRANCH  29  32
ATOM     32  C   UNL     1      38.803 -25.794 -14.525  0.00  0.00    +0.139 C 
BRANCH  32  34
ATOM     33  O   UNL     1      40.960 -24.738 -14.244  0.00  0.00    -0.250 OA
ATOM     34  C   UNL     1      40.227 -25.462 -14.907  0.00  0.00    +0.316 C 
BRANCH  34  35
ATOM     35  O   UNL     1      40.607 -26.031 -16.077  0.00  0.00    -0.480 OA
ATOM     36  H   UNL     1      39.983 -26.140 -16.769  0.00  0.00    +0.295 HD
ENDBRANCH  34  35
ENDBRANCH  32  34
ENDBRANCH  29  32
ENDBRANCH  28  29
ENDBRANCH  25  28
ENDBRANCH  24  25
ENDBRANCH   5  23
TORSDOF 12
ENDMDL
MODEL 5
REMARK VINA RESULT:      -7.9     10.302     14.334
REMARK  Name = 446157
REMARK  12 active torsions:
REMARK  status: ('A' for Active; 'I' for Inactive)
REMARK    1  A    between atoms: N_2  and  S_16
REMARK    2  A    between atoms: C_4  and  C_20
REMARK    3  A    between atoms: C_5  and  C_23
REMARK    4  A    between atoms: C_6  and  C_10
REMARK    5  A    between atoms: C_24  and  C_25
REMARK    6  A    between atoms: C_25  and  O_26
REMARK    7  A    between atoms: C_25  and  C_28
REMARK    8  A    between atoms: C_28  and  C_29
REMARK    9  A    between atoms: C_29  and  O_30
REMARK   10  A    between atoms: C_29  and  C_32
REMARK   11  A    between atoms: C_32  and  C_34
REMARK   12  A    between atoms: C_34  and  O_35
REMARK                            x       y       z     vdW  Elec       q    Type
REMARK                         _______ _______ _______ _____ _____    ______ ____
ROOT
ATOM      1  N   UNL     1      34.016 -13.290 -25.378  0.00  0.00    -0.335 NA
ATOM      2  N   UNL     1      33.509 -15.434 -24.536  0.00  0.00    -0.116 N 
ATOM      3  N   UNL     1      32.909 -13.547 -23.254  0.00  0.00    -0.331 NA
ATOM      4  C   UNL     1      33.967 -11.953 -25.201  0.00  0.00    +0.110 C 
ATOM      5  C   UNL     1      33.412 -11.347 -24.092  0.00  0.00    +0.124 C 
ATOM      6  C   UNL     1      32.893 -12.202 -23.140  0.00  0.00    +0.133 C 
ATOM      7  C   UNL     1      33.477 -14.017 -24.381  0.00  0.00    +0.221 C 
ATOM      8  C   UNL     1      33.465 -15.977 -25.924  0.00  0.00    +0.153 C 
ENDROOT
BRANCH   6  10
ATOM      9  F   UNL     1      30.533 -10.379 -18.428  0.00  0.00    -0.204 F 
ATOM     10  C   UNL     1      32.279 -11.730 -21.918  0.00  0.00    +0.027 C 
ATOM     11  C   UNL     1      31.667 -10.476 -21.885  0.00  0.00    +0.005 C 
ATOM     12  C   UNL     1      32.303 -12.526 -20.773  0.00  0.00    +0.005 C 
ATOM     13  C   UNL     1      31.077 -10.021 -20.705  0.00  0.00    +0.030 C 
ATOM     14  C   UNL     1      31.713 -12.069 -19.594  0.00  0.00    +0.030 C 
ATOM     15  C   UNL     1      31.100 -10.817 -19.560  0.00  0.00    +0.140 C 
ENDBRANCH   6  10
BRANCH   2  16
ATOM     16  S   UNL     1      34.380 -16.344 -23.354  0.00  0.00    +0.068 S 
ATOM     17  O   UNL     1      33.510 -16.632 -22.228  0.00  0.00    -0.154 OA
ATOM     18  O   UNL     1      35.684 -15.748 -23.132  0.00  0.00    -0.154 OA
ATOM     19  C   UNL     1      34.636 -17.882 -24.213  0.00  0.00    +0.201 C 
ENDBRANCH   2  16
BRANCH   4  20
ATOM     20  C   UNL     1      34.565 -11.141 -26.302  0.00  0.00    +0.050 C 
ATOM     21  C   UNL     1      34.885 -11.987 -27.548  0.00  0.00    +0.007 C 
ATOM     22  C   UNL     1      35.822 -10.376 -25.850  0.00  0.00    +0.007 C 
ENDBRANCH   4  20
BRANCH   5  23
ATOM     23  C   UNL     1      33.383  -9.882 -23.941  0.00  0.00    -0.015 C 
ATOM     24  C   UNL     1      34.419  -9.132 -23.532  0.00  0.00    -0.001 C 
BRANCH  24  25
ATOM     25  C   UNL     1      34.420  -7.630 -23.363  0.00  0.00    +0.135 C 
BRANCH  25  26
ATOM     26  O   UNL     1      34.383  -6.976 -24.627  0.00  0.00    -0.380 OA
ATOM     27  H   UNL     1      34.960  -6.197 -24.604  0.00  0.00    +0.211 HD
ENDBRANCH  25  26
BRANCH  25  28
ATOM     28  C   UNL     1      33.219  -7.188 -22.508  0.00  0.00    +0.064 C 
BRANCH  28  29
ATOM     29  C   UNL     1      32.241  -6.266 -23.253  0.00  0.00    +0.124 C 
BRANCH  29  30
ATOM     30  O   UNL     1      31.432  -7.051 -24.125  0.00  0.00    -0.384 OA
ATOM     31  H   UNL     1      30.768  -7.531 -23.606  0.00  0.00    +0.210 HD
ENDBRANCH  29  30
BRANCH  29  32
ATOM     32  C   UNL     1      31.352  -5.448 -22.315  0.00  0.00    +0.139 C 
BRANCH  32  34
ATOM     33  O   UNL     1      30.633  -4.114 -24.198  0.00  0.00    -0.250 OA
ATOM     34  C   UNL     1      30.726  -4.247 -22.984  0.00  0.00    +0.316 C 
BRANCH  34  35
ATOM     35  O   UNL     1      30.296  -3.313 -22.100  0.00  0.00    -0.480 OA
ATOM     36  H   UNL     1      30.798  -2.534 -21.961  0.00  0.00    +0.295 HD
ENDBRANCH  34  35
ENDBRANCH  32  34
ENDBRANCH  29  32
ENDBRANCH  28  29
ENDBRANCH  25  28
ENDBRANCH  24  25
ENDBRANCH   5  23
TORSDOF 12
ENDMDL
MODEL 6
REMARK VINA RESULT:      -7.7      3.552      6.277
REMARK  Name = 446157
REMARK  12 active torsions:
REMARK  status: ('A' for Active; 'I' for Inactive)
REMARK    1  A    between atoms: N_2  and  S_16
REMARK    2  A    between atoms: C_4  and  C_20
REMARK    3  A    between atoms: C_5  and  C_23
REMARK    4  A    between atoms: C_6  and  C_10
REMARK    5  A    between atoms: C_24  and  C_25
REMARK    6  A    between atoms: C_25  and  O_26
REMARK    7  A    between atoms: C_25  and  C_28
REMARK    8  A    between atoms: C_28  and  C_29
REMARK    9  A    between atoms: C_29  and  O_30
REMARK   10  A    between atoms: C_29  and  C_32
REMARK   11  A    between atoms: C_32  and  C_34
REMARK   12  A    between atoms: C_34  and  O_35
REMARK                            x       y       z     vdW  Elec       q    Type
REMARK                         _______ _______ _______ _____ _____    ______ ____
ROOT
ATOM      1  N   UNL     1      35.373 -24.319 -13.315  0.00  0.00    -0.335 NA
ATOM      2  N   UNL     1      37.727 -24.202 -13.408  0.00  0.00    -0.116 N 
ATOM      3  N   UNL     1      36.484 -23.416 -15.253  0.00  0.00    -0.331 NA
ATOM      4  C   UNL     1      34.194 -24.082 -13.926  0.00  0.00    +0.110 C 
ATOM      5  C   UNL     1      34.081 -23.521 -15.182  0.00  0.00    +0.124 C 
ATOM      6  C   UNL     1      35.271 -23.205 -15.805  0.00  0.00    +0.133 C 
ATOM      7  C   UNL     1      36.462 -23.968 -14.024  0.00  0.00    +0.221 C 
ATOM      8  C   UNL     1      37.790 -24.143 -11.919  0.00  0.00    +0.153 C 
ENDROOT
BRANCH   6  10
ATOM      9  F   UNL     1      35.495 -20.934 -20.893  0.00  0.00    -0.204 F 
ATOM     10  C   UNL     1      35.328 -22.615 -17.125  0.00  0.00    +0.027 C 
ATOM     11  C   UNL     1      34.253 -22.761 -18.002  0.00  0.00    +0.005 C 
ATOM     12  C   UNL     1      36.460 -21.901 -17.521  0.00  0.00    +0.005 C 
ATOM     13  C   UNL     1      34.311 -22.193 -19.275  0.00  0.00    +0.030 C 
ATOM     14  C   UNL     1      36.516 -21.334 -18.795  0.00  0.00    +0.030 C 
ATOM     15  C   UNL     1      35.442 -21.480 -19.671  0.00  0.00    +0.140 C 
ENDBRANCH   6  10
BRANCH   2  16
ATOM     16  S   UNL     1      38.813 -25.281 -14.208  0.00  0.00    +0.068 S 
ATOM     17  O   UNL     1      39.539 -26.058 -13.218  0.00  0.00    -0.154 OA
ATOM     18  O   UNL     1      39.533 -24.577 -15.251  0.00  0.00    -0.154 OA
ATOM     19  C   UNL     1      37.677 -26.397 -15.004  0.00  0.00    +0.201 C 
ENDBRANCH   2  16
BRANCH   4  20
ATOM     20  C   UNL     1      32.981 -24.472 -13.146  0.00  0.00    +0.050 C 
ATOM     21  C   UNL     1      31.993 -25.309 -13.978  0.00  0.00    +0.007 C 
ATOM     22  C   UNL     1      32.258 -23.255 -12.541  0.00  0.00    +0.007 C 
ENDBRANCH   4  20
BRANCH   5  23
ATOM     23  C   UNL     1      32.769 -23.283 -15.810  0.00  0.00    -0.015 C 
ATOM     24  C   UNL     1      31.872 -22.376 -15.391  0.00  0.00    -0.001 C 
BRANCH  24  25
ATOM     25  C   UNL     1      30.518 -22.111 -16.010  0.00  0.00    +0.135 C 
BRANCH  25  26
ATOM     26  O   UNL     1      30.494 -22.521 -17.373  0.00  0.00    -0.380 OA
ATOM     27  H   UNL     1      30.045 -23.378 -17.444  0.00  0.00    +0.211 HD
ENDBRANCH  25  26
BRANCH  25  28
ATOM     28  C   UNL     1      29.418 -22.842 -15.221  0.00  0.00    +0.064 C 
BRANCH  28  29
ATOM     29  C   UNL     1      28.790 -24.016 -15.988  0.00  0.00    +0.124 C 
BRANCH  29  30
ATOM     30  O   UNL     1      28.165 -24.899 -15.060  0.00  0.00    -0.384 OA
ATOM     31  H   UNL     1      27.447 -25.378 -15.502  0.00  0.00    +0.210 HD
ENDBRANCH  29  30
BRANCH  29  32
ATOM     32  C   UNL     1      27.778 -23.572 -17.045  0.00  0.00    +0.139 C 
BRANCH  32  34
ATOM     33  O   UNL     1      27.114 -21.267 -17.341  0.00  0.00    -0.250 OA
ATOM     34  C   UNL     1      27.056 -22.296 -16.680  0.00  0.00    +0.316 C 
BRANCH  34  35
ATOM     35  O   UNL     1      26.352 -22.399 -15.526  0.00  0.00    -0.480 OA
ATOM     36  H   UNL     1      25.781 -21.704 -15.263  0.00  0.00    +0.295 HD
ENDBRANCH  34  35
ENDBRANCH  32  34
ENDBRANCH  29  32
ENDBRANCH  28  29
ENDBRANCH  25  28
ENDBRANCH  24  25
ENDBRANCH   5  23
TORSDOF 12
ENDMDL
MODEL 7
REMARK VINA RESULT:      -7.7      8.576     13.305
REMARK  Name = 446157
REMARK  12 active torsions:
REMARK  status: ('A' for Active; 'I' for Inactive)
REMARK    1  A    between atoms: N_2  and  S_16
REMARK    2  A    between atoms: C_4  and  C_20
REMARK    3  A    between atoms: C_5  and  C_23
REMARK    4  A    between atoms: C_6  and  C_10
REMARK    5  A    between atoms: C_24  and  C_25
REMARK    6  A    between atoms: C_25  and  O_26
REMARK    7  A    between atoms: C_25  and  C_28
REMARK    8  A    between atoms: C_28  and  C_29
REMARK    9  A    between atoms: C_29  and  O_30
REMARK   10  A    between atoms: C_29  and  C_32
REMARK   11  A    between atoms: C_32  and  C_34
REMARK   12  A    between atoms: C_34  and  O_35
REMARK                            x       y       z     vdW  Elec       q    Type
REMARK                         _______ _______ _______ _____ _____    ______ ____
ROOT
ATOM      1  N   UNL     1      32.166 -12.634 -21.188  0.00  0.00    -0.335 NA
ATOM      2  N   UNL     1      31.345 -10.424 -21.267  0.00  0.00    -0.116 N 
ATOM      3  N   UNL     1      32.706 -11.186 -23.036  0.00  0.00    -0.331 NA
ATOM      4  C   UNL     1      32.899 -13.601 -21.778  0.00  0.00    +0.110 C 
ATOM      5  C   UNL     1      33.555 -13.438 -22.982  0.00  0.00    +0.124 C 
ATOM      6  C   UNL     1      33.422 -12.197 -23.572  0.00  0.00    +0.133 C 
ATOM      7  C   UNL     1      32.113 -11.469 -21.860  0.00  0.00    +0.221 C 
ATOM      8  C   UNL     1      30.181 -10.820 -20.422  0.00  0.00    +0.153 C 
ENDROOT
BRANCH   6  10
ATOM      9  F   UNL     1      35.843 -10.905 -28.426  0.00  0.00    -0.204 F 
ATOM     10  C   UNL     1      34.049 -11.861 -24.832  0.00  0.00    +0.027 C 
ATOM     11  C   UNL     1      33.741 -12.590 -25.980  0.00  0.00    +0.005 C 
ATOM     12  C   UNL     1      34.964 -10.809 -24.897  0.00  0.00    +0.005 C 
ATOM     13  C   UNL     1      34.347 -12.267 -27.194  0.00  0.00    +0.030 C 
ATOM     14  C   UNL     1      35.570 -10.487 -26.112  0.00  0.00    +0.030 C 
ATOM     15  C   UNL     1      35.261 -11.215 -27.259  0.00  0.00    +0.140 C 
ENDBRANCH   6  10
BRANCH   2  16
ATOM     16  S   UNL     1      32.173  -8.968 -20.847  0.00  0.00    +0.068 S 
ATOM     17  O   UNL     1      33.520  -9.005 -21.387  0.00  0.00    -0.154 OA
ATOM     18  O   UNL     1      31.960  -8.662 -19.445  0.00  0.00    -0.154 OA
ATOM     19  C   UNL     1      31.270  -7.764 -21.798  0.00  0.00    +0.201 C 
ENDBRANCH   2  16
BRANCH   4  20
ATOM     20  C   UNL     1      32.964 -14.896 -21.036  0.00  0.00    +0.050 C 
ATOM     21  C   UNL     1      31.946 -14.963 -19.884  0.00  0.00    +0.007 C 
ATOM     22  C   UNL     1      34.378 -15.195 -20.505  0.00  0.00    +0.007 C 
ENDBRANCH   4  20
BRANCH   5  23
ATOM     23  C   UNL     1      34.346 -14.523 -23.588  0.00  0.00    -0.015 C 
ATOM     24  C   UNL     1      33.836 -15.671 -24.062  0.00  0.00    -0.001 C 
BRANCH  24  25
ATOM     25  C   UNL     1      34.620 -16.804 -24.684  0.00  0.00    +0.135 C 
BRANCH  25  26
ATOM     26  O   UNL     1      35.292 -16.371 -25.862  0.00  0.00    -0.380 OA
ATOM     27  H   UNL     1      36.251 -16.429 -25.726  0.00  0.00    +0.211 HD
ENDBRANCH  25  26
BRANCH  25  28
ATOM     28  C   UNL     1      35.637 -17.367 -23.676  0.00  0.00    +0.064 C 
BRANCH  28  29
ATOM     29  C   UNL     1      35.021 -18.340 -22.660  0.00  0.00    +0.124 C 
BRANCH  29  30
ATOM     30  O   UNL     1      34.599 -19.520 -23.339  0.00  0.00    -0.384 OA
ATOM     31  H   UNL     1      34.337 -20.191 -22.690  0.00  0.00    +0.210 HD
ENDBRANCH  29  30
BRANCH  29  32
ATOM     32  C   UNL     1      35.976 -18.708 -21.523  0.00  0.00    +0.139 C 
BRANCH  32  34
ATOM     33  O   UNL     1      34.291 -20.218 -20.670  0.00  0.00    -0.250 OA
ATOM     34  C   UNL     1      35.442 -19.801 -20.626  0.00  0.00    +0.316 C 
BRANCH  34  35
ATOM     35  O   UNL     1      36.364 -20.258 -19.744  0.00  0.00    -0.480 OA
ATOM     36  H   UNL     1      37.272 -20.065 -19.874  0.00  0.00    +0.295 HD
ENDBRANCH  34  35
ENDBRANCH  32  34
ENDBRANCH  29  32
ENDBRANCH  28  29
ENDBRANCH  25  28
ENDBRANCH  24  25
ENDBRANCH   5  23
TORSDOF 12
ENDMDL
MODEL 8
REMARK VINA RESULT:      -7.6      9.021     13.654
REMARK  Name = 446157
REMARK  12 active torsions:
REMARK  status: ('A' for Active; 'I' for Inactive)
REMARK    1  A    between atoms: N_2  and  S_16
REMARK    2  A    between atoms: C_4  and  C_20
REMARK    3  A    between atoms: C_5  and  C_23
REMARK    4  A    between atoms: C_6  and  C_10
REMARK    5  A    between atoms: C_24  and  C_25
REMARK    6  A    between atoms: C_25  and  O_26
REMARK    7  A    between atoms: C_25  and  C_28
REMARK    8  A    between atoms: C_28  and  C_29
REMARK    9  A    between atoms: C_29  and  O_30
REMARK   10  A    between atoms: C_29  and  C_32
REMARK   11  A    between atoms: C_32  and  C_34
REMARK   12  A    between atoms: C_34  and  O_35
REMARK                            x       y       z     vdW  Elec       q    Type
REMARK                         _______ _______ _______ _____ _____    ______ ____
ROOT
ATOM      1  N   UNL     1      32.168  -9.854 -21.779  0.00  0.00    -0.335 NA
ATOM      2  N   UNL     1      32.870  -8.596 -23.647  0.00  0.00    -0.116 N 
ATOM      3  N   UNL     1      33.004 -10.949 -23.755  0.00  0.00    -0.331 NA
ATOM      4  C   UNL     1      31.990 -11.070 -21.224  0.00  0.00    +0.110 C 
ATOM      5  C   UNL     1      32.291 -12.256 -21.863  0.00  0.00    +0.124 C 
ATOM      6  C   UNL     1      32.801 -12.133 -23.141  0.00  0.00    +0.133 C 
ATOM      7  C   UNL     1      32.671  -9.866 -23.028  0.00  0.00    +0.221 C 
ATOM      8  C   UNL     1      31.957  -7.486 -23.252  0.00  0.00    +0.153 C 
ENDROOT
BRANCH   6  10
ATOM      9  F   UNL     1      34.229 -16.538 -26.248  0.00  0.00    -0.204 F 
ATOM     10  C   UNL     1      33.171 -13.277 -23.946  0.00  0.00    +0.027 C 
ATOM     11  C   UNL     1      34.239 -14.087 -23.558  0.00  0.00    +0.005 C 
ATOM     12  C   UNL     1      32.461 -13.568 -25.112  0.00  0.00    +0.005 C 
ATOM     13  C   UNL     1      34.596 -15.188 -24.336  0.00  0.00    +0.030 C 
ATOM     14  C   UNL     1      32.819 -14.670 -25.889  0.00  0.00    +0.030 C 
ATOM     15  C   UNL     1      33.886 -15.479 -25.501  0.00  0.00    +0.140 C 
ENDBRANCH   6  10
BRANCH   2  16
ATOM     16  S   UNL     1      34.484  -8.176 -24.099  0.00  0.00    +0.068 S 
ATOM     17  O   UNL     1      35.027  -9.206 -24.966  0.00  0.00    -0.154 OA
ATOM     18  O   UNL     1      35.227  -7.741 -22.932  0.00  0.00    -0.154 OA
ATOM     19  C   UNL     1      34.202  -6.743 -25.117  0.00  0.00    +0.201 C 
ENDBRANCH   2  16
BRANCH   4  20
ATOM     20  C   UNL     1      31.434 -11.064 -19.837  0.00  0.00    +0.050 C 
ATOM     21  C   UNL     1      29.910 -10.847 -19.818  0.00  0.00    +0.007 C 
ATOM     22  C   UNL     1      32.124 -10.026 -18.934  0.00  0.00    +0.007 C 
ENDBRANCH   4  20
BRANCH   5  23
ATOM     23  C   UNL     1      32.082 -13.562 -21.215  0.00  0.00    -0.015 C 
ATOM     24  C   UNL     1      33.049 -14.460 -20.968  0.00  0.00    -0.001 C 
BRANCH  24  25
ATOM     25  C   UNL     1      32.865 -15.808 -20.311  0.00  0.00    +0.135 C 
BRANCH  25  26
ATOM     26  O   UNL     1      31.505 -16.014 -19.944  0.00  0.00    -0.380 OA
ATOM     27  H   UNL     1      30.979 -16.189 -20.741  0.00  0.00    +0.211 HD
ENDBRANCH  25  26
BRANCH  25  28
ATOM     28  C   UNL     1      33.330 -16.931 -21.254  0.00  0.00    +0.064 C 
BRANCH  28  29
ATOM     29  C   UNL     1      34.857 -17.021 -21.397  0.00  0.00    +0.124 C 
BRANCH  29  30
ATOM     30  O   UNL     1      35.459 -16.773 -20.129  0.00  0.00    -0.384 OA
ATOM     31  H   UNL     1      34.986 -17.270 -19.443  0.00  0.00    +0.210 HD
ENDBRANCH  29  30
BRANCH  29  32
ATOM     32  C   UNL     1      35.332 -18.369 -21.942  0.00  0.00    +0.139 C 
BRANCH  32  34
ATOM     33  O   UNL     1      36.317 -19.638 -20.136  0.00  0.00    -0.250 OA
ATOM     34  C   UNL     1      35.372 -19.456 -20.893  0.00  0.00    +0.316 C 
BRANCH  34  35
ATOM     35  O   UNL     1      34.260 -20.231 -20.892  0.00  0.00    -0.480 OA
ATOM     36  H   UNL     1      33.413 -19.833 -20.838  0.00  0.00    +0.295 HD
ENDBRANCH  34  35
ENDBRANCH  32  34
ENDBRANCH  29  32
ENDBRANCH  28  29
ENDBRANCH  25  28
ENDBRANCH  24  25
ENDBRANCH   5  23
TORSDOF 12
ENDMDL
MODEL 9
REMARK VINA RESULT:      -7.5     10.253     14.954
REMARK  Name = 446157
REMARK  12 active torsions:
REMARK  status: ('A' for Active; 'I' for Inactive)
REMARK    1  A    between atoms: N_2  and  S_16
REMARK    2  A    between atoms: C_4  and  C_20
REMARK    3  A    between atoms: C_5  and  C_23
REMARK    4  A    between atoms: C_6  and  C_10
REMARK    5  A    between atoms: C_24  and  C_25
REMARK    6  A    between atoms: C_25  and  O_26
REMARK    7  A    between atoms: C_25  and  C_28
REMARK    8  A    between atoms: C_28  and  C_29
REMARK    9  A    between atoms: C_29  and  O_30
REMARK   10  A    between atoms: C_29  and  C_32
REMARK   11  A    between atoms: C_32  and  C_34
REMARK   12  A    between atoms: C_34  and  O_35
REMARK                            x       y       z     vdW  Elec       q    Type
REMARK                         _______ _______ _______ _____ _____    ______ ____
ROOT
ATOM      1  N   UNL     1      34.032  -8.912 -24.961  0.00  0.00    -0.335 NA
ATOM      2  N   UNL     1      33.366  -6.718 -24.407  0.00  0.00    -0.116 N 
ATOM      3  N   UNL     1      32.884  -8.460 -22.892  0.00  0.00    -0.331 NA
ATOM      4  C   UNL     1      34.077 -10.214 -24.610  0.00  0.00    +0.110 C 
ATOM      5  C   UNL     1      33.555 -10.708 -23.432  0.00  0.00    +0.124 C 
ATOM      6  C   UNL     1      32.964  -9.776 -22.603  0.00  0.00    +0.133 C 
ATOM      7  C   UNL     1      33.430  -8.102 -24.070  0.00  0.00    +0.221 C 
ATOM      8  C   UNL     1      34.462  -6.164 -25.255  0.00  0.00    +0.153 C 
ENDROOT
BRANCH   6  10
ATOM      9  F   UNL     1      30.654 -11.134 -17.712  0.00  0.00    -0.204 F 
ATOM     10  C   UNL     1      32.366 -10.129 -21.333  0.00  0.00    +0.027 C 
ATOM     11  C   UNL     1      31.780 -11.384 -21.164  0.00  0.00    +0.005 C 
ATOM     12  C   UNL     1      32.373  -9.213 -20.280  0.00  0.00    +0.005 C 
ATOM     13  C   UNL     1      31.202 -11.722 -19.940  0.00  0.00    +0.030 C 
ATOM     14  C   UNL     1      31.794  -9.553 -19.057  0.00  0.00    +0.030 C 
ATOM     15  C   UNL     1      31.209 -10.807 -18.887  0.00  0.00    +0.140 C 
ENDBRANCH   6  10
BRANCH   2  16
ATOM     16  S   UNL     1      31.799  -6.011 -24.571  0.00  0.00    +0.068 S 
ATOM     17  O   UNL     1      30.802  -7.061 -24.664  0.00  0.00    -0.154 OA
ATOM     18  O   UNL     1      31.835  -4.951 -25.561  0.00  0.00    -0.154 OA
ATOM     19  C   UNL     1      31.591  -5.244 -22.977  0.00  0.00    +0.201 C 
ENDBRANCH   2  16
BRANCH   4  20
ATOM     20  C   UNL     1      34.742 -11.118 -25.596  0.00  0.00    +0.050 C 
ATOM     21  C   UNL     1      35.783 -10.382 -26.458  0.00  0.00    +0.007 C 
ATOM     22  C   UNL     1      33.729 -11.843 -26.501  0.00  0.00    +0.007 C 
ENDBRANCH   4  20
BRANCH   5  23
ATOM     23  C   UNL     1      33.626 -12.140 -23.092  0.00  0.00    -0.015 C 
ATOM     24  C   UNL     1      32.809 -13.086 -23.582  0.00  0.00    -0.001 C 
BRANCH  24  25
ATOM     25  C   UNL     1      32.853 -14.560 -23.250  0.00  0.00    +0.135 C 
BRANCH  25  26
ATOM     26  O   UNL     1      33.865 -15.221 -24.003  0.00  0.00    -0.380 OA
ATOM     27  H   UNL     1      33.479 -15.984 -24.461  0.00  0.00    +0.211 HD
ENDBRANCH  25  26
BRANCH  25  28
ATOM     28  C   UNL     1      33.103 -14.761 -21.745  0.00  0.00    +0.064 C 
BRANCH  28  29
ATOM     29  C   UNL     1      34.437 -15.455 -21.431  0.00  0.00    +0.124 C 
BRANCH  29  30
ATOM     30  O   UNL     1      34.977 -14.908 -20.230  0.00  0.00    -0.384 OA
ATOM     31  H   UNL     1      35.891 -15.213 -20.118  0.00  0.00    +0.210 HD
ENDBRANCH  29  30
BRANCH  29  32
ATOM     32  C   UNL     1      34.310 -16.974 -21.299  0.00  0.00    +0.139 C 
BRANCH  32  34
ATOM     33  O   UNL     1      36.142 -18.548 -21.201  0.00  0.00    -0.250 OA
ATOM     34  C   UNL     1      35.505 -17.721 -21.842  0.00  0.00    +0.316 C 
BRANCH  34  35
ATOM     35  O   UNL     1      35.819 -17.365 -23.112  0.00  0.00    -0.480 OA
ATOM     36  H   UNL     1      35.462 -16.580 -23.479  0.00  0.00    +0.295 HD
ENDBRANCH  34  35
ENDBRANCH  32  34
ENDBRANCH  29  32
ENDBRANCH  28  29
ENDBRANCH  25  28
ENDBRANCH  24  25
ENDBRANCH   5  23
TORSDOF 12
ENDMDL
