MODEL 1
REMARK VINA RESULT:     -10.9      0.000      0.000
REMARK  Name = 5289111
REMARK  6 active torsions:
REMARK  status: ('A' for Active; 'I' for Inactive)
REMARK    1  A    between atoms: C_3  and  C_9
REMARK    2  A    between atoms: C_4  and  C_20
REMARK    3  A    between atoms: N_8  and  C_11
REMARK    4  A    between atoms: C_11  and  C_13
REMARK    5  A    between atoms: N_19  and  C_22
REMARK    6  A    between atoms: C_22  and  C_24
REMARK                            x       y       z     vdW  Elec       q    Type
REMARK                         _______ _______ _______ _____ _____    ______ ____
ROOT
ATOM      1  N   UNL     1      33.959 -15.540 -24.806  0.00  0.00    -0.244 NA
ATOM      2  N   UNL     1      32.689 -13.656 -24.004  0.00  0.00    -0.244 NA
ATOM      3  C   UNL     1      34.092 -15.909 -23.530  0.00  0.00    +0.115 C 
ATOM      4  C   UNL     1      32.879 -14.110 -22.747  0.00  0.00    +0.115 C 
ATOM      5  C   UNL     1      33.586 -15.256 -22.446  0.00  0.00    +0.100 C 
ATOM      6  C   UNL     1      33.249 -14.408 -24.971  0.00  0.00    +0.250 C 
ENDROOT
BRANCH   3   9
ATOM      7  O   UNL     1      35.196 -17.828 -24.304  0.00  0.00    -0.269 OA
ATOM      8  N   UNL     1      35.203 -17.460 -22.015  0.00  0.00    -0.296 N 
ATOM      9  C   UNL     1      34.872 -17.157 -23.327  0.00  0.00    +0.260 C 
ATOM     10  H   UNL     1      34.897 -16.858 -21.298  0.00  0.00    +0.150 HD
BRANCH   8  11
ATOM     11  C   UNL     1      35.978 -18.624 -21.660  0.00  0.00    +0.118 C 
BRANCH  11  13
ATOM     12  N   UNL     1      35.131 -21.616 -19.531  0.00  0.00    -0.243 NA
ATOM     13  C   UNL     1      35.180 -19.634 -20.914  0.00  0.00    +0.017 C 
ATOM     14  C   UNL     1      33.792 -19.571 -20.886  0.00  0.00    +0.001 C 
ATOM     15  C   UNL     1      35.797 -20.667 -20.227  0.00  0.00    +0.096 C 
ATOM     16  C   UNL     1      33.072 -20.530 -20.181  0.00  0.00    +0.020 C 
ATOM     17  C   UNL     1      33.783 -21.523 -19.526  0.00  0.00    +0.099 C 
ENDBRANCH  11  13
ENDBRANCH   8  11
ENDBRANCH   3   9
BRANCH   4  20
ATOM     18  O   UNL     1      32.534 -13.557 -20.495  0.00  0.00    -0.269 OA
ATOM     19  N   UNL     1      31.447 -12.259 -22.081  0.00  0.00    -0.296 N 
ATOM     20  C   UNL     1      32.283 -13.313 -21.691  0.00  0.00    +0.260 C 
ATOM     21  H   UNL     1      31.291 -12.121 -23.043  0.00  0.00    +0.150 HD
BRANCH  19  22
ATOM     22  C   UNL     1      30.800 -11.364 -21.148  0.00  0.00    +0.118 C 
BRANCH  22  24
ATOM     23  N   UNL     1      32.436  -8.355 -19.574  0.00  0.00    -0.243 NA
ATOM     24  C   UNL     1      31.541 -10.065 -21.011  0.00  0.00    +0.017 C 
ATOM     25  C   UNL     1      31.996  -9.395 -22.132  0.00  0.00    +0.001 C 
ATOM     26  C   UNL     1      31.777  -9.520 -19.767  0.00  0.00    +0.096 C 
ATOM     27  C   UNL     1      32.679  -8.193 -21.975  0.00  0.00    +0.020 C 
ATOM     28  C   UNL     1      32.871  -7.721 -20.686  0.00  0.00    +0.099 C 
ENDBRANCH  22  24
ENDBRANCH  19  22
ENDBRANCH   4  20
TORSDOF 6
ENDMDL
MODEL 2
REMARK VINA RESULT:     -10.9      0.580      9.151
REMARK  Name = 5289111
REMARK  6 active torsions:
REMARK  status: ('A' for Active; 'I' for Inactive)
REMARK    1  A    between atoms: C_3  and  C_9
REMARK    2  A    between atoms: C_4  and  C_20
REMARK    3  A    between atoms: N_8  and  C_11
REMARK    4  A    between atoms: C_11  and  C_13
REMARK    5  A    between atoms: N_19  and  C_22
REMARK    6  A    between atoms: C_22  and  C_24
REMARK                            x       y       z     vdW  Elec       q    Type
REMARK                         _______ _______ _______ _____ _____    ______ ____
ROOT
ATOM      1  N   UNL     1      32.723 -13.776 -23.937  0.00  0.00    -0.244 NA
ATOM      2  N   UNL     1      33.992 -15.678 -24.698  0.00  0.00    -0.244 NA
ATOM      3  C   UNL     1      32.917 -14.228 -22.695  0.00  0.00    +0.115 C 
ATOM      4  C   UNL     1      34.133 -16.053 -23.409  0.00  0.00    +0.115 C 
ATOM      5  C   UNL     1      33.606 -15.350 -22.345  0.00  0.00    +0.100 C 
ATOM      6  C   UNL     1      33.286 -14.547 -24.887  0.00  0.00    +0.250 C 
ENDROOT
BRANCH   3   9
ATOM      7  O   UNL     1      32.538 -13.650 -20.454  0.00  0.00    -0.269 OA
ATOM      8  N   UNL     1      31.513 -12.338 -22.068  0.00  0.00    -0.296 N 
ATOM      9  C   UNL     1      32.304 -13.390 -21.632  0.00  0.00    +0.260 C 
ATOM     10  H   UNL     1      31.385 -12.212 -23.036  0.00  0.00    +0.150 HD
BRANCH   8  11
ATOM     11  C   UNL     1      30.870 -11.422 -21.158  0.00  0.00    +0.118 C 
BRANCH  11  13
ATOM     12  N   UNL     1      32.461  -8.352 -19.658  0.00  0.00    -0.243 NA
ATOM     13  C   UNL     1      31.590 -10.124 -21.053  0.00  0.00    +0.017 C 
ATOM     14  C   UNL     1      32.058  -9.471 -22.187  0.00  0.00    +0.001 C 
ATOM     15  C   UNL     1      31.814  -9.529 -19.822  0.00  0.00    +0.096 C 
ATOM     16  C   UNL     1      32.727  -8.259 -22.058  0.00  0.00    +0.020 C 
ATOM     17  C   UNL     1      32.900  -7.746 -20.783  0.00  0.00    +0.099 C 
ENDBRANCH  11  13
ENDBRANCH   8  11
ENDBRANCH   3   9
BRANCH   4  20
ATOM     18  O   UNL     1      35.301 -17.948 -24.145  0.00  0.00    -0.269 OA
ATOM     19  N   UNL     1      35.153 -17.622 -21.854  0.00  0.00    -0.296 N 
ATOM     20  C   UNL     1      34.891 -17.270 -23.184  0.00  0.00    +0.260 C 
ATOM     21  H   UNL     1      34.800 -17.042 -21.141  0.00  0.00    +0.150 HD
BRANCH  19  22
ATOM     22  C   UNL     1      35.914 -18.790 -21.470  0.00  0.00    +0.118 C 
BRANCH  22  24
ATOM     23  N   UNL     1      32.871 -20.630 -20.223  0.00  0.00    -0.243 NA
ATOM     24  C   UNL     1      35.066 -19.803 -20.757  0.00  0.00    +0.017 C 
ATOM     25  C   UNL     1      35.653 -20.804 -20.004  0.00  0.00    +0.001 C 
ATOM     26  C   UNL     1      33.691 -19.750 -20.841  0.00  0.00    +0.096 C 
ATOM     27  C   UNL     1      34.842 -21.728 -19.353  0.00  0.00    +0.020 C 
ATOM     28  C   UNL     1      33.469 -21.599 -19.494  0.00  0.00    +0.099 C 
ENDBRANCH  22  24
ENDBRANCH  19  22
ENDBRANCH   4  20
TORSDOF 6
ENDMDL
MODEL 3
REMARK VINA RESULT:     -10.8      2.095      2.644
REMARK  Name = 5289111
REMARK  6 active torsions:
REMARK  status: ('A' for Active; 'I' for Inactive)
REMARK    1  A    between atoms: C_3  and  C_9
REMARK    2  A    between atoms: C_4  and  C_20
REMARK    3  A    between atoms: N_8  and  C_11
REMARK    4  A    between atoms: C_11  and  C_13
REMARK    5  A    between atoms: N_19  and  C_22
REMARK    6  A    between atoms: C_22  and  C_24
REMARK                            x       y       z     vdW  Elec       q    Type
REMARK                         _______ _______ _______ _____ _____    ______ ____
ROOT
ATOM      1  N   UNL     1      33.432 -16.262 -21.194  0.00  0.00    -0.244 NA
ATOM      2  N   UNL     1      32.699 -14.182 -22.166  0.00  0.00    -0.244 NA
ATOM      3  C   UNL     1      34.255 -16.383 -22.239  0.00  0.00    +0.115 C 
ATOM      4  C   UNL     1      33.562 -14.395 -23.181  0.00  0.00    +0.115 C 
ATOM      5  C   UNL     1      34.382 -15.502 -23.271  0.00  0.00    +0.100 C 
ATOM      6  C   UNL     1      32.686 -15.141 -21.221  0.00  0.00    +0.250 C 
ENDROOT
BRANCH   3   9
ATOM      7  O   UNL     1      35.495 -18.072 -23.293  0.00  0.00    -0.269 OA
ATOM      8  N   UNL     1      35.366 -18.147 -20.979  0.00  0.00    -0.296 N 
ATOM      9  C   UNL     1      35.088 -17.613 -22.228  0.00  0.00    +0.260 C 
ATOM     10  H   UNL     1      34.993 -17.706 -20.182  0.00  0.00    +0.150 HD
BRANCH   8  11
ATOM     11  C   UNL     1      36.182 -19.323 -20.803  0.00  0.00    +0.118 C 
BRANCH  11  13
ATOM     12  N   UNL     1      35.538 -22.343 -18.641  0.00  0.00    -0.243 NA
ATOM     13  C   UNL     1      35.458 -20.419 -20.103  0.00  0.00    +0.017 C 
ATOM     14  C   UNL     1      34.082 -20.565 -20.233  0.00  0.00    +0.001 C 
ATOM     15  C   UNL     1      36.135 -21.326 -19.304  0.00  0.00    +0.096 C 
ATOM     16  C   UNL     1      33.433 -21.600 -19.568  0.00  0.00    +0.020 C 
ATOM     17  C   UNL     1      34.199 -22.454 -18.792  0.00  0.00    +0.099 C 
ENDBRANCH  11  13
ENDBRANCH   8  11
ENDBRANCH   3   9
BRANCH   4  20
ATOM     18  O   UNL     1      33.125 -13.598 -25.343  0.00  0.00    -0.269 OA
ATOM     19  N   UNL     1      34.141 -12.132 -23.862  0.00  0.00    -0.296 N 
ATOM     20  C   UNL     1      33.592 -13.372 -24.211  0.00  0.00    +0.260 C 
ATOM     21  H   UNL     1      34.493 -12.019 -22.949  0.00  0.00    +0.150 HD
BRANCH  19  22
ATOM     22  C   UNL     1      34.220 -11.008 -24.768  0.00  0.00    +0.118 C 
BRANCH  22  24
ATOM     23  N   UNL     1      32.577  -8.344 -22.668  0.00  0.00    -0.243 NA
ATOM     24  C   UNL     1      33.990  -9.702 -24.064  0.00  0.00    +0.017 C 
ATOM     25  C   UNL     1      34.923  -8.684 -24.150  0.00  0.00    +0.001 C 
ATOM     26  C   UNL     1      32.845  -9.496 -23.324  0.00  0.00    +0.096 C 
ATOM     27  C   UNL     1      34.683  -7.484 -23.489  0.00  0.00    +0.020 C 
ATOM     28  C   UNL     1      33.506  -7.367 -22.767  0.00  0.00    +0.099 C 
ENDBRANCH  22  24
ENDBRANCH  19  22
ENDBRANCH   4  20
TORSDOF 6
ENDMDL
MODEL 4
REMARK VINA RESULT:     -10.8      7.168     11.584
REMARK  Name = 5289111
REMARK  6 active torsions:
REMARK  status: ('A' for Active; 'I' for Inactive)
REMARK    1  A    between atoms: C_3  and  C_9
REMARK    2  A    between atoms: C_4  and  C_20
REMARK    3  A    between atoms: N_8  and  C_11
REMARK    4  A    between atoms: C_11  and  C_13
REMARK    5  A    between atoms: N_19  and  C_22
REMARK    6  A    between atoms: C_22  and  C_24
REMARK                            x       y       z     vdW  Elec       q    Type
REMARK                         _______ _______ _______ _____ _____    ______ ____
ROOT
ATOM      1  N   UNL     1      37.837 -23.180 -15.424  0.00  0.00    -0.244 NA
ATOM      2  N   UNL     1      36.461 -24.342 -13.823  0.00  0.00    -0.244 NA
ATOM      3  C   UNL     1      36.713 -22.633 -15.894  0.00  0.00    +0.115 C 
ATOM      4  C   UNL     1      35.383 -23.739 -14.368  0.00  0.00    +0.115 C 
ATOM      5  C   UNL     1      35.453 -22.856 -15.426  0.00  0.00    +0.100 C 
ATOM      6  C   UNL     1      37.639 -24.022 -14.391  0.00  0.00    +0.250 C 
ENDROOT
BRANCH   3   9
ATOM      7  O   UNL     1      37.544 -20.662 -16.855  0.00  0.00    -0.269 OA
ATOM      8  N   UNL     1      36.369 -22.098 -18.245  0.00  0.00    -0.296 N 
ATOM      9  C   UNL     1      36.911 -21.700 -17.032  0.00  0.00    +0.260 C 
ATOM     10  H   UNL     1      35.877 -22.950 -18.287  0.00  0.00    +0.150 HD
BRANCH   8  11
ATOM     11  C   UNL     1      36.499 -21.313 -19.448  0.00  0.00    +0.118 C 
BRANCH  11  13
ATOM     12  N   UNL     1      32.778 -20.979 -19.940  0.00  0.00    -0.243 NA
ATOM     13  C   UNL     1      35.189 -20.812 -19.945  0.00  0.00    +0.017 C 
ATOM     14  C   UNL     1      35.121 -19.755 -20.846  0.00  0.00    +0.001 C 
ATOM     15  C   UNL     1      34.000 -21.385 -19.527  0.00  0.00    +0.096 C 
ATOM     16  C   UNL     1      33.883 -19.310 -21.294  0.00  0.00    +0.020 C 
ATOM     17  C   UNL     1      32.751 -19.950 -20.815  0.00  0.00    +0.099 C 
ENDBRANCH  11  13
ENDBRANCH   8  11
ENDBRANCH   3   9
BRANCH   4  20
ATOM     18  O   UNL     1      33.980 -24.132 -12.531  0.00  0.00    -0.269 OA
ATOM     19  N   UNL     1      33.029 -24.291 -14.640  0.00  0.00    -0.296 N 
ATOM     20  C   UNL     1      34.103 -24.071 -13.769  0.00  0.00    +0.260 C 
ATOM     21  H   UNL     1      33.195 -24.227 -15.608  0.00  0.00    +0.150 HD
BRANCH  19  22
ATOM     22  C   UNL     1      31.690 -24.607 -14.196  0.00  0.00    +0.118 C 
BRANCH  22  24
ATOM     23  N   UNL     1      30.088 -22.486 -16.868  0.00  0.00    -0.243 NA
ATOM     24  C   UNL     1      30.645 -24.021 -15.101  0.00  0.00    +0.017 C 
ATOM     25  C   UNL     1      29.330 -24.442 -15.019  0.00  0.00    +0.001 C 
ATOM     26  C   UNL     1      30.980 -23.054 -16.025  0.00  0.00    +0.096 C 
ATOM     27  C   UNL     1      28.383 -23.880 -15.869  0.00  0.00    +0.020 C 
ATOM     28  C   UNL     1      28.810 -22.916 -16.768  0.00  0.00    +0.099 C 
ENDBRANCH  22  24
ENDBRANCH  19  22
ENDBRANCH   4  20
TORSDOF 6
ENDMDL
MODEL 5
REMARK VINA RESULT:     -10.8      2.135      9.635
REMARK  Name = 5289111
REMARK  6 active torsions:
REMARK  status: ('A' for Active; 'I' for Inactive)
REMARK    1  A    between atoms: C_3  and  C_9
REMARK    2  A    between atoms: C_4  and  C_20
REMARK    3  A    between atoms: N_8  and  C_11
REMARK    4  A    between atoms: C_11  and  C_13
REMARK    5  A    between atoms: N_19  and  C_22
REMARK    6  A    between atoms: C_22  and  C_24
REMARK                            x       y       z     vdW  Elec       q    Type
REMARK                         _______ _______ _______ _____ _____    ______ ____
ROOT
ATOM      1  N   UNL     1      32.842 -14.055 -22.116  0.00  0.00    -0.244 NA
ATOM      2  N   UNL     1      33.542 -16.148 -21.149  0.00  0.00    -0.244 NA
ATOM      3  C   UNL     1      33.659 -14.329 -23.136  0.00  0.00    +0.115 C 
ATOM      4  C   UNL     1      34.339 -16.335 -22.222  0.00  0.00    +0.115 C 
ATOM      5  C   UNL     1      34.438 -15.440 -23.268  0.00  0.00    +0.100 C 
ATOM      6  C   UNL     1      32.832 -15.003 -21.160  0.00  0.00    +0.250 C 
ENDROOT
BRANCH   3   9
ATOM      7  O   UNL     1      33.251 -13.573 -25.318  0.00  0.00    -0.269 OA
ATOM      8  N   UNL     1      34.185 -12.055 -23.834  0.00  0.00    -0.296 N 
ATOM      9  C   UNL     1      33.683 -13.295 -24.202  0.00  0.00    +0.260 C 
ATOM     10  H   UNL     1      34.509 -11.930 -22.913  0.00  0.00    +0.150 HD
BRANCH   8  11
ATOM     11  C   UNL     1      34.250 -10.942 -24.750  0.00  0.00    +0.118 C 
BRANCH  11  13
ATOM     12  N   UNL     1      32.328  -8.270 -22.916  0.00  0.00    -0.243 NA
ATOM     13  C   UNL     1      33.928  -9.646 -24.094  0.00  0.00    +0.017 C 
ATOM     14  C   UNL     1      34.864  -8.621 -24.035  0.00  0.00    +0.001 C 
ATOM     15  C   UNL     1      32.684  -9.423 -23.526  0.00  0.00    +0.096 C 
ATOM     16  C   UNL     1      34.534  -7.420 -23.417  0.00  0.00    +0.020 C 
ATOM     17  C   UNL     1      33.264  -7.295 -22.878  0.00  0.00    +0.099 C 
ENDBRANCH  11  13
ENDBRANCH   8  11
ENDBRANCH   3   9
BRANCH   4  20
ATOM     18  O   UNL     1      35.511 -18.055 -23.300  0.00  0.00    -0.269 OA
ATOM     19  N   UNL     1      35.401 -18.141 -20.986  0.00  0.00    -0.296 N 
ATOM     20  C   UNL     1      35.112 -17.563 -22.228  0.00  0.00    +0.260 C 
ATOM     21  H   UNL     1      35.056 -17.701 -20.176  0.00  0.00    +0.150 HD
BRANCH  19  22
ATOM     22  C   UNL     1      36.180 -19.349 -20.827  0.00  0.00    +0.118 C 
BRANCH  22  24
ATOM     23  N   UNL     1      35.402 -22.375 -18.718  0.00  0.00    -0.243 NA
ATOM     24  C   UNL     1      35.401 -20.432 -20.138  0.00  0.00    +0.017 C 
ATOM     25  C   UNL     1      34.026 -20.502 -20.273  0.00  0.00    +0.001 C 
ATOM     26  C   UNL     1      36.044 -21.374 -19.363  0.00  0.00    +0.096 C 
ATOM     27  C   UNL     1      33.330 -21.518 -19.625  0.00  0.00    +0.020 C 
ATOM     28  C   UNL     1      34.059 -22.420 -18.866  0.00  0.00    +0.099 C 
ENDBRANCH  22  24
ENDBRANCH  19  22
ENDBRANCH   4  20
TORSDOF 6
ENDMDL
MODEL 6
REMARK VINA RESULT:     -10.8      7.177     11.048
REMARK  Name = 5289111
REMARK  6 active torsions:
REMARK  status: ('A' for Active; 'I' for Inactive)
REMARK    1  A    between atoms: C_3  and  C_9
REMARK    2  A    between atoms: C_4  and  C_20
REMARK    3  A    between atoms: N_8  and  C_11
REMARK    4  A    between atoms: C_11  and  C_13
REMARK    5  A    between atoms: N_19  and  C_22
REMARK    6  A    between atoms: C_22  and  C_24
REMARK                            x       y       z     vdW  Elec       q    Type
REMARK                         _______ _______ _______ _____ _____    ______ ____
ROOT
ATOM      1  N   UNL     1      36.585 -24.391 -13.867  0.00  0.00    -0.244 NA
ATOM      2  N   UNL     1      37.910 -23.200 -15.490  0.00  0.00    -0.244 NA
ATOM      3  C   UNL     1      35.519 -23.773 -14.383  0.00  0.00    +0.115 C 
ATOM      4  C   UNL     1      36.774 -22.626 -15.941  0.00  0.00    +0.115 C 
ATOM      5  C   UNL     1      35.525 -22.882 -15.414  0.00  0.00    +0.100 C 
ATOM      6  C   UNL     1      37.744 -24.059 -14.467  0.00  0.00    +0.250 C 
ENDROOT
BRANCH   3   9
ATOM      7  O   UNL     1      34.185 -24.253 -12.514  0.00  0.00    -0.269 OA
ATOM      8  N   UNL     1      33.142 -24.265 -14.585  0.00  0.00    -0.296 N 
ATOM      9  C   UNL     1      34.229 -24.126 -13.736  0.00  0.00    +0.260 C 
ATOM     10  H   UNL     1      33.278 -24.143 -15.552  0.00  0.00    +0.150 HD
BRANCH   8  11
ATOM     11  C   UNL     1      31.819 -24.581 -14.105  0.00  0.00    +0.118 C 
BRANCH  11  13
ATOM     12  N   UNL     1      30.096 -22.639 -16.837  0.00  0.00    -0.243 NA
ATOM     13  C   UNL     1      30.750 -24.086 -15.014  0.00  0.00    +0.017 C 
ATOM     14  C   UNL     1      29.449 -24.565 -14.918  0.00  0.00    +0.001 C 
ATOM     15  C   UNL     1      31.020 -23.131 -15.981  0.00  0.00    +0.096 C 
ATOM     16  C   UNL     1      28.470 -24.083 -15.781  0.00  0.00    +0.020 C 
ATOM     17  C   UNL     1      28.842 -23.128 -16.714  0.00  0.00    +0.099 C 
ENDBRANCH  11  13
ENDBRANCH   8  11
ENDBRANCH   3   9
BRANCH   4  20
ATOM     18  O   UNL     1      37.529 -20.615 -16.882  0.00  0.00    -0.269 OA
ATOM     19  N   UNL     1      36.407 -22.082 -18.284  0.00  0.00    -0.296 N 
ATOM     20  C   UNL     1      36.932 -21.696 -17.044  0.00  0.00    +0.260 C 
ATOM     21  H   UNL     1      35.946 -22.950 -18.344  0.00  0.00    +0.150 HD
BRANCH  19  22
ATOM     22  C   UNL     1      36.504 -21.277 -19.481  0.00  0.00    +0.118 C 
BRANCH  22  24
ATOM     23  N   UNL     1      32.765 -21.021 -19.879  0.00  0.00    -0.243 NA
ATOM     24  C   UNL     1      35.160 -20.797 -19.946  0.00  0.00    +0.017 C 
ATOM     25  C   UNL     1      35.060 -19.740 -20.833  0.00  0.00    +0.001 C 
ATOM     26  C   UNL     1      34.005 -21.403 -19.498  0.00  0.00    +0.096 C 
ATOM     27  C   UNL     1      33.801 -19.318 -21.248  0.00  0.00    +0.020 C 
ATOM     28  C   UNL     1      32.696 -19.985 -20.745  0.00  0.00    +0.099 C 
ENDBRANCH  22  24
ENDBRANCH  19  22
ENDBRANCH   4  20
TORSDOF 6
ENDMDL
MODEL 7
REMARK VINA RESULT:     -10.6      1.845      8.864
REMARK  Name = 5289111
REMARK  6 active torsions:
REMARK  status: ('A' for Active; 'I' for Inactive)
REMARK    1  A    between atoms: C_3  and  C_9
REMARK    2  A    between atoms: C_4  and  C_20
REMARK    3  A    between atoms: N_8  and  C_11
REMARK    4  A    between atoms: C_11  and  C_13
REMARK    5  A    between atoms: N_19  and  C_22
REMARK    6  A    between atoms: C_22  and  C_24
REMARK                            x       y       z     vdW  Elec       q    Type
REMARK                         _______ _______ _______ _____ _____    ______ ____
ROOT
ATOM      1  N   UNL     1      33.984 -16.632 -25.533  0.00  0.00    -0.244 NA
ATOM      2  N   UNL     1      34.927 -18.278 -24.048  0.00  0.00    -0.244 NA
ATOM      3  C   UNL     1      33.986 -15.791 -24.496  0.00  0.00    +0.115 C 
ATOM      4  C   UNL     1      34.888 -17.357 -23.062  0.00  0.00    +0.115 C 
ATOM      5  C   UNL     1      34.418 -16.071 -23.234  0.00  0.00    +0.100 C 
ATOM      6  C   UNL     1      34.466 -17.854 -25.240  0.00  0.00    +0.250 C 
ENDROOT
BRANCH   3   9
ATOM      7  O   UNL     1      32.678 -14.293 -25.737  0.00  0.00    -0.269 OA
ATOM      8  N   UNL     1      33.882 -13.417 -23.959  0.00  0.00    -0.296 N 
ATOM      9  C   UNL     1      33.458 -14.436 -24.799  0.00  0.00    +0.260 C 
ATOM     10  H   UNL     1      34.510 -13.633 -23.232  0.00  0.00    +0.150 HD
BRANCH   8  11
ATOM     11  C   UNL     1      33.437 -12.053 -24.110  0.00  0.00    +0.118 C 
BRANCH  11  13
ATOM     12  N   UNL     1      31.744  -9.723 -21.679  0.00  0.00    -0.243 NA
ATOM     13  C   UNL     1      32.659 -11.575 -22.935  0.00  0.00    +0.017 C 
ATOM     14  C   UNL     1      32.132 -12.471 -22.012  0.00  0.00    +0.001 C 
ATOM     15  C   UNL     1      32.441 -10.223 -22.725  0.00  0.00    +0.096 C 
ATOM     16  C   UNL     1      31.410 -11.994 -20.923  0.00  0.00    +0.020 C 
ATOM     17  C   UNL     1      31.246 -10.624 -20.803  0.00  0.00    +0.099 C 
ENDBRANCH  11  13
ENDBRANCH   8  11
ENDBRANCH   3   9
BRANCH   4  20
ATOM     18  O   UNL     1      35.240 -17.077 -20.761  0.00  0.00    -0.269 OA
ATOM     19  N   UNL     1      35.991 -19.054 -21.712  0.00  0.00    -0.296 N 
ATOM     20  C   UNL     1      35.381 -17.795 -21.769  0.00  0.00    +0.260 C 
ATOM     21  H   UNL     1      36.070 -19.571 -22.546  0.00  0.00    +0.150 HD
BRANCH  19  22
ATOM     22  C   UNL     1      36.510 -19.638 -20.495  0.00  0.00    +0.118 C 
BRANCH  22  24
ATOM     23  N   UNL     1      35.183 -22.499 -18.431  0.00  0.00    -0.243 NA
ATOM     24  C   UNL     1      35.550 -20.620 -19.889  0.00  0.00    +0.017 C 
ATOM     25  C   UNL     1      34.204 -20.572 -20.206  0.00  0.00    +0.001 C 
ATOM     26  C   UNL     1      35.994 -21.585 -19.010  0.00  0.00    +0.096 C 
ATOM     27  C   UNL     1      33.337 -21.496 -19.630  0.00  0.00    +0.020 C 
ATOM     28  C   UNL     1      33.872 -22.429 -18.757  0.00  0.00    +0.099 C 
ENDBRANCH  22  24
ENDBRANCH  19  22
ENDBRANCH   4  20
TORSDOF 6
ENDMDL
MODEL 8
REMARK VINA RESULT:     -10.5      1.842      2.807
REMARK  Name = 5289111
REMARK  6 active torsions:
REMARK  status: ('A' for Active; 'I' for Inactive)
REMARK    1  A    between atoms: C_3  and  C_9
REMARK    2  A    between atoms: C_4  and  C_20
REMARK    3  A    between atoms: N_8  and  C_11
REMARK    4  A    between atoms: C_11  and  C_13
REMARK    5  A    between atoms: N_19  and  C_22
REMARK    6  A    between atoms: C_22  and  C_24
REMARK                            x       y       z     vdW  Elec       q    Type
REMARK                         _______ _______ _______ _____ _____    ______ ____
ROOT
ATOM      1  N   UNL     1      34.879 -18.242 -24.021  0.00  0.00    -0.244 NA
ATOM      2  N   UNL     1      33.925 -16.592 -25.495  0.00  0.00    -0.244 NA
ATOM      3  C   UNL     1      34.864 -17.304 -23.070  0.00  0.00    +0.115 C 
ATOM      4  C   UNL     1      33.952 -15.714 -24.470  0.00  0.00    +0.115 C 
ATOM      5  C   UNL     1      34.420 -16.023 -23.209  0.00  0.00    +0.100 C 
ATOM      6  C   UNL     1      34.396 -17.819 -25.205  0.00  0.00    +0.250 C 
ENDROOT
BRANCH   3   9
ATOM      7  O   UNL     1      35.223 -17.038 -20.768  0.00  0.00    -0.269 OA
ATOM      8  N   UNL     1      36.029 -18.982 -21.743  0.00  0.00    -0.296 N 
ATOM      9  C   UNL     1      35.391 -17.751 -21.755  0.00  0.00    +0.260 C 
ATOM     10  H   UNL     1      36.114 -19.479 -22.588  0.00  0.00    +0.150 HD
BRANCH   8  11
ATOM     11  C   UNL     1      36.571 -19.562 -20.539  0.00  0.00    +0.118 C 
BRANCH  11  13
ATOM     12  N   UNL     1      35.352 -22.448 -18.443  0.00  0.00    -0.243 NA
ATOM     13  C   UNL     1      35.656 -20.564 -19.927  0.00  0.00    +0.017 C 
ATOM     14  C   UNL     1      34.301 -20.578 -20.235  0.00  0.00    +0.001 C 
ATOM     15  C   UNL     1      36.129 -21.511 -19.034  0.00  0.00    +0.096 C 
ATOM     16  C   UNL     1      33.470 -21.527 -19.649  0.00  0.00    +0.020 C 
ATOM     17  C   UNL     1      34.040 -22.432 -18.767  0.00  0.00    +0.099 C 
ENDBRANCH  11  13
ENDBRANCH   8  11
ENDBRANCH   3   9
BRANCH   4  20
ATOM     18  O   UNL     1      32.639 -14.205 -25.693  0.00  0.00    -0.269 OA
ATOM     19  N   UNL     1      33.891 -13.339 -23.944  0.00  0.00    -0.296 N 
ATOM     20  C   UNL     1      33.447 -14.385 -24.763  0.00  0.00    +0.260 C 
ATOM     21  H   UNL     1      34.530 -13.550 -23.226  0.00  0.00    +0.150 HD
BRANCH  19  22
ATOM     22  C   UNL     1      33.461 -11.967 -24.094  0.00  0.00    +0.118 C 
BRANCH  22  24
ATOM     23  N   UNL     1      31.634  -9.679 -21.721  0.00  0.00    -0.243 NA
ATOM     24  C   UNL     1      32.647 -11.501 -22.922  0.00  0.00    +0.017 C 
ATOM     25  C   UNL     1      32.174 -12.409 -21.992  0.00  0.00    +0.001 C 
ATOM     26  C   UNL     1      32.360 -10.163 -22.754  0.00  0.00    +0.096 C 
ATOM     27  C   UNL     1      31.423 -11.949 -20.915  0.00  0.00    +0.020 C 
ATOM     28  C   UNL     1      31.182 -10.587 -20.827  0.00  0.00    +0.099 C 
ENDBRANCH  22  24
ENDBRANCH  19  22
ENDBRANCH   4  20
TORSDOF 6
ENDMDL
MODEL 9
REMARK VINA RESULT:     -10.5      6.370     12.170
REMARK  Name = 5289111
REMARK  6 active torsions:
REMARK  status: ('A' for Active; 'I' for Inactive)
REMARK    1  A    between atoms: C_3  and  C_9
REMARK    2  A    between atoms: C_4  and  C_20
REMARK    3  A    between atoms: N_8  and  C_11
REMARK    4  A    between atoms: C_11  and  C_13
REMARK    5  A    between atoms: N_19  and  C_22
REMARK    6  A    between atoms: C_22  and  C_24
REMARK                            x       y       z     vdW  Elec       q    Type
REMARK                         _______ _______ _______ _____ _____    ______ ____
ROOT
ATOM      1  N   UNL     1      31.732 -22.728 -17.638  0.00  0.00    -0.244 NA
ATOM      2  N   UNL     1      31.271 -23.274 -15.337  0.00  0.00    -0.244 NA
ATOM      3  C   UNL     1      32.998 -23.081 -17.399  0.00  0.00    +0.115 C 
ATOM      4  C   UNL     1      32.571 -23.607 -15.194  0.00  0.00    +0.115 C 
ATOM      5  C   UNL     1      33.498 -23.529 -16.214  0.00  0.00    +0.100 C 
ATOM      6  C   UNL     1      30.925 -22.849 -16.567  0.00  0.00    +0.250 C 
ENDROOT
BRANCH   3   9
ATOM      7  O   UNL     1      33.768 -23.725 -19.518  0.00  0.00    -0.269 OA
ATOM      8  N   UNL     1      34.842 -21.937 -18.505  0.00  0.00    -0.296 N 
ATOM      9  C   UNL     1      33.904 -22.956 -18.570  0.00  0.00    +0.260 C 
ATOM     10  H   UNL     1      34.873 -21.372 -17.700  0.00  0.00    +0.150 HD
BRANCH   8  11
ATOM     11  C   UNL     1      35.775 -21.674 -19.573  0.00  0.00    +0.118 C 
BRANCH  11  13
ATOM     12  N   UNL     1      36.242 -18.414 -21.406  0.00  0.00    -0.243 NA
ATOM     13  C   UNL     1      35.457 -20.421 -20.311  0.00  0.00    +0.017 C 
ATOM     14  C   UNL     1      34.143 -20.073 -20.597  0.00  0.00    +0.001 C 
ATOM     15  C   UNL     1      36.462 -19.566 -20.733  0.00  0.00    +0.096 C 
ATOM     16  C   UNL     1      33.876 -18.895 -21.287  0.00  0.00    +0.020 C 
ATOM     17  C   UNL     1      34.951 -18.107 -21.666  0.00  0.00    +0.099 C 
ENDBRANCH  11  13
ENDBRANCH   8  11
ENDBRANCH   3   9
BRANCH   4  20
ATOM     18  O   UNL     1      32.257 -24.880 -13.251  0.00  0.00    -0.269 OA
ATOM     19  N   UNL     1      34.172 -23.578 -13.362  0.00  0.00    -0.296 N 
ATOM     20  C   UNL     1      32.964 -24.068 -13.875  0.00  0.00    +0.260 C 
ATOM     21  H   UNL     1      34.684 -22.938 -13.907  0.00  0.00    +0.150 HD
BRANCH  19  22
ATOM     22  C   UNL     1      34.709 -23.961 -12.075  0.00  0.00    +0.118 C 
BRANCH  22  24
ATOM     23  N   UNL     1      38.361 -23.117 -11.685  0.00  0.00    -0.243 NA
ATOM     24  C   UNL     1      36.203 -24.095 -12.107  0.00  0.00    +0.017 C 
ATOM     25  C   UNL     1      36.794 -25.258 -12.567  0.00  0.00    +0.001 C 
ATOM     26  C   UNL     1      37.010 -23.061 -11.681  0.00  0.00    +0.096 C 
ATOM     27  C   UNL     1      38.182 -25.354 -12.587  0.00  0.00    +0.020 C 
ATOM     28  C   UNL     1      38.913 -24.266 -12.139  0.00  0.00    +0.099 C 
ENDBRANCH  22  24
ENDBRANCH  19  22
ENDBRANCH   4  20
TORSDOF 6
ENDMDL
