MODEL 1
REMARK VINA RESULT:      -9.0      0.000      0.000
REMARK  Name = 84088
REMARK  10 active torsions:
REMARK  status: ('A' for Active; 'I' for Inactive)
REMARK    1  A    between atoms: C_6  and  O_21
REMARK    2  A    between atoms: C_6  and  C_26
REMARK    3  A    between atoms: C_9  and  O_23
REMARK    4  A    between atoms: C_26  and  C_27
REMARK    5  A    between atoms: C_27  and  O_28
REMARK    6  A    between atoms: O_28  and  C_30
REMARK    7  A    between atoms: C_30  and  C_31
REMARK    8  A    between atoms: C_31  and  N_32
REMARK    9  A    between atoms: N_32  and  C_34
REMARK   10  A    between atoms: N_32  and  C_36
REMARK                            x       y       z     vdW  Elec       q    Type
REMARK                         _______ _______ _______ _____ _____    ______ ____
ROOT
ATOM      1  O   UNL     1      34.263 -10.191 -25.810  0.00  0.00    -0.291 OA
ATOM      2  C   UNL     1      34.815 -17.727 -22.029  0.00  0.00    +0.031 C 
ATOM      3  C   UNL     1      34.786 -17.427 -23.543  0.00  0.00    +0.003 C 
ATOM      4  C   UNL     1      33.859 -16.262 -23.922  0.00  0.00    +0.003 C 
ATOM      5  C   UNL     1      34.346 -14.971 -23.187  0.00  0.00    +0.030 C 
ATOM      6  C   UNL     1      35.763 -18.957 -22.030  0.00  0.00    +0.143 C 
ATOM      7  C   UNL     1      35.345 -16.465 -21.318  0.00  0.00    +0.032 C 
ATOM      8  C   UNL     1      33.522 -13.682 -23.593  0.00  0.00    +0.018 C 
ATOM      9  C   UNL     1      34.534 -15.195 -21.654  0.00  0.00    +0.111 C 
ATOM     10  C   UNL     1      34.543 -18.797 -24.171  0.00  0.00    +0.003 C 
ATOM     11  C   UNL     1      35.326 -19.772 -23.269  0.00  0.00    +0.034 C 
ATOM     12  C   UNL     1      33.868 -16.045 -25.444  0.00  0.00    +0.004 C 
ATOM     13  C   UNL     1      33.429 -18.139 -21.459  0.00  0.00    +0.003 C 
ATOM     14  C   UNL     1      33.451 -13.591 -25.124  0.00  0.00    -0.042 C 
ATOM     15  C   UNL     1      33.027 -14.845 -25.850  0.00  0.00    +0.022 C 
ATOM     16  C   UNL     1      34.261 -12.437 -23.021  0.00  0.00    +0.012 C 
ATOM     17  C   UNL     1      32.068 -13.687 -23.069  0.00  0.00    +0.004 C 
ATOM     18  C   UNL     1      33.820 -11.126 -23.651  0.00  0.00    +0.069 C 
ATOM     19  C   UNL     1      33.703 -12.474 -25.825  0.00  0.00    +0.029 C 
ATOM     20  C   UNL     1      33.982 -11.187 -25.146  0.00  0.00    +0.173 C 
ENDROOT
BRANCH   6  21
ATOM     21  O   UNL     1      37.123 -18.562 -22.184  0.00  0.00    -0.380 OA
ATOM     22  H   UNL     1      37.371 -18.616 -23.120  0.00  0.00    +0.211 HD
ENDBRANCH   6  21
BRANCH   9  23
ATOM     23  O   UNL     1      33.284 -15.241 -20.980  0.00  0.00    -0.384 OA
ATOM     24  H   UNL     1      32.605 -15.585 -21.580  0.00  0.00    +0.210 HD
ENDBRANCH   9  23
BRANCH   6  26
ATOM     25  O   UNL     1      36.548 -19.539 -19.856  0.00  0.00    -0.290 OA
ATOM     26  C   UNL     1      35.734 -19.746 -20.754  0.00  0.00    +0.218 C 
BRANCH  26  27
ATOM     27  C   UNL     1      34.655 -20.802 -20.644  0.00  0.00    +0.274 C 
BRANCH  27  28
ATOM     28  O   UNL     1      34.584 -21.307 -19.326  0.00  0.00    -0.442 OA
BRANCH  28  30
ATOM     29  O   UNL     1      34.188 -23.517 -19.856  0.00  0.00    -0.252 OA
ATOM     30  C   UNL     1      33.963 -22.525 -19.174  0.00  0.00    +0.296 C 
BRANCH  30  31
ATOM     31  C   UNL     1      32.972 -22.442 -18.040  0.00  0.00    +0.035 C 
BRANCH  31  32
ATOM     32  N   UNL     1      33.305 -23.452 -17.046  0.00  0.00    +0.394 N 
ATOM     33  H   UNL     1      33.397 -24.348 -17.523  0.00  0.00    -0.079 HD
BRANCH  32  34
ATOM     34  C   UNL     1      32.240 -23.565 -16.047  0.00  0.00    -0.077 C 
ATOM     35  C   UNL     1      30.979 -22.852 -16.504  0.00  0.00    -0.025 C 
ENDBRANCH  32  34
BRANCH  32  36
ATOM     36  C   UNL     1      34.578 -23.137 -16.395  0.00  0.00    -0.077 C 
ATOM     37  C   UNL     1      34.472 -23.274 -14.885  0.00  0.00    -0.025 C 
ENDBRANCH  32  36
ENDBRANCH  31  32
ENDBRANCH  30  31
ENDBRANCH  28  30
ENDBRANCH  27  28
ENDBRANCH  26  27
ENDBRANCH   6  26
TORSDOF 10
ENDMDL
MODEL 2
REMARK VINA RESULT:      -8.8      3.291      6.344
REMARK  Name = 84088
REMARK  10 active torsions:
REMARK  status: ('A' for Active; 'I' for Inactive)
REMARK    1  A    between atoms: C_6  and  O_21
REMARK    2  A    between atoms: C_6  and  C_26
REMARK    3  A    between atoms: C_9  and  O_23
REMARK    4  A    between atoms: C_26  and  C_27
REMARK    5  A    between atoms: C_27  and  O_28
REMARK    6  A    between atoms: O_28  and  C_30
REMARK    7  A    between atoms: C_30  and  C_31
REMARK    8  A    between atoms: C_31  and  N_32
REMARK    9  A    between atoms: N_32  and  C_34
REMARK   10  A    between atoms: N_32  and  C_36
REMARK                            x       y       z     vdW  Elec       q    Type
REMARK                         _______ _______ _______ _____ _____    ______ ____
ROOT
ATOM      1  O   UNL     1      30.558  -4.622 -23.056  0.00  0.00    -0.291 OA
ATOM      2  C   UNL     1      33.320 -12.602 -23.331  0.00  0.00    +0.031 C 
ATOM      3  C   UNL     1      32.308 -11.984 -22.343  0.00  0.00    +0.003 C 
ATOM      4  C   UNL     1      32.642 -10.538 -21.944  0.00  0.00    +0.003 C 
ATOM      5  C   UNL     1      32.657  -9.652 -23.232  0.00  0.00    +0.030 C 
ATOM      6  C   UNL     1      32.723 -14.032 -23.448  0.00  0.00    +0.143 C 
ATOM      7  C   UNL     1      33.291 -11.750 -24.617  0.00  0.00    +0.032 C 
ATOM      8  C   UNL     1      32.887  -8.117 -22.920  0.00  0.00    +0.018 C 
ATOM      9  C   UNL     1      33.557 -10.252 -24.357  0.00  0.00    +0.111 C 
ATOM     10  C   UNL     1      32.190 -13.042 -21.249  0.00  0.00    +0.003 C 
ATOM     11  C   UNL     1      32.294 -14.382 -22.005  0.00  0.00    +0.034 C 
ATOM     12  C   UNL     1      31.604 -10.007 -20.943  0.00  0.00    +0.004 C 
ATOM     13  C   UNL     1      34.763 -12.686 -22.760  0.00  0.00    +0.003 C 
ATOM     14  C   UNL     1      31.913  -7.675 -21.819  0.00  0.00    -0.042 C 
ATOM     15  C   UNL     1      31.854  -8.549 -20.589  0.00  0.00    +0.022 C 
ATOM     16  C   UNL     1      32.611  -7.313 -24.225  0.00  0.00    +0.012 C 
ATOM     17  C   UNL     1      34.313  -7.792 -22.424  0.00  0.00    +0.004 C 
ATOM     18  C   UNL     1      32.405  -5.825 -23.991  0.00  0.00    +0.069 C 
ATOM     19  C   UNL     1      31.163  -6.563 -21.877  0.00  0.00    +0.029 C 
ATOM     20  C   UNL     1      31.295  -5.604 -22.998  0.00  0.00    +0.173 C 
ENDROOT
BRANCH   6  21
ATOM     21  O   UNL     1      31.578 -14.046 -24.295  0.00  0.00    -0.380 OA
ATOM     22  H   UNL     1      30.810 -14.362 -23.794  0.00  0.00    +0.211 HD
ENDBRANCH   6  21
BRANCH   9  23
ATOM     23  O   UNL     1      34.937 -10.060 -24.074  0.00  0.00    -0.384 OA
ATOM     24  H   UNL     1      35.310  -9.423 -24.702  0.00  0.00    +0.210 HD
ENDBRANCH   9  23
BRANCH   6  26
ATOM     25  O   UNL     1      33.839 -15.090 -25.268  0.00  0.00    -0.290 OA
ATOM     26  C   UNL     1      33.662 -15.033 -24.053  0.00  0.00    +0.218 C 
BRANCH  26  27
ATOM     27  C   UNL     1      34.368 -15.959 -23.086  0.00  0.00    +0.274 C 
BRANCH  27  28
ATOM     28  O   UNL     1      35.107 -16.940 -23.784  0.00  0.00    -0.442 OA
BRANCH  28  30
ATOM     29  O   UNL     1      34.681 -19.168 -24.204  0.00  0.00    -0.252 OA
ATOM     30  C   UNL     1      34.878 -18.247 -23.421  0.00  0.00    +0.296 C 
BRANCH  30  31
ATOM     31  C   UNL     1      34.912 -18.361 -21.918  0.00  0.00    +0.035 C 
BRANCH  31  32
ATOM     32  N   UNL     1      34.528 -19.713 -21.537  0.00  0.00    +0.394 N 
ATOM     33  H   UNL     1      34.482 -20.280 -22.383  0.00  0.00    -0.079 HD
BRANCH  32  34
ATOM     34  C   UNL     1      33.208 -19.716 -20.902  0.00  0.00    -0.077 C 
ATOM     35  C   UNL     1      33.116 -20.791 -19.832  0.00  0.00    -0.025 C 
ENDBRANCH  32  34
BRANCH  32  36
ATOM     36  C   UNL     1      35.523 -20.298 -20.636  0.00  0.00    -0.077 C 
ATOM     37  C   UNL     1      36.787 -19.456 -20.590  0.00  0.00    -0.025 C 
ENDBRANCH  32  36
ENDBRANCH  31  32
ENDBRANCH  30  31
ENDBRANCH  28  30
ENDBRANCH  27  28
ENDBRANCH  26  27
ENDBRANCH   6  26
TORSDOF 10
ENDMDL
MODEL 3
REMARK VINA RESULT:      -8.0      4.728      8.534
REMARK  Name = 84088
REMARK  10 active torsions:
REMARK  status: ('A' for Active; 'I' for Inactive)
REMARK    1  A    between atoms: C_6  and  O_21
REMARK    2  A    between atoms: C_6  and  C_26
REMARK    3  A    between atoms: C_9  and  O_23
REMARK    4  A    between atoms: C_26  and  C_27
REMARK    5  A    between atoms: C_27  and  O_28
REMARK    6  A    between atoms: O_28  and  C_30
REMARK    7  A    between atoms: C_30  and  C_31
REMARK    8  A    between atoms: C_31  and  N_32
REMARK    9  A    between atoms: N_32  and  C_34
REMARK   10  A    between atoms: N_32  and  C_36
REMARK                            x       y       z     vdW  Elec       q    Type
REMARK                         _______ _______ _______ _____ _____    ______ ____
ROOT
ATOM      1  O   UNL     1      33.684 -18.381 -21.671  0.00  0.00    -0.291 OA
ATOM      2  C   UNL     1      35.536 -23.698 -15.371  0.00  0.00    +0.031 C 
ATOM      3  C   UNL     1      36.476 -22.691 -16.068  0.00  0.00    +0.003 C 
ATOM      4  C   UNL     1      36.219 -22.551 -17.576  0.00  0.00    +0.003 C 
ATOM      5  C   UNL     1      34.749 -22.063 -17.793  0.00  0.00    +0.030 C 
ATOM      6  C   UNL     1      36.113 -23.631 -13.931  0.00  0.00    +0.143 C 
ATOM      7  C   UNL     1      34.094 -23.181 -15.547  0.00  0.00    +0.032 C 
ATOM      8  C   UNL     1      34.411 -21.782 -19.313  0.00  0.00    +0.018 C 
ATOM      9  C   UNL     1      33.712 -22.940 -17.024  0.00  0.00    +0.111 C 
ATOM     10  C   UNL     1      37.864 -23.116 -15.594  0.00  0.00    +0.003 C 
ATOM     11  C   UNL     1      37.644 -23.571 -14.137  0.00  0.00    +0.034 C 
ATOM     12  C   UNL     1      37.209 -21.553 -18.197  0.00  0.00    +0.004 C 
ATOM     13  C   UNL     1      35.673 -25.146 -15.920  0.00  0.00    +0.003 C 
ATOM     14  C   UNL     1      35.505 -20.889 -19.916  0.00  0.00    -0.042 C 
ATOM     15  C   UNL     1      36.930 -21.323 -19.675  0.00  0.00    +0.022 C 
ATOM     16  C   UNL     1      33.037 -21.052 -19.375  0.00  0.00    +0.012 C 
ATOM     17  C   UNL     1      34.338 -23.060 -20.178  0.00  0.00    +0.004 C 
ATOM     18  C   UNL     1      32.768 -20.373 -20.708  0.00  0.00    +0.069 C 
ATOM     19  C   UNL     1      35.263 -19.796 -20.658  0.00  0.00    +0.029 C 
ATOM     20  C   UNL     1      33.883 -19.416 -21.039  0.00  0.00    +0.173 C 
ENDROOT
BRANCH   6  21
ATOM     21  O   UNL     1      35.683 -22.453 -13.256  0.00  0.00    -0.380 OA
ATOM     22  H   UNL     1      36.455 -21.908 -13.035  0.00  0.00    +0.211 HD
ENDBRANCH   6  21
BRANCH   9  23
ATOM     23  O   UNL     1      33.510 -24.189 -17.669  0.00  0.00    -0.384 OA
ATOM     24  H   UNL     1      33.758 -24.115 -18.603  0.00  0.00    +0.210 HD
ENDBRANCH   9  23
BRANCH   6  26
ATOM     25  O   UNL     1      36.332 -25.796 -12.958  0.00  0.00    -0.290 OA
ATOM     26  C   UNL     1      35.672 -24.762 -13.049  0.00  0.00    +0.218 C 
BRANCH  26  27
ATOM     27  C   UNL     1      34.380 -24.555 -12.288  0.00  0.00    +0.274 C 
BRANCH  27  28
ATOM     28  O   UNL     1      33.266 -24.768 -13.130  0.00  0.00    -0.442 OA
BRANCH  28  30
ATOM     29  O   UNL     1      32.295 -22.775 -12.491  0.00  0.00    -0.252 OA
ATOM     30  C   UNL     1      32.213 -23.896 -12.978  0.00  0.00    +0.296 C 
BRANCH  30  31
ATOM     31  C   UNL     1      30.954 -24.537 -13.504  0.00  0.00    +0.035 C 
BRANCH  31  32
ATOM     32  N   UNL     1      30.855 -24.280 -14.934  0.00  0.00    +0.394 N 
ATOM     33  H   UNL     1      31.773 -24.437 -15.349  0.00  0.00    -0.079 HD
BRANCH  32  34
ATOM     34  C   UNL     1      30.463 -22.892 -15.184  0.00  0.00    -0.077 C 
ATOM     35  C   UNL     1      29.927 -22.717 -16.595  0.00  0.00    -0.025 C 
ENDBRANCH  32  34
BRANCH  32  36
ATOM     36  C   UNL     1      29.898 -25.195 -15.559  0.00  0.00    -0.077 C 
ATOM     37  C   UNL     1      28.834 -25.640 -14.568  0.00  0.00    -0.025 C 
ENDBRANCH  32  36
ENDBRANCH  31  32
ENDBRANCH  30  31
ENDBRANCH  28  30
ENDBRANCH  27  28
ENDBRANCH  26  27
ENDBRANCH   6  26
TORSDOF 10
ENDMDL
MODEL 4
REMARK VINA RESULT:      -7.6      4.470      8.435
REMARK  Name = 84088
REMARK  10 active torsions:
REMARK  status: ('A' for Active; 'I' for Inactive)
REMARK    1  A    between atoms: C_6  and  O_21
REMARK    2  A    between atoms: C_6  and  C_26
REMARK    3  A    between atoms: C_9  and  O_23
REMARK    4  A    between atoms: C_26  and  C_27
REMARK    5  A    between atoms: C_27  and  O_28
REMARK    6  A    between atoms: O_28  and  C_30
REMARK    7  A    between atoms: C_30  and  C_31
REMARK    8  A    between atoms: C_31  and  N_32
REMARK    9  A    between atoms: N_32  and  C_34
REMARK   10  A    between atoms: N_32  and  C_36
REMARK                            x       y       z     vdW  Elec       q    Type
REMARK                         _______ _______ _______ _____ _____    ______ ____
ROOT
ATOM      1  O   UNL     1      30.183  -2.707 -24.173  0.00  0.00    -0.291 OA
ATOM      2  C   UNL     1      32.108 -10.632 -21.964  0.00  0.00    +0.031 C 
ATOM      3  C   UNL     1      31.772  -9.445 -21.036  0.00  0.00    +0.003 C 
ATOM      4  C   UNL     1      32.318  -8.099 -21.536  0.00  0.00    +0.003 C 
ATOM      5  C   UNL     1      31.702  -7.798 -22.942  0.00  0.00    +0.030 C 
ATOM      6  C   UNL     1      31.483 -11.789 -21.136  0.00  0.00    +0.143 C 
ATOM      7  C   UNL     1      31.453 -10.349 -23.332  0.00  0.00    +0.032 C 
ATOM      8  C   UNL     1      32.116  -6.377 -23.504  0.00  0.00    +0.018 C 
ATOM      9  C   UNL     1      31.872  -8.990 -23.934  0.00  0.00    +0.111 C 
ATOM     10  C   UNL     1      32.194  -9.944 -19.656  0.00  0.00    +0.003 C 
ATOM     11  C   UNL     1      31.844 -11.446 -19.673  0.00  0.00    +0.034 C 
ATOM     12  C   UNL     1      31.964  -6.977 -20.547  0.00  0.00    +0.004 C 
ATOM     13  C   UNL     1      33.634 -10.873 -22.124  0.00  0.00    +0.003 C 
ATOM     14  C   UNL     1      31.865  -5.315 -22.425  0.00  0.00    -0.042 C 
ATOM     15  C   UNL     1      32.414  -5.615 -21.051  0.00  0.00    +0.022 C 
ATOM     16  C   UNL     1      31.239  -6.079 -24.756  0.00  0.00    +0.012 C 
ATOM     17  C   UNL     1      33.606  -6.279 -23.901  0.00  0.00    +0.004 C 
ATOM     18  C   UNL     1      31.239  -4.615 -25.164  0.00  0.00    +0.069 C 
ATOM     19  C   UNL     1      31.234  -4.150 -22.645  0.00  0.00    +0.029 C 
ATOM     20  C   UNL     1      30.807  -3.753 -24.007  0.00  0.00    +0.173 C 
ENDROOT
BRANCH   6  21
ATOM     21  O   UNL     1      30.065 -11.817 -21.276  0.00  0.00    -0.380 OA
ATOM     22  H   UNL     1      29.657 -11.388 -20.508  0.00  0.00    +0.211 HD
ENDBRANCH   6  21
BRANCH   9  23
ATOM     23  O   UNL     1      33.206  -9.078 -24.415  0.00  0.00    -0.384 OA
ATOM     24  H   UNL     1      33.691  -9.744 -23.904  0.00  0.00    +0.210 HD
ENDBRANCH   9  23
BRANCH   6  26
ATOM     25  O   UNL     1      31.896 -13.503 -22.740  0.00  0.00    -0.290 OA
ATOM     26  C   UNL     1      31.938 -13.153 -21.562  0.00  0.00    +0.218 C 
BRANCH  26  27
ATOM     27  C   UNL     1      32.446 -14.063 -20.464  0.00  0.00    +0.274 C 
BRANCH  27  28
ATOM     28  O   UNL     1      32.762 -15.339 -20.979  0.00  0.00    -0.442 OA
BRANCH  28  30
ATOM     29  O   UNL     1      34.932 -15.128 -20.225  0.00  0.00    -0.252 OA
ATOM     30  C   UNL     1      34.058 -15.764 -20.801  0.00  0.00    +0.296 C 
BRANCH  30  31
ATOM     31  C   UNL     1      34.226 -17.128 -21.422  0.00  0.00    +0.035 C 
BRANCH  31  32
ATOM     32  N   UNL     1      35.058 -17.008 -22.610  0.00  0.00    +0.394 N 
ATOM     33  H   UNL     1      35.937 -16.568 -22.339  0.00  0.00    -0.079 HD
BRANCH  32  34
ATOM     34  C   UNL     1      34.407 -16.164 -23.615  0.00  0.00    -0.077 C 
ATOM     35  C   UNL     1      34.673 -16.678 -25.020  0.00  0.00    -0.025 C 
ENDBRANCH  32  34
BRANCH  32  36
ATOM     36  C   UNL     1      35.351 -18.328 -23.172  0.00  0.00    -0.077 C 
ATOM     37  C   UNL     1      35.044 -19.432 -22.174  0.00  0.00    -0.025 C 
ENDBRANCH  32  36
ENDBRANCH  31  32
ENDBRANCH  30  31
ENDBRANCH  28  30
ENDBRANCH  27  28
ENDBRANCH  26  27
ENDBRANCH   6  26
TORSDOF 10
ENDMDL
MODEL 5
REMARK VINA RESULT:      -7.2      6.113     13.551
REMARK  Name = 84088
REMARK  10 active torsions:
REMARK  status: ('A' for Active; 'I' for Inactive)
REMARK    1  A    between atoms: C_6  and  O_21
REMARK    2  A    between atoms: C_6  and  C_26
REMARK    3  A    between atoms: C_9  and  O_23
REMARK    4  A    between atoms: C_26  and  C_27
REMARK    5  A    between atoms: C_27  and  O_28
REMARK    6  A    between atoms: O_28  and  C_30
REMARK    7  A    between atoms: C_30  and  C_31
REMARK    8  A    between atoms: C_31  and  N_32
REMARK    9  A    between atoms: N_32  and  C_34
REMARK   10  A    between atoms: N_32  and  C_36
REMARK                            x       y       z     vdW  Elec       q    Type
REMARK                         _______ _______ _______ _____ _____    ______ ____
ROOT
ATOM      1  O   UNL     1      34.600 -16.797 -20.796  0.00  0.00    -0.291 OA
ATOM      2  C   UNL     1      33.166  -8.971 -23.640  0.00  0.00    +0.031 C 
ATOM      3  C   UNL     1      32.808  -9.557 -22.257  0.00  0.00    +0.003 C 
ATOM      4  C   UNL     1      32.364 -11.026 -22.308  0.00  0.00    +0.003 C 
ATOM      5  C   UNL     1      33.528 -11.884 -22.904  0.00  0.00    +0.030 C 
ATOM      6  C   UNL     1      33.488  -7.509 -23.223  0.00  0.00    +0.143 C 
ATOM      7  C   UNL     1      34.348  -9.790 -24.197  0.00  0.00    +0.032 C 
ATOM      8  C   UNL     1      33.215 -13.435 -22.901  0.00  0.00    +0.018 C 
ATOM      9  C   UNL     1      34.061 -11.307 -24.253  0.00  0.00    +0.111 C 
ATOM     10  C   UNL     1      31.854  -8.519 -21.670  0.00  0.00    +0.003 C 
ATOM     11  C   UNL     1      32.408  -7.169 -22.170  0.00  0.00    +0.034 C 
ATOM     12  C   UNL     1      32.002 -11.525 -20.900  0.00  0.00    +0.004 C 
ATOM     13  C   UNL     1      31.974  -8.977 -24.637  0.00  0.00    +0.003 C 
ATOM     14  C   UNL     1      32.730 -13.849 -21.505  0.00  0.00    -0.042 C 
ATOM     15  C   UNL     1      31.639 -13.002 -20.898  0.00  0.00    +0.022 C 
ATOM     16  C   UNL     1      34.529 -14.193 -23.254  0.00  0.00    +0.012 C 
ATOM     17  C   UNL     1      32.115 -13.846 -23.905  0.00  0.00    +0.004 C 
ATOM     18  C   UNL     1      34.489 -15.673 -22.907  0.00  0.00    +0.069 C 
ATOM     19  C   UNL     1      33.189 -14.918 -20.834  0.00  0.00    +0.029 C 
ATOM     20  C   UNL     1      34.154 -15.857 -21.451  0.00  0.00    +0.173 C 
ENDROOT
BRANCH   6  21
ATOM     21  O   UNL     1      34.776  -7.415 -22.622  0.00  0.00    -0.380 OA
ATOM     22  H   UNL     1      35.217  -6.608 -22.930  0.00  0.00    +0.211 HD
ENDBRANCH   6  21
BRANCH   9  23
ATOM     23  O   UNL     1      33.165 -11.578 -25.322  0.00  0.00    -0.384 OA
ATOM     24  H   UNL     1      32.888 -10.744 -25.732  0.00  0.00    +0.210 HD
ENDBRANCH   9  23
BRANCH   6  26
ATOM     25  O   UNL     1      34.536  -6.416 -25.063  0.00  0.00    -0.290 OA
ATOM     26  C   UNL     1      33.527  -6.546 -24.372  0.00  0.00    +0.218 C 
BRANCH  26  27
ATOM     27  C   UNL     1      32.263  -5.752 -24.624  0.00  0.00    +0.274 C 
BRANCH  27  28
ATOM     28  O   UNL     1      32.572  -4.473 -25.138  0.00  0.00    -0.442 OA
BRANCH  28  30
ATOM     29  O   UNL     1      30.408  -3.759 -24.780  0.00  0.00    -0.252 OA
ATOM     30  C   UNL     1      31.517  -3.601 -25.275  0.00  0.00    +0.296 C 
BRANCH  30  31
ATOM     31  C   UNL     1      31.944  -2.429 -26.123  0.00  0.00    +0.035 C 
BRANCH  31  32
ATOM     32  N   UNL     1      33.102  -2.817 -26.916  0.00  0.00    +0.394 N 
ATOM     33  H   UNL     1      33.461  -3.696 -26.545  0.00  0.00    -0.079 HD
BRANCH  32  34
ATOM     34  C   UNL     1      34.158  -1.806 -26.818  0.00  0.00    -0.077 C 
ATOM     35  C   UNL     1      35.407  -2.242 -27.565  0.00  0.00    -0.025 C 
ENDBRANCH  32  34
BRANCH  32  36
ATOM     36  C   UNL     1      32.725  -3.020 -28.316  0.00  0.00    -0.077 C 
ATOM     37  C   UNL     1      32.834  -4.484 -28.709  0.00  0.00    -0.025 C 
ENDBRANCH  32  36
ENDBRANCH  31  32
ENDBRANCH  30  31
ENDBRANCH  28  30
ENDBRANCH  27  28
ENDBRANCH  26  27
ENDBRANCH   6  26
TORSDOF 10
ENDMDL
MODEL 6
REMARK VINA RESULT:      -6.9      2.767      5.003
REMARK  Name = 84088
REMARK  10 active torsions:
REMARK  status: ('A' for Active; 'I' for Inactive)
REMARK    1  A    between atoms: C_6  and  O_21
REMARK    2  A    between atoms: C_6  and  C_26
REMARK    3  A    between atoms: C_9  and  O_23
REMARK    4  A    between atoms: C_26  and  C_27
REMARK    5  A    between atoms: C_27  and  O_28
REMARK    6  A    between atoms: O_28  and  C_30
REMARK    7  A    between atoms: C_30  and  C_31
REMARK    8  A    between atoms: C_31  and  N_32
REMARK    9  A    between atoms: N_32  and  C_34
REMARK   10  A    between atoms: N_32  and  C_36
REMARK                            x       y       z     vdW  Elec       q    Type
REMARK                         _______ _______ _______ _____ _____    ______ ____
ROOT
ATOM      1  O   UNL     1      32.759  -5.308 -22.129  0.00  0.00    -0.291 OA
ATOM      2  C   UNL     1      32.974 -13.751 -21.865  0.00  0.00    +0.031 C 
ATOM      3  C   UNL     1      33.796 -12.811 -22.772  0.00  0.00    +0.003 C 
ATOM      4  C   UNL     1      33.015 -11.575 -23.246  0.00  0.00    +0.003 C 
ATOM      5  C   UNL     1      32.560 -10.756 -21.994  0.00  0.00    +0.030 C 
ATOM      6  C   UNL     1      34.021 -14.877 -21.648  0.00  0.00    +0.143 C 
ATOM      7  C   UNL     1      32.573 -12.949 -20.610  0.00  0.00    +0.032 C 
ATOM      8  C   UNL     1      31.837  -9.400 -22.374  0.00  0.00    +0.018 C 
ATOM      9  C   UNL     1      31.823 -11.640 -20.941  0.00  0.00    +0.111 C 
ATOM     10  C   UNL     1      34.387 -13.754 -23.817  0.00  0.00    +0.003 C 
ATOM     11  C   UNL     1      34.688 -15.047 -23.033  0.00  0.00    +0.034 C 
ATOM     12  C   UNL     1      33.893 -10.706 -24.162  0.00  0.00    +0.004 C 
ATOM     13  C   UNL     1      31.718 -14.337 -22.567  0.00  0.00    +0.003 C 
ATOM     14  C   UNL     1      32.697  -8.638 -23.392  0.00  0.00    -0.042 C 
ATOM     15  C   UNL     1      33.183  -9.430 -24.583  0.00  0.00    +0.022 C 
ATOM     16  C   UNL     1      31.681  -8.556 -21.075  0.00  0.00    +0.012 C 
ATOM     17  C   UNL     1      30.445  -9.599 -23.013  0.00  0.00    +0.004 C 
ATOM     18  C   UNL     1      31.372  -7.091 -21.335  0.00  0.00    +0.069 C 
ATOM     19  C   UNL     1      32.998  -7.333 -23.298  0.00  0.00    +0.029 C 
ATOM     20  C   UNL     1      32.425  -6.487 -22.226  0.00  0.00    +0.173 C 
ENDROOT
BRANCH   6  21
ATOM     21  O   UNL     1      35.008 -14.489 -20.697  0.00  0.00    -0.380 OA
ATOM     22  H   UNL     1      34.795 -14.878 -19.834  0.00  0.00    +0.211 HD
ENDBRANCH   6  21
BRANCH   9  23
ATOM     23  O   UNL     1      30.500 -11.948 -21.358  0.00  0.00    -0.384 OA
ATOM     24  H   UNL     1      29.866 -11.569 -20.730  0.00  0.00    +0.210 HD
ENDBRANCH   9  23
BRANCH   6  26
ATOM     25  O   UNL     1      32.474 -16.135 -20.343  0.00  0.00    -0.290 OA
ATOM     26  C   UNL     1      33.440 -16.148 -21.104  0.00  0.00    +0.218 C 
BRANCH  26  27
ATOM     27  C   UNL     1      34.109 -17.433 -21.542  0.00  0.00    +0.274 C 
BRANCH  27  28
ATOM     28  O   UNL     1      35.377 -17.568 -20.934  0.00  0.00    -0.442 OA
BRANCH  28  30
ATOM     29  O   UNL     1      37.300 -18.656 -21.597  0.00  0.00    -0.252 OA
ATOM     30  C   UNL     1      36.113 -18.672 -21.298  0.00  0.00    +0.296 C 
BRANCH  30  31
ATOM     31  C   UNL     1      35.228 -19.893 -21.268  0.00  0.00    +0.035 C 
BRANCH  31  32
ATOM     32  N   UNL     1      35.231 -20.446 -19.921  0.00  0.00    +0.394 N 
ATOM     33  H   UNL     1      35.225 -19.670 -19.259  0.00  0.00    -0.079 HD
BRANCH  32  34
ATOM     34  C   UNL     1      36.439 -21.242 -19.691  0.00  0.00    -0.077 C 
ATOM     35  C   UNL     1      36.589 -21.602 -18.223  0.00  0.00    -0.025 C 
ENDBRANCH  32  34
BRANCH  32  36
ATOM     36  C   UNL     1      34.037 -21.262 -19.694  0.00  0.00    -0.077 C 
ATOM     37  C   UNL     1      32.769 -20.467 -19.954  0.00  0.00    -0.025 C 
ENDBRANCH  32  36
ENDBRANCH  31  32
ENDBRANCH  30  31
ENDBRANCH  28  30
ENDBRANCH  27  28
ENDBRANCH  26  27
ENDBRANCH   6  26
TORSDOF 10
ENDMDL
MODEL 7
REMARK VINA RESULT:      -6.2      5.892     13.264
REMARK  Name = 84088
REMARK  10 active torsions:
REMARK  status: ('A' for Active; 'I' for Inactive)
REMARK    1  A    between atoms: C_6  and  O_21
REMARK    2  A    between atoms: C_6  and  C_26
REMARK    3  A    between atoms: C_9  and  O_23
REMARK    4  A    between atoms: C_26  and  C_27
REMARK    5  A    between atoms: C_27  and  O_28
REMARK    6  A    between atoms: O_28  and  C_30
REMARK    7  A    between atoms: C_30  and  C_31
REMARK    8  A    between atoms: C_31  and  N_32
REMARK    9  A    between atoms: N_32  and  C_34
REMARK   10  A    between atoms: N_32  and  C_36
REMARK                            x       y       z     vdW  Elec       q    Type
REMARK                         _______ _______ _______ _____ _____    ______ ____
ROOT
ATOM      1  O   UNL     1      34.655 -16.689 -20.804  0.00  0.00    -0.291 OA
ATOM      2  C   UNL     1      33.053  -8.889 -23.632  0.00  0.00    +0.031 C 
ATOM      3  C   UNL     1      32.733  -9.477 -22.241  0.00  0.00    +0.003 C 
ATOM      4  C   UNL     1      32.308 -10.953 -22.279  0.00  0.00    +0.003 C 
ATOM      5  C   UNL     1      33.471 -11.795 -22.898  0.00  0.00    +0.030 C 
ATOM      6  C   UNL     1      33.363  -7.423 -23.224  0.00  0.00    +0.143 C 
ATOM      7  C   UNL     1      34.234  -9.694 -24.212  0.00  0.00    +0.032 C 
ATOM      8  C   UNL     1      33.179 -13.351 -22.886  0.00  0.00    +0.018 C 
ATOM      9  C   UNL     1      33.967 -11.215 -24.259  0.00  0.00    +0.111 C 
ATOM     10  C   UNL     1      31.778  -8.451 -21.635  0.00  0.00    +0.003 C 
ATOM     11  C   UNL     1      32.302  -7.095 -22.149  0.00  0.00    +0.034 C 
ATOM     12  C   UNL     1      31.983 -11.453 -20.862  0.00  0.00    +0.004 C 
ATOM     13  C   UNL     1      31.841  -8.914 -24.603  0.00  0.00    +0.003 C 
ATOM     14  C   UNL     1      32.730 -13.768 -21.478  0.00  0.00    -0.042 C 
ATOM     15  C   UNL     1      31.640 -12.935 -20.849  0.00  0.00    +0.022 C 
ATOM     16  C   UNL     1      34.495 -14.092 -23.264  0.00  0.00    +0.012 C 
ATOM     17  C   UNL     1      32.064 -13.780 -23.865  0.00  0.00    +0.004 C 
ATOM     18  C   UNL     1      34.483 -15.571 -22.914  0.00  0.00    +0.069 C 
ATOM     19  C   UNL     1      33.217 -14.830 -20.815  0.00  0.00    +0.029 C 
ATOM     20  C   UNL     1      34.182 -15.757 -21.451  0.00  0.00    +0.173 C 
ENDROOT
BRANCH   6  21
ATOM     21  O   UNL     1      34.663  -7.309 -22.652  0.00  0.00    -0.380 OA
ATOM     22  H   UNL     1      34.663  -6.600 -21.991  0.00  0.00    +0.211 HD
ENDBRANCH   6  21
BRANCH   9  23
ATOM     23  O   UNL     1      33.052 -11.500 -25.308  0.00  0.00    -0.384 OA
ATOM     24  H   UNL     1      32.171 -11.178 -25.066  0.00  0.00    +0.210 HD
ENDBRANCH   9  23
BRANCH   6  26
ATOM     25  O   UNL     1      32.558  -5.536 -24.437  0.00  0.00    -0.290 OA
ATOM     26  C   UNL     1      33.365  -6.462 -24.376  0.00  0.00    +0.218 C 
BRANCH  26  27
ATOM     27  C   UNL     1      34.407  -6.701 -25.447  0.00  0.00    +0.274 C 
BRANCH  27  28
ATOM     28  O   UNL     1      34.984  -5.480 -25.863  0.00  0.00    -0.442 OA
BRANCH  28  30
ATOM     29  O   UNL     1      33.385  -5.166 -27.495  0.00  0.00    -0.252 OA
ATOM     30  C   UNL     1      34.496  -4.942 -27.031  0.00  0.00    +0.296 C 
BRANCH  30  31
ATOM     31  C   UNL     1      35.540  -4.040 -27.640  0.00  0.00    +0.035 C 
BRANCH  31  32
ATOM     32  N   UNL     1      36.727  -4.827 -27.942  0.00  0.00    +0.394 N 
ATOM     33  H   UNL     1      36.659  -5.710 -27.437  0.00  0.00    -0.079 HD
BRANCH  32  34
ATOM     34  C   UNL     1      37.936  -4.130 -27.497  0.00  0.00    -0.077 C 
ATOM     35  C   UNL     1      37.860  -2.645 -27.807  0.00  0.00    -0.025 C 
ENDBRANCH  32  34
BRANCH  32  36
ATOM     36  C   UNL     1      36.807  -5.113 -29.375  0.00  0.00    -0.077 C 
ATOM     37  C   UNL     1      37.651  -6.348 -29.644  0.00  0.00    -0.025 C 
ENDBRANCH  32  36
ENDBRANCH  31  32
ENDBRANCH  30  31
ENDBRANCH  28  30
ENDBRANCH  27  28
ENDBRANCH  26  27
ENDBRANCH   6  26
TORSDOF 10
ENDMDL
MODEL 8
REMARK VINA RESULT:      -6.2      3.056      5.594
REMARK  Name = 84088
REMARK  10 active torsions:
REMARK  status: ('A' for Active; 'I' for Inactive)
REMARK    1  A    between atoms: C_6  and  O_21
REMARK    2  A    between atoms: C_6  and  C_26
REMARK    3  A    between atoms: C_9  and  O_23
REMARK    4  A    between atoms: C_26  and  C_27
REMARK    5  A    between atoms: C_27  and  O_28
REMARK    6  A    between atoms: O_28  and  C_30
REMARK    7  A    between atoms: C_30  and  C_31
REMARK    8  A    between atoms: C_31  and  N_32
REMARK    9  A    between atoms: N_32  and  C_34
REMARK   10  A    between atoms: N_32  and  C_36
REMARK                            x       y       z     vdW  Elec       q    Type
REMARK                         _______ _______ _______ _____ _____    ______ ____
ROOT
ATOM      1  O   UNL     1      32.918  -6.262 -19.422  0.00  0.00    -0.291 OA
ATOM      2  C   UNL     1      33.183 -13.588 -23.622  0.00  0.00    +0.031 C 
ATOM      3  C   UNL     1      33.858 -12.253 -24.003  0.00  0.00    +0.003 C 
ATOM      4  C   UNL     1      33.014 -11.017 -23.661  0.00  0.00    +0.003 C 
ATOM      5  C   UNL     1      32.750 -10.998 -22.119  0.00  0.00    +0.030 C 
ATOM      6  C   UNL     1      34.253 -14.578 -24.159  0.00  0.00    +0.143 C 
ATOM      7  C   UNL     1      32.974 -13.581 -22.094  0.00  0.00    +0.032 C 
ATOM      8  C   UNL     1      31.976  -9.702 -21.642  0.00  0.00    +0.018 C 
ATOM      9  C   UNL     1      32.180 -12.353 -21.597  0.00  0.00    +0.111 C 
ATOM     10  C   UNL     1      34.288 -12.474 -25.452  0.00  0.00    +0.003 C 
ATOM     11  C   UNL     1      34.705 -13.958 -25.501  0.00  0.00    +0.034 C 
ATOM     12  C   UNL     1      33.743  -9.734 -24.093  0.00  0.00    +0.004 C 
ATOM     13  C   UNL     1      31.837 -13.827 -24.361  0.00  0.00    +0.003 C 
ATOM     14  C   UNL     1      32.673  -8.460 -22.214  0.00  0.00    -0.042 C 
ATOM     15  C   UNL     1      32.976  -8.484 -23.693  0.00  0.00    +0.022 C 
ATOM     16  C   UNL     1      32.015  -9.663 -20.086  0.00  0.00    +0.012 C 
ATOM     17  C   UNL     1      30.504  -9.654 -22.108  0.00  0.00    +0.004 C 
ATOM     18  C   UNL     1      31.668  -8.303 -19.503  0.00  0.00    +0.069 C 
ATOM     19  C   UNL     1      32.982  -7.369 -21.494  0.00  0.00    +0.029 C 
ATOM     20  C   UNL     1      32.575  -7.245 -20.075  0.00  0.00    +0.173 C 
ENDROOT
BRANCH   6  21
ATOM     21  O   UNL     1      35.370 -14.658 -23.279  0.00  0.00    -0.380 OA
ATOM     22  H   UNL     1      36.119 -14.175 -23.662  0.00  0.00    +0.211 HD
ENDBRANCH   6  21
BRANCH   9  23
ATOM     23  O   UNL     1      30.810 -12.506 -21.941  0.00  0.00    -0.384 OA
ATOM     24  H   UNL     1      30.461 -13.312 -21.530  0.00  0.00    +0.210 HD
ENDBRANCH   9  23
BRANCH   6  26
ATOM     25  O   UNL     1      33.348 -16.428 -25.359  0.00  0.00    -0.290 OA
ATOM     26  C   UNL     1      33.762 -15.990 -24.287  0.00  0.00    +0.218 C 
BRANCH  26  27
ATOM     27  C   UNL     1      33.805 -16.832 -23.030  0.00  0.00    +0.274 C 
BRANCH  27  28
ATOM     28  O   UNL     1      35.114 -17.306 -22.791  0.00  0.00    -0.442 OA
BRANCH  28  30
ATOM     29  O   UNL     1      35.280 -16.885 -20.529  0.00  0.00    -0.252 OA
ATOM     30  C   UNL     1      35.415 -17.633 -21.489  0.00  0.00    +0.296 C 
BRANCH  30  31
ATOM     31  C   UNL     1      35.930 -19.050 -21.437  0.00  0.00    +0.035 C 
BRANCH  31  32
ATOM     32  N   UNL     1      35.213 -19.776 -20.398  0.00  0.00    +0.394 N 
ATOM     33  H   UNL     1      35.330 -19.271 -19.520  0.00  0.00    -0.079 HD
BRANCH  32  34
ATOM     34  C   UNL     1      35.763 -21.124 -20.236  0.00  0.00    -0.077 C 
ATOM     35  C   UNL     1      36.476 -21.270 -18.903  0.00  0.00    -0.025 C 
ENDBRANCH  32  34
BRANCH  32  36
ATOM     36  C   UNL     1      33.784 -19.847 -20.709  0.00  0.00    -0.077 C 
ATOM     37  C   UNL     1      33.117 -20.994 -19.968  0.00  0.00    -0.025 C 
ENDBRANCH  32  36
ENDBRANCH  31  32
ENDBRANCH  30  31
ENDBRANCH  28  30
ENDBRANCH  27  28
ENDBRANCH  26  27
ENDBRANCH   6  26
TORSDOF 10
ENDMDL
MODEL 9
REMARK VINA RESULT:      -6.2      5.659      9.294
REMARK  Name = 84088
REMARK  10 active torsions:
REMARK  status: ('A' for Active; 'I' for Inactive)
REMARK    1  A    between atoms: C_6  and  O_21
REMARK    2  A    between atoms: C_6  and  C_26
REMARK    3  A    between atoms: C_9  and  O_23
REMARK    4  A    between atoms: C_26  and  C_27
REMARK    5  A    between atoms: C_27  and  O_28
REMARK    6  A    between atoms: O_28  and  C_30
REMARK    7  A    between atoms: C_30  and  C_31
REMARK    8  A    between atoms: C_31  and  N_32
REMARK    9  A    between atoms: N_32  and  C_34
REMARK   10  A    between atoms: N_32  and  C_36
REMARK                            x       y       z     vdW  Elec       q    Type
REMARK                         _______ _______ _______ _____ _____    ______ ____
ROOT
ATOM      1  O   UNL     1      30.219  -2.830 -24.718  0.00  0.00    -0.291 OA
ATOM      2  C   UNL     1      32.022 -10.470 -21.592  0.00  0.00    +0.031 C 
ATOM      3  C   UNL     1      31.623  -9.198 -20.814  0.00  0.00    +0.003 C 
ATOM      4  C   UNL     1      32.195  -7.904 -21.413  0.00  0.00    +0.003 C 
ATOM      5  C   UNL     1      31.671  -7.753 -22.878  0.00  0.00    +0.030 C 
ATOM      6  C   UNL     1      31.348 -11.542 -20.692  0.00  0.00    +0.143 C 
ATOM      7  C   UNL     1      31.456 -10.334 -23.021  0.00  0.00    +0.032 C 
ATOM      8  C   UNL     1      32.116  -6.393 -23.555  0.00  0.00    +0.018 C 
ATOM      9  C   UNL     1      31.909  -9.039 -23.731  0.00  0.00    +0.111 C 
ATOM     10  C   UNL     1      31.957  -9.550 -19.366  0.00  0.00    +0.003 C 
ATOM     11  C   UNL     1      31.613 -11.049 -19.251  0.00  0.00    +0.034 C 
ATOM     12  C   UNL     1      31.774  -6.691 -20.568  0.00  0.00    +0.004 C 
ATOM     13  C   UNL     1      33.556 -10.711 -21.628  0.00  0.00    +0.003 C 
ATOM     14  C   UNL     1      31.793  -5.230 -22.608  0.00  0.00    -0.042 C 
ATOM     15  C   UNL     1      32.252  -5.383 -21.178  0.00  0.00    +0.022 C 
ATOM     16  C   UNL     1      31.321  -6.233 -24.884  0.00  0.00    +0.012 C 
ATOM     17  C   UNL     1      33.628  -6.322 -23.864  0.00  0.00    +0.004 C 
ATOM     18  C   UNL     1      31.342  -4.818 -25.439  0.00  0.00    +0.069 C 
ATOM     19  C   UNL     1      31.173  -4.099 -22.986  0.00  0.00    +0.029 C 
ATOM     20  C   UNL     1      30.834  -3.847 -24.406  0.00  0.00    +0.173 C 
ENDROOT
BRANCH   6  21
ATOM     21  O   UNL     1      29.943 -11.598 -20.919  0.00  0.00    -0.380 OA
ATOM     22  H   UNL     1      29.663 -10.808 -21.406  0.00  0.00    +0.211 HD
ENDBRANCH   6  21
BRANCH   9  23
ATOM     23  O   UNL     1      33.272  -9.162 -24.113  0.00  0.00    -0.384 OA
ATOM     24  H   UNL     1      33.839  -9.009 -23.342  0.00  0.00    +0.210 HD
ENDBRANCH   9  23
BRANCH   6  26
ATOM     25  O   UNL     1      32.018 -13.729 -20.021  0.00  0.00    -0.290 OA
ATOM     26  C   UNL     1      31.835 -12.938 -20.946  0.00  0.00    +0.218 C 
BRANCH  26  27
ATOM     27  C   UNL     1      32.086 -13.308 -22.391  0.00  0.00    +0.274 C 
BRANCH  27  28
ATOM     28  O   UNL     1      32.587 -14.626 -22.490  0.00  0.00    -0.442 OA
BRANCH  28  30
ATOM     29  O   UNL     1      34.593 -14.850 -21.371  0.00  0.00    -0.252 OA
ATOM     30  C   UNL     1      33.954 -14.764 -22.412  0.00  0.00    +0.296 C 
BRANCH  30  31
ATOM     31  C   UNL     1      34.532 -14.795 -23.805  0.00  0.00    +0.035 C 
BRANCH  31  32
ATOM     32  N   UNL     1      33.441 -14.816 -24.769  0.00  0.00    +0.394 N 
ATOM     33  H   UNL     1      32.562 -14.822 -24.253  0.00  0.00    -0.079 HD
BRANCH  32  34
ATOM     34  C   UNL     1      33.503 -16.024 -25.595  0.00  0.00    -0.077 C 
ATOM     35  C   UNL     1      34.745 -16.840 -25.282  0.00  0.00    -0.025 C 
ENDBRANCH  32  34
BRANCH  32  36
ATOM     36  C   UNL     1      33.477 -13.622 -25.616  0.00  0.00    -0.077 C 
ATOM     37  C   UNL     1      33.039 -13.942 -27.036  0.00  0.00    -0.025 C 
ENDBRANCH  32  36
ENDBRANCH  31  32
ENDBRANCH  30  31
ENDBRANCH  28  30
ENDBRANCH  27  28
ENDBRANCH  26  27
ENDBRANCH   6  26
TORSDOF 10
ENDMDL
