MODEL 1
REMARK VINA RESULT:      -6.3      0.000      0.000
REMARK  Name = 68525
REMARK  3 active torsions:
REMARK  status: ('A' for Active; 'I' for Inactive)
REMARK    1  A    between atoms: C_1  and  N_7
REMARK    2  A    between atoms: N_7  and  C_9
REMARK    3  A    between atoms: C_9  and  C_10
REMARK                            x       y       z     vdW  Elec       q    Type
REMARK                         _______ _______ _______ _____ _____    ______ ____
ROOT
ATOM      1  C   UNL     1      33.571 -21.494 -19.391  0.00  0.00    +0.045 C 
ATOM      2  C   UNL     1      34.958 -21.637 -19.414  0.00  0.00    +0.014 C 
ATOM      3  C   UNL     1      32.961 -20.494 -20.147  0.00  0.00    +0.014 C 
ATOM      4  C   UNL     1      35.735 -20.780 -20.193  0.00  0.00    +0.001 C 
ATOM      5  C   UNL     1      33.737 -19.638 -20.927  0.00  0.00    +0.001 C 
ATOM      6  C   UNL     1      35.124 -19.780 -20.950  0.00  0.00    +0.000 C 
ENDROOT
BRANCH   1   7
ATOM      7  N   UNL     1      32.787 -22.361 -18.603  0.00  0.00    -0.329 N 
ATOM      8  H   UNL     1      31.812 -22.371 -18.741  0.00  0.00    +0.147 HD
BRANCH   7   9
ATOM      9  C   UNL     1      33.344 -23.228 -17.611  0.00  0.00    +0.114 C 
BRANCH   9  10
ATOM     10  C   UNL     1      32.416 -23.283 -16.440  0.00  0.00    -0.005 C 
ATOM     11  C   UNL     1      31.126 -22.934 -16.493  0.00  0.00    -0.003 C 
ENDBRANCH   9  10
ENDBRANCH   7   9
ENDBRANCH   1   7
TORSDOF 3
ENDMDL
MODEL 2
REMARK VINA RESULT:      -6.3      2.658      5.462
REMARK  Name = 68525
REMARK  3 active torsions:
REMARK  status: ('A' for Active; 'I' for Inactive)
REMARK    1  A    between atoms: C_1  and  N_7
REMARK    2  A    between atoms: N_7  and  C_9
REMARK    3  A    between atoms: C_9  and  C_10
REMARK                            x       y       z     vdW  Elec       q    Type
REMARK                         _______ _______ _______ _____ _____    ______ ____
ROOT
ATOM      1  C   UNL     1      35.115 -19.614 -20.950  0.00  0.00    +0.045 C 
ATOM      2  C   UNL     1      35.825 -20.600 -20.265  0.00  0.00    +0.014 C 
ATOM      3  C   UNL     1      33.723 -19.583 -20.883  0.00  0.00    +0.014 C 
ATOM      4  C   UNL     1      35.141 -21.556 -19.513  0.00  0.00    +0.001 C 
ATOM      5  C   UNL     1      33.039 -20.538 -20.130  0.00  0.00    +0.001 C 
ATOM      6  C   UNL     1      33.748 -21.524 -19.446  0.00  0.00    +0.000 C 
ENDROOT
BRANCH   1   7
ATOM      7  N   UNL     1      35.807 -18.648 -21.710  0.00  0.00    -0.329 N 
ATOM      8  H   UNL     1      36.791 -18.660 -21.702  0.00  0.00    +0.147 HD
BRANCH   7   9
ATOM      9  C   UNL     1      35.142 -17.653 -22.491  0.00  0.00    +0.114 C 
BRANCH   9  10
ATOM     10  C   UNL     1      35.263 -18.013 -23.938  0.00  0.00    -0.005 C 
ATOM     11  C   UNL     1      34.517 -18.945 -24.540  0.00  0.00    -0.003 C 
ENDBRANCH   9  10
ENDBRANCH   7   9
ENDBRANCH   1   7
TORSDOF 3
ENDMDL
MODEL 3
REMARK VINA RESULT:      -6.3      2.640      5.659
REMARK  Name = 68525
REMARK  3 active torsions:
REMARK  status: ('A' for Active; 'I' for Inactive)
REMARK    1  A    between atoms: C_1  and  N_7
REMARK    2  A    between atoms: N_7  and  C_9
REMARK    3  A    between atoms: C_9  and  C_10
REMARK                            x       y       z     vdW  Elec       q    Type
REMARK                         _______ _______ _______ _____ _____    ______ ____
ROOT
ATOM      1  C   UNL     1      35.108 -19.651 -20.945  0.00  0.00    +0.045 C 
ATOM      2  C   UNL     1      33.715 -19.614 -20.885  0.00  0.00    +0.014 C 
ATOM      3  C   UNL     1      35.810 -20.633 -20.248  0.00  0.00    +0.014 C 
ATOM      4  C   UNL     1      33.024 -20.560 -20.128  0.00  0.00    +0.001 C 
ATOM      5  C   UNL     1      35.119 -21.581 -19.492  0.00  0.00    +0.001 C 
ATOM      6  C   UNL     1      33.727 -21.544 -19.432  0.00  0.00    +0.000 C 
ENDROOT
BRANCH   1   7
ATOM      7  N   UNL     1      35.806 -18.693 -21.710  0.00  0.00    -0.329 N 
ATOM      8  H   UNL     1      36.790 -18.720 -21.713  0.00  0.00    +0.147 HD
BRANCH   7   9
ATOM      9  C   UNL     1      35.147 -17.686 -22.481  0.00  0.00    +0.114 C 
BRANCH   9  10
ATOM     10  C   UNL     1      35.261 -18.035 -23.931  0.00  0.00    -0.005 C 
ATOM     11  C   UNL     1      34.515 -18.966 -24.536  0.00  0.00    -0.003 C 
ENDBRANCH   9  10
ENDBRANCH   7   9
ENDBRANCH   1   7
TORSDOF 3
ENDMDL
MODEL 4
REMARK VINA RESULT:      -6.2      3.681      5.340
REMARK  Name = 68525
REMARK  3 active torsions:
REMARK  status: ('A' for Active; 'I' for Inactive)
REMARK    1  A    between atoms: C_1  and  N_7
REMARK    2  A    between atoms: N_7  and  C_9
REMARK    3  A    between atoms: C_9  and  C_10
REMARK                            x       y       z     vdW  Elec       q    Type
REMARK                         _______ _______ _______ _____ _____    ______ ____
ROOT
ATOM      1  C   UNL     1      35.150 -17.074 -21.425  0.00  0.00    +0.045 C 
ATOM      2  C   UNL     1      35.248 -17.022 -22.815  0.00  0.00    +0.014 C 
ATOM      3  C   UNL     1      34.672 -15.972 -20.717  0.00  0.00    +0.014 C 
ATOM      4  C   UNL     1      34.867 -15.867 -23.498  0.00  0.00    +0.001 C 
ATOM      5  C   UNL     1      34.290 -14.817 -21.400  0.00  0.00    +0.001 C 
ATOM      6  C   UNL     1      34.388 -14.764 -22.790  0.00  0.00    +0.000 C 
ENDROOT
BRANCH   1   7
ATOM      7  N   UNL     1      35.535 -18.242 -20.735  0.00  0.00    -0.329 N 
ATOM      8  H   UNL     1      36.132 -18.154 -19.956  0.00  0.00    +0.147 HD
BRANCH   7   9
ATOM      9  C   UNL     1      35.098 -19.549 -21.116  0.00  0.00    +0.114 C 
BRANCH   9  10
ATOM     10  C   UNL     1      33.636 -19.673 -20.827  0.00  0.00    -0.005 C 
ATOM     11  C   UNL     1      33.106 -20.627 -20.053  0.00  0.00    -0.003 C 
ENDBRANCH   9  10
ENDBRANCH   7   9
ENDBRANCH   1   7
TORSDOF 3
ENDMDL
MODEL 5
REMARK VINA RESULT:      -6.1      2.795      5.373
REMARK  Name = 68525
REMARK  3 active torsions:
REMARK  status: ('A' for Active; 'I' for Inactive)
REMARK    1  A    between atoms: C_1  and  N_7
REMARK    2  A    between atoms: N_7  and  C_9
REMARK    3  A    between atoms: C_9  and  C_10
REMARK                            x       y       z     vdW  Elec       q    Type
REMARK                         _______ _______ _______ _____ _____    ______ ____
ROOT
ATOM      1  C   UNL     1      34.374 -19.264 -21.181  0.00  0.00    +0.045 C 
ATOM      2  C   UNL     1      33.170 -19.793 -20.714  0.00  0.00    +0.014 C 
ATOM      3  C   UNL     1      35.583 -19.856 -20.817  0.00  0.00    +0.014 C 
ATOM      4  C   UNL     1      33.176 -20.913 -19.883  0.00  0.00    +0.001 C 
ATOM      5  C   UNL     1      35.589 -20.977 -19.987  0.00  0.00    +0.001 C 
ATOM      6  C   UNL     1      34.386 -21.505 -19.520  0.00  0.00    +0.000 C 
ENDROOT
BRANCH   1   7
ATOM      7  N   UNL     1      34.367 -18.132 -22.021  0.00  0.00    -0.329 N 
ATOM      8  H   UNL     1      33.732 -18.108 -22.774  0.00  0.00    +0.147 HD
BRANCH   7   9
ATOM      9  C   UNL     1      35.242 -17.017 -21.830  0.00  0.00    +0.114 C 
BRANCH   9  10
ATOM     10  C   UNL     1      34.636 -16.095 -20.820  0.00  0.00    -0.005 C 
ATOM     11  C   UNL     1      33.382 -15.634 -20.887  0.00  0.00    -0.003 C 
ENDBRANCH   9  10
ENDBRANCH   7   9
ENDBRANCH   1   7
TORSDOF 3
ENDMDL
MODEL 6
REMARK VINA RESULT:      -6.0      3.279      4.924
REMARK  Name = 68525
REMARK  3 active torsions:
REMARK  status: ('A' for Active; 'I' for Inactive)
REMARK    1  A    between atoms: C_1  and  N_7
REMARK    2  A    between atoms: N_7  and  C_9
REMARK    3  A    between atoms: C_9  and  C_10
REMARK                            x       y       z     vdW  Elec       q    Type
REMARK                         _______ _______ _______ _____ _____    ______ ____
ROOT
ATOM      1  C   UNL     1      35.128 -18.038 -22.130  0.00  0.00    +0.045 C 
ATOM      2  C   UNL     1      35.054 -16.647 -22.188  0.00  0.00    +0.014 C 
ATOM      3  C   UNL     1      35.004 -18.793 -23.296  0.00  0.00    +0.014 C 
ATOM      4  C   UNL     1      34.854 -16.009 -23.413  0.00  0.00    +0.001 C 
ATOM      5  C   UNL     1      34.805 -18.155 -24.521  0.00  0.00    +0.001 C 
ATOM      6  C   UNL     1      34.731 -16.765 -24.579  0.00  0.00    +0.000 C 
ENDROOT
BRANCH   1   7
ATOM      7  N   UNL     1      35.330 -18.682 -20.891  0.00  0.00    -0.329 N 
ATOM      8  H   UNL     1      35.447 -18.127 -20.086  0.00  0.00    +0.147 HD
BRANCH   7   9
ATOM      9  C   UNL     1      35.372 -20.104 -20.753  0.00  0.00    +0.114 C 
BRANCH   9  10
ATOM     10  C   UNL     1      34.132 -20.559 -20.052  0.00  0.00    -0.005 C 
ATOM     11  C   UNL     1      32.893 -20.256 -20.456  0.00  0.00    -0.003 C 
ENDBRANCH   9  10
ENDBRANCH   7   9
ENDBRANCH   1   7
TORSDOF 3
ENDMDL
MODEL 7
REMARK VINA RESULT:      -5.9      6.412      7.742
REMARK  Name = 68525
REMARK  3 active torsions:
REMARK  status: ('A' for Active; 'I' for Inactive)
REMARK    1  A    between atoms: C_1  and  N_7
REMARK    2  A    between atoms: N_7  and  C_9
REMARK    3  A    between atoms: C_9  and  C_10
REMARK                            x       y       z     vdW  Elec       q    Type
REMARK                         _______ _______ _______ _____ _____    ______ ____
ROOT
ATOM      1  C   UNL     1      34.509 -15.707 -22.849  0.00  0.00    +0.045 C 
ATOM      2  C   UNL     1      33.475 -14.862 -23.250  0.00  0.00    +0.014 C 
ATOM      3  C   UNL     1      34.746 -15.924 -21.492  0.00  0.00    +0.014 C 
ATOM      4  C   UNL     1      32.676 -14.233 -22.294  0.00  0.00    +0.001 C 
ATOM      5  C   UNL     1      33.947 -15.297 -20.536  0.00  0.00    +0.001 C 
ATOM      6  C   UNL     1      32.913 -14.452 -20.937  0.00  0.00    +0.000 C 
ENDROOT
BRANCH   1   7
ATOM      7  N   UNL     1      35.315 -16.342 -23.816  0.00  0.00    -0.329 N 
ATOM      8  H   UNL     1      36.273 -16.464 -23.624  0.00  0.00    +0.147 HD
BRANCH   7   9
ATOM      9  C   UNL     1      34.803 -16.815 -25.065  0.00  0.00    +0.114 C 
BRANCH   9  10
ATOM     10  C   UNL     1      34.390 -18.244 -24.907  0.00  0.00    -0.005 C 
ATOM     11  C   UNL     1      34.924 -19.081 -24.012  0.00  0.00    -0.003 C 
ENDBRANCH   9  10
ENDBRANCH   7   9
ENDBRANCH   1   7
TORSDOF 3
ENDMDL
MODEL 8
REMARK VINA RESULT:      -5.8      1.170      2.091
REMARK  Name = 68525
REMARK  3 active torsions:
REMARK  status: ('A' for Active; 'I' for Inactive)
REMARK    1  A    between atoms: C_1  and  N_7
REMARK    2  A    between atoms: N_7  and  C_9
REMARK    3  A    between atoms: C_9  and  C_10
REMARK                            x       y       z     vdW  Elec       q    Type
REMARK                         _______ _______ _______ _____ _____    ______ ____
ROOT
ATOM      1  C   UNL     1      34.432 -21.382 -19.507  0.00  0.00    +0.045 C 
ATOM      2  C   UNL     1      33.167 -20.907 -19.851  0.00  0.00    +0.014 C 
ATOM      3  C   UNL     1      35.569 -20.825 -20.090  0.00  0.00    +0.014 C 
ATOM      4  C   UNL     1      33.039 -19.874 -20.780  0.00  0.00    +0.001 C 
ATOM      5  C   UNL     1      35.441 -19.791 -21.018  0.00  0.00    +0.001 C 
ATOM      6  C   UNL     1      34.177 -19.316 -21.363  0.00  0.00    +0.000 C 
ENDROOT
BRANCH   1   7
ATOM      7  N   UNL     1      34.560 -22.426 -18.567  0.00  0.00    -0.329 N 
ATOM      8  H   UNL     1      35.464 -22.703 -18.291  0.00  0.00    +0.147 HD
BRANCH   7   9
ATOM      9  C   UNL     1      33.435 -23.102 -17.998  0.00  0.00    +0.114 C 
BRANCH   9  10
ATOM     10  C   UNL     1      33.691 -23.322 -16.541  0.00  0.00    -0.005 C 
ATOM     11  C   UNL     1      34.889 -23.182 -15.964  0.00  0.00    -0.003 C 
ENDBRANCH   9  10
ENDBRANCH   7   9
ENDBRANCH   1   7
TORSDOF 3
ENDMDL
MODEL 9
REMARK VINA RESULT:      -5.8      3.580      5.223
REMARK  Name = 68525
REMARK  3 active torsions:
REMARK  status: ('A' for Active; 'I' for Inactive)
REMARK    1  A    between atoms: C_1  and  N_7
REMARK    2  A    between atoms: N_7  and  C_9
REMARK    3  A    between atoms: C_9  and  C_10
REMARK                            x       y       z     vdW  Elec       q    Type
REMARK                         _______ _______ _______ _____ _____    ______ ____
ROOT
ATOM      1  C   UNL     1      35.079 -18.466 -23.100  0.00  0.00    +0.045 C 
ATOM      2  C   UNL     1      34.598 -18.804 -24.364  0.00  0.00    +0.014 C 
ATOM      3  C   UNL     1      35.266 -17.127 -22.759  0.00  0.00    +0.014 C 
ATOM      4  C   UNL     1      34.304 -17.802 -25.289  0.00  0.00    +0.001 C 
ATOM      5  C   UNL     1      34.970 -16.125 -23.683  0.00  0.00    +0.001 C 
ATOM      6  C   UNL     1      34.490 -16.462 -24.947  0.00  0.00    +0.000 C 
ENDROOT
BRANCH   1   7
ATOM      7  N   UNL     1      35.377 -19.480 -22.165  0.00  0.00    -0.329 N 
ATOM      8  H   UNL     1      35.926 -20.243 -22.458  0.00  0.00    +0.147 HD
BRANCH   7   9
ATOM      9  C   UNL     1      34.915 -19.449 -20.813  0.00  0.00    +0.114 C 
BRANCH   9  10
ATOM     10  C   UNL     1      33.492 -19.909 -20.777  0.00  0.00    -0.005 C 
ATOM     11  C   UNL     1      33.003 -20.752 -19.860  0.00  0.00    -0.003 C 
ENDBRANCH   9  10
ENDBRANCH   7   9
ENDBRANCH   1   7
TORSDOF 3
ENDMDL
