MODEL 1
REMARK VINA RESULT:      -4.0      0.000      0.000
REMARK  Name = 670
REMARK  4 active torsions:
REMARK  status: ('A' for Active; 'I' for Inactive)
REMARK    1  A    between atoms: C_2  and  C_3
REMARK    2  A    between atoms: C_2  and  C_6
REMARK    3  A    between atoms: C_3  and  O_4
REMARK    4  A    between atoms: C_6  and  O_7
REMARK                            x       y       z     vdW  Elec       q    Type
REMARK                         _______ _______ _______ _____ _____    ______ ____
ROOT
ATOM      1  O   UNL     1      38.377 -24.160 -14.107  0.00  0.00    -0.291 OA
ATOM      2  C   UNL     1      38.769 -25.285 -14.412  0.00  0.00    +0.209 C 
ENDROOT
BRANCH   2   3
ATOM      3  C   UNL     1      37.824 -26.465 -14.519  0.00  0.00    +0.205 C 
BRANCH   3   4
ATOM      4  O   UNL     1      37.430 -26.669 -15.860  0.00  0.00    -0.375 OA
ATOM      5  H   UNL     1      36.499 -26.940 -15.885  0.00  0.00    +0.211 HD
ENDBRANCH   3   4
ENDBRANCH   2   3
BRANCH   2   6
ATOM      6  C   UNL     1      40.227 -25.578 -14.702  0.00  0.00    +0.205 C 
BRANCH   6   7
ATOM      7  O   UNL     1      40.404 -25.946 -16.053  0.00  0.00    -0.375 OA
ATOM      8  H   UNL     1      41.276 -26.357 -16.164  0.00  0.00    +0.211 HD
ENDBRANCH   6   7
ENDBRANCH   2   6
TORSDOF 4
ENDMDL
MODEL 2
REMARK VINA RESULT:      -4.0      3.507      4.476
REMARK  Name = 670
REMARK  4 active torsions:
REMARK  status: ('A' for Active; 'I' for Inactive)
REMARK    1  A    between atoms: C_2  and  C_3
REMARK    2  A    between atoms: C_2  and  C_6
REMARK    3  A    between atoms: C_3  and  O_4
REMARK    4  A    between atoms: C_6  and  O_7
REMARK                            x       y       z     vdW  Elec       q    Type
REMARK                         _______ _______ _______ _____ _____    ______ ____
ROOT
ATOM      1  O   UNL     1      38.592 -23.267 -11.707  0.00  0.00    -0.291 OA
ATOM      2  C   UNL     1      37.674 -24.083 -11.770  0.00  0.00    +0.209 C 
ENDROOT
BRANCH   2   3
ATOM      3  C   UNL     1      36.292 -23.783 -11.225  0.00  0.00    +0.205 C 
BRANCH   3   4
ATOM      4  O   UNL     1      36.179 -24.213  -9.885  0.00  0.00    -0.375 OA
ATOM      5  H   UNL     1      37.065 -24.368  -9.520  0.00  0.00    +0.211 HD
ENDBRANCH   3   4
ENDBRANCH   2   3
BRANCH   2   6
ATOM      6  C   UNL     1      37.856 -25.451 -12.395  0.00  0.00    +0.205 C 
BRANCH   6   7
ATOM      7  O   UNL     1      36.799 -26.313 -12.029  0.00  0.00    -0.375 OA
ATOM      8  H   UNL     1      37.161 -27.177 -11.776  0.00  0.00    +0.211 HD
ENDBRANCH   6   7
ENDBRANCH   2   6
TORSDOF 4
ENDMDL
MODEL 3
REMARK VINA RESULT:      -4.0      0.349      2.306
REMARK  Name = 670
REMARK  4 active torsions:
REMARK  status: ('A' for Active; 'I' for Inactive)
REMARK    1  A    between atoms: C_2  and  C_3
REMARK    2  A    between atoms: C_2  and  C_6
REMARK    3  A    between atoms: C_3  and  O_4
REMARK    4  A    between atoms: C_6  and  O_7
REMARK                            x       y       z     vdW  Elec       q    Type
REMARK                         _______ _______ _______ _____ _____    ______ ____
ROOT
ATOM      1  O   UNL     1      38.789 -24.375 -13.658  0.00  0.00    -0.291 OA
ATOM      2  C   UNL     1      38.962 -25.474 -14.181  0.00  0.00    +0.209 C 
ENDROOT
BRANCH   2   3
ATOM      3  C   UNL     1      40.328 -25.940 -14.642  0.00  0.00    +0.205 C 
BRANCH   3   4
ATOM      4  O   UNL     1      40.402 -25.953 -16.053  0.00  0.00    -0.375 OA
ATOM      5  H   UNL     1      41.321 -26.101 -16.326  0.00  0.00    +0.211 HD
ENDBRANCH   3   4
ENDBRANCH   2   3
BRANCH   2   6
ATOM      6  C   UNL     1      37.822 -26.446 -14.406  0.00  0.00    +0.205 C 
BRANCH   6   7
ATOM      7  O   UNL     1      37.513 -26.547 -15.780  0.00  0.00    -0.375 OA
ATOM      8  H   UNL     1      38.189 -26.081 -16.297  0.00  0.00    +0.211 HD
ENDBRANCH   6   7
ENDBRANCH   2   6
TORSDOF 4
ENDMDL
MODEL 4
REMARK VINA RESULT:      -4.0      3.508      4.599
REMARK  Name = 670
REMARK  4 active torsions:
REMARK  status: ('A' for Active; 'I' for Inactive)
REMARK    1  A    between atoms: C_2  and  C_3
REMARK    2  A    between atoms: C_2  and  C_6
REMARK    3  A    between atoms: C_3  and  O_4
REMARK    4  A    between atoms: C_6  and  O_7
REMARK                            x       y       z     vdW  Elec       q    Type
REMARK                         _______ _______ _______ _____ _____    ______ ____
ROOT
ATOM      1  O   UNL     1      38.596 -23.249 -11.721  0.00  0.00    -0.291 OA
ATOM      2  C   UNL     1      37.676 -24.064 -11.774  0.00  0.00    +0.209 C 
ENDROOT
BRANCH   2   3
ATOM      3  C   UNL     1      37.848 -25.432 -12.402  0.00  0.00    +0.205 C 
BRANCH   3   4
ATOM      4  O   UNL     1      36.803 -26.297 -12.011  0.00  0.00    -0.375 OA
ATOM      5  H   UNL     1      37.061 -26.771 -11.204  0.00  0.00    +0.211 HD
ENDBRANCH   3   4
ENDBRANCH   2   3
BRANCH   2   6
ATOM      6  C   UNL     1      36.301 -23.762 -11.215  0.00  0.00    +0.205 C 
BRANCH   6   7
ATOM      7  O   UNL     1      36.199 -24.193  -9.874  0.00  0.00    -0.375 OA
ATOM      8  H   UNL     1      36.534 -23.499  -9.285  0.00  0.00    +0.211 HD
ENDBRANCH   6   7
ENDBRANCH   2   6
TORSDOF 4
ENDMDL
MODEL 5
REMARK VINA RESULT:      -4.0      2.001      3.100
REMARK  Name = 670
REMARK  4 active torsions:
REMARK  status: ('A' for Active; 'I' for Inactive)
REMARK    1  A    between atoms: C_2  and  C_3
REMARK    2  A    between atoms: C_2  and  C_6
REMARK    3  A    between atoms: C_3  and  O_4
REMARK    4  A    between atoms: C_6  and  O_7
REMARK                            x       y       z     vdW  Elec       q    Type
REMARK                         _______ _______ _______ _____ _____    ______ ____
ROOT
ATOM      1  O   UNL     1      38.845 -26.940 -14.621  0.00  0.00    -0.291 OA
ATOM      2  C   UNL     1      37.770 -26.435 -14.302  0.00  0.00    +0.209 C 
ENDROOT
BRANCH   2   3
ATOM      3  C   UNL     1      37.575 -25.727 -12.976  0.00  0.00    +0.205 C 
BRANCH   3   4
ATOM      4  O   UNL     1      36.845 -26.538 -12.079  0.00  0.00    -0.375 OA
ATOM      5  H   UNL     1      36.281 -25.977 -11.524  0.00  0.00    +0.211 HD
ENDBRANCH   3   4
ENDBRANCH   2   3
BRANCH   2   6
ATOM      6  C   UNL     1      36.557 -26.484 -15.209  0.00  0.00    +0.205 C 
BRANCH   6   7
ATOM      7  O   UNL     1      36.801 -27.314 -16.325  0.00  0.00    -0.375 OA
ATOM      8  H   UNL     1      36.608 -28.235 -16.091  0.00  0.00    +0.211 HD
ENDBRANCH   6   7
ENDBRANCH   2   6
TORSDOF 4
ENDMDL
MODEL 6
REMARK VINA RESULT:      -4.0      1.546      2.451
REMARK  Name = 670
REMARK  4 active torsions:
REMARK  status: ('A' for Active; 'I' for Inactive)
REMARK    1  A    between atoms: C_2  and  C_3
REMARK    2  A    between atoms: C_2  and  C_6
REMARK    3  A    between atoms: C_3  and  O_4
REMARK    4  A    between atoms: C_6  and  O_7
REMARK                            x       y       z     vdW  Elec       q    Type
REMARK                         _______ _______ _______ _____ _____    ______ ____
ROOT
ATOM      1  O   UNL     1      38.615 -26.157 -13.193  0.00  0.00    -0.291 OA
ATOM      2  C   UNL     1      38.972 -25.469 -14.148  0.00  0.00    +0.209 C 
ENDROOT
BRANCH   2   3
ATOM      3  C   UNL     1      40.386 -25.516 -14.690  0.00  0.00    +0.205 C 
BRANCH   3   4
ATOM      4  O   UNL     1      40.393 -25.960 -16.031  0.00  0.00    -0.375 OA
ATOM      5  H   UNL     1      39.911 -26.799 -16.095  0.00  0.00    +0.211 HD
ENDBRANCH   3   4
ENDBRANCH   2   3
BRANCH   2   6
ATOM      6  C   UNL     1      38.024 -24.521 -14.855  0.00  0.00    +0.205 C 
BRANCH   6   7
ATOM      7  O   UNL     1      38.734 -23.641 -15.700  0.00  0.00    -0.375 OA
ATOM      8  H   UNL     1      39.056 -22.886 -15.183  0.00  0.00    +0.211 HD
ENDBRANCH   6   7
ENDBRANCH   2   6
TORSDOF 4
ENDMDL
MODEL 7
REMARK VINA RESULT:      -3.8      3.579      4.603
REMARK  Name = 670
REMARK  4 active torsions:
REMARK  status: ('A' for Active; 'I' for Inactive)
REMARK    1  A    between atoms: C_2  and  C_3
REMARK    2  A    between atoms: C_2  and  C_6
REMARK    3  A    between atoms: C_3  and  O_4
REMARK    4  A    between atoms: C_6  and  O_7
REMARK                            x       y       z     vdW  Elec       q    Type
REMARK                         _______ _______ _______ _____ _____    ______ ____
ROOT
ATOM      1  O   UNL     1      36.967 -26.289 -11.988  0.00  0.00    -0.291 OA
ATOM      2  C   UNL     1      36.927 -25.062 -11.913  0.00  0.00    +0.209 C 
ENDROOT
BRANCH   2   3
ATOM      3  C   UNL     1      35.817 -24.336 -11.181  0.00  0.00    +0.205 C 
BRANCH   3   4
ATOM      4  O   UNL     1      36.178 -24.097  -9.836  0.00  0.00    -0.375 OA
ATOM      5  H   UNL     1      35.385 -24.135  -9.278  0.00  0.00    +0.211 HD
ENDBRANCH   3   4
ENDBRANCH   2   3
BRANCH   2   6
ATOM      6  C   UNL     1      37.984 -24.183 -12.550  0.00  0.00    +0.205 C 
BRANCH   6   7
ATOM      7  O   UNL     1      38.478 -23.242 -11.620  0.00  0.00    -0.375 OA
ATOM      8  H   UNL     1      38.220 -22.349 -11.898  0.00  0.00    +0.211 HD
ENDBRANCH   6   7
ENDBRANCH   2   6
TORSDOF 4
ENDMDL
MODEL 8
REMARK VINA RESULT:      -3.7     11.110     12.196
REMARK  Name = 670
REMARK  4 active torsions:
REMARK  status: ('A' for Active; 'I' for Inactive)
REMARK    1  A    between atoms: C_2  and  C_3
REMARK    2  A    between atoms: C_2  and  C_6
REMARK    3  A    between atoms: C_3  and  O_4
REMARK    4  A    between atoms: C_6  and  O_7
REMARK                            x       y       z     vdW  Elec       q    Type
REMARK                         _______ _______ _______ _____ _____    ______ ____
ROOT
ATOM      1  O   UNL     1      27.446 -23.534 -17.982  0.00  0.00    -0.291 OA
ATOM      2  C   UNL     1      27.531 -22.636 -17.146  0.00  0.00    +0.209 C 
ENDROOT
BRANCH   2   3
ATOM      3  C   UNL     1      28.768 -22.445 -16.292  0.00  0.00    +0.205 C 
BRANCH   3   4
ATOM      4  O   UNL     1      29.927 -22.383 -17.098  0.00  0.00    -0.375 OA
ATOM      5  H   UNL     1      30.125 -23.267 -17.446  0.00  0.00    +0.211 HD
ENDBRANCH   3   4
ENDBRANCH   2   3
BRANCH   2   6
ATOM      6  C   UNL     1      26.405 -21.651 -16.907  0.00  0.00    +0.205 C 
BRANCH   6   7
ATOM      7  O   UNL     1      26.384 -20.660 -17.912  0.00  0.00    -0.375 OA
ATOM      8  H   UNL     1      27.004 -20.902 -18.617  0.00  0.00    +0.211 HD
ENDBRANCH   6   7
ENDBRANCH   2   6
TORSDOF 4
ENDMDL
MODEL 9
REMARK VINA RESULT:      -3.7      9.923     10.983
REMARK  Name = 670
REMARK  4 active torsions:
REMARK  status: ('A' for Active; 'I' for Inactive)
REMARK    1  A    between atoms: C_2  and  C_3
REMARK    2  A    between atoms: C_2  and  C_6
REMARK    3  A    between atoms: C_3  and  O_4
REMARK    4  A    between atoms: C_6  and  O_7
REMARK                            x       y       z     vdW  Elec       q    Type
REMARK                         _______ _______ _______ _____ _____    ______ ____
ROOT
ATOM      1  O   UNL     1      27.838 -24.397 -17.397  0.00  0.00    -0.291 OA
ATOM      2  C   UNL     1      28.388 -23.935 -16.399  0.00  0.00    +0.209 C 
ENDROOT
BRANCH   2   3
ATOM      3  C   UNL     1      28.085 -22.543 -15.884  0.00  0.00    +0.205 C 
BRANCH   3   4
ATOM      4  O   UNL     1      27.703 -21.690 -16.944  0.00  0.00    -0.375 OA
ATOM      5  H   UNL     1      26.862 -21.997 -17.317  0.00  0.00    +0.211 HD
ENDBRANCH   3   4
ENDBRANCH   2   3
BRANCH   2   6
ATOM      6  C   UNL     1      29.413 -24.723 -15.609  0.00  0.00    +0.205 C 
BRANCH   6   7
ATOM      7  O   UNL     1      28.812 -25.353 -14.498  0.00  0.00    -0.375 OA
ATOM      8  H   UNL     1      29.251 -25.060 -13.684  0.00  0.00    +0.211 HD
ENDBRANCH   6   7
ENDBRANCH   2   6
TORSDOF 4
ENDMDL
