MODEL 1
REMARK VINA RESULT:     -10.6      0.000      0.000
REMARK  Name = 4369172
REMARK  6 active torsions:
REMARK  status: ('A' for Active; 'I' for Inactive)
REMARK    1  A    between atoms: N_5  and  C_12
REMARK    2  A    between atoms: C_6  and  C_26
REMARK    3  A    between atoms: C_11  and  S_20
REMARK    4  A    between atoms: C_15  and  O_18
REMARK    5  A    between atoms: S_20  and  N_23
REMARK    6  A    between atoms: C_26  and  N_28
REMARK                            x       y       z     vdW  Elec       q    Type
REMARK                         _______ _______ _______ _____ _____    ______ ____
ROOT
ATOM      1  S   UNL     1      32.579 -23.960 -13.834  0.00  0.00    +0.086 S 
ATOM      2  S   UNL     1      35.181 -24.117 -12.375  0.00  0.00    -0.047 S 
ATOM      3  O   UNL     1      32.101 -22.791 -13.123  0.00  0.00    -0.149 OA
ATOM      4  O   UNL     1      32.293 -25.306 -13.381  0.00  0.00    -0.149 OA
ATOM      5  N   UNL     1      32.226 -23.824 -15.502  0.00  0.00    -0.175 N 
ATOM      6  C   UNL     1      33.189 -23.277 -16.447  0.00  0.00    +0.031 C 
ATOM      7  C   UNL     1      34.316 -23.819 -13.793  0.00  0.00    +0.156 C 
ATOM      8  C   UNL     1      35.098 -23.452 -14.849  0.00  0.00    +0.028 C 
ATOM      9  C   UNL     1      34.492 -23.151 -16.106  0.00  0.00    +0.012 C 
ATOM     10  C   UNL     1      36.472 -23.412 -14.496  0.00  0.00    +0.028 C 
ATOM     11  C   UNL     1      36.663 -23.758 -13.171  0.00  0.00    +0.152 C 
ENDROOT
BRANCH   5  12
ATOM     12  C   UNL     1      30.834 -23.868 -15.855  0.00  0.00    +0.076 C 
ATOM     13  C   UNL     1      30.156 -22.691 -16.175  0.00  0.00    +0.053 C 
ATOM     14  C   UNL     1      30.158 -25.089 -15.878  0.00  0.00    +0.017 C 
ATOM     15  C   UNL     1      28.805 -22.734 -16.517  0.00  0.00    +0.135 C 
ATOM     16  C   UNL     1      28.806 -25.132 -16.220  0.00  0.00    +0.004 C 
ATOM     17  C   UNL     1      28.130 -23.954 -16.539  0.00  0.00    +0.037 C 
BRANCH  15  18
ATOM     18  O   UNL     1      28.145 -21.584 -16.828  0.00  0.00    -0.505 OA
ATOM     19  H   UNL     1      27.310 -21.405 -16.442  0.00  0.00    +0.292 HD
ENDBRANCH  15  18
ENDBRANCH   5  12
BRANCH  11  20
ATOM     20  S   UNL     1      38.092 -23.896 -12.157  0.00  0.00    +0.063 S 
ATOM     21  O   UNL     1      38.410 -22.539 -11.728  0.00  0.00    -0.153 OA
ATOM     22  O   UNL     1      37.765 -24.926 -11.179  0.00  0.00    -0.153 OA
BRANCH  20  23
ATOM     23  N   UNL     1      39.398 -24.459 -13.120  0.00  0.00    -0.203 NA
ATOM     24  H   UNL     1      40.262 -24.418 -12.581  0.00  0.00    +0.144 HD
ATOM     25  H   UNL     1      39.486 -23.872 -13.950  0.00  0.00    +0.144 HD
ENDBRANCH  20  23
ENDBRANCH  11  20
BRANCH   6  26
ATOM     26  C   UNL     1      32.734 -22.936 -17.842  0.00  0.00    -0.033 C 
BRANCH  26  28
ATOM     27  O   UNL     1      34.986 -20.872 -20.720  0.00  0.00    -0.358 OA
ATOM     28  N   UNL     1      33.620 -21.958 -18.472  0.00  0.00    +0.394 N 
ATOM     29  C   UNL     1      34.801 -22.617 -19.045  0.00  0.00    -0.044 C 
ATOM     30  C   UNL     1      32.907 -21.205 -19.514  0.00  0.00    -0.044 C 
ATOM     31  C   UNL     1      35.703 -21.578 -19.707  0.00  0.00    +0.119 C 
ATOM     32  C   UNL     1      33.853 -20.201 -20.166  0.00  0.00    +0.119 C 
ATOM     33  H   UNL     1      33.927 -21.305 -17.751  0.00  0.00    -0.079 HD
ENDBRANCH  26  28
ENDBRANCH   6  26
TORSDOF 6
ENDMDL
MODEL 2
REMARK VINA RESULT:      -9.6      2.062      6.690
REMARK  Name = 4369172
REMARK  6 active torsions:
REMARK  status: ('A' for Active; 'I' for Inactive)
REMARK    1  A    between atoms: N_5  and  C_12
REMARK    2  A    between atoms: C_6  and  C_26
REMARK    3  A    between atoms: C_11  and  S_20
REMARK    4  A    between atoms: C_15  and  O_18
REMARK    5  A    between atoms: S_20  and  N_23
REMARK    6  A    between atoms: C_26  and  N_28
REMARK                            x       y       z     vdW  Elec       q    Type
REMARK                         _______ _______ _______ _____ _____    ______ ____
ROOT
ATOM      1  S   UNL     1      32.706 -24.275 -14.000  0.00  0.00    +0.086 S 
ATOM      2  S   UNL     1      29.857 -23.879 -14.806  0.00  0.00    -0.047 S 
ATOM      3  O   UNL     1      32.670 -25.720 -14.103  0.00  0.00    -0.149 OA
ATOM      4  O   UNL     1      32.407 -23.585 -12.762  0.00  0.00    -0.149 OA
ATOM      5  N   UNL     1      34.162 -23.670 -14.663  0.00  0.00    -0.175 N 
ATOM      6  C   UNL     1      34.249 -23.232 -16.049  0.00  0.00    +0.031 C 
ATOM      7  C   UNL     1      31.504 -23.725 -15.137  0.00  0.00    +0.156 C 
ATOM      8  C   UNL     1      31.773 -23.163 -16.351  0.00  0.00    +0.028 C 
ATOM      9  C   UNL     1      33.128 -22.992 -16.767  0.00  0.00    +0.012 C 
ATOM     10  C   UNL     1      30.583 -22.835 -17.053  0.00  0.00    +0.028 C 
ATOM     11  C   UNL     1      29.458 -23.169 -16.321  0.00  0.00    +0.152 C 
ENDROOT
BRANCH   5  12
ATOM     12  C   UNL     1      35.363 -24.001 -13.948  0.00  0.00    +0.076 C 
ATOM     13  C   UNL     1      35.817 -23.173 -12.922  0.00  0.00    +0.053 C 
ATOM     14  C   UNL     1      36.078 -25.153 -14.281  0.00  0.00    +0.017 C 
ATOM     15  C   UNL     1      36.984 -23.495 -12.229  0.00  0.00    +0.135 C 
ATOM     16  C   UNL     1      37.245 -25.475 -13.588  0.00  0.00    +0.004 C 
ATOM     17  C   UNL     1      37.698 -24.646 -12.562  0.00  0.00    +0.037 C 
BRANCH  15  18
ATOM     18  O   UNL     1      37.426 -22.685 -11.228  0.00  0.00    -0.505 OA
ATOM     19  H   UNL     1      36.811 -22.247 -10.674  0.00  0.00    +0.292 HD
ENDBRANCH  15  18
ENDBRANCH   5  12
BRANCH  11  20
ATOM     20  S   UNL     1      27.734 -23.019 -16.630  0.00  0.00    +0.063 S 
ATOM     21  O   UNL     1      27.431 -23.981 -17.683  0.00  0.00    -0.153 OA
ATOM     22  O   UNL     1      27.104 -23.129 -15.321  0.00  0.00    -0.153 OA
BRANCH  20  23
ATOM     23  N   UNL     1      27.421 -21.449 -17.252  0.00  0.00    -0.203 NA
ATOM     24  H   UNL     1      28.164 -21.185 -17.899  0.00  0.00    +0.144 HD
ATOM     25  H   UNL     1      27.384 -20.779 -16.484  0.00  0.00    +0.144 HD
ENDBRANCH  20  23
ENDBRANCH  11  20
BRANCH   6  26
ATOM     26  C   UNL     1      35.605 -22.963 -16.648  0.00  0.00    -0.033 C 
BRANCH  26  28
ATOM     27  O   UNL     1      35.937 -21.099 -20.394  0.00  0.00    -0.358 OA
ATOM     28  N   UNL     1      35.533 -21.963 -17.712  0.00  0.00    +0.394 N 
ATOM     29  C   UNL     1      36.874 -21.650 -18.225  0.00  0.00    -0.044 C 
ATOM     30  C   UNL     1      34.671 -22.429 -18.808  0.00  0.00    -0.044 C 
ATOM     31  C   UNL     1      36.771 -20.614 -19.342  0.00  0.00    +0.119 C 
ATOM     32  C   UNL     1      34.621 -21.376 -19.911  0.00  0.00    +0.119 C 
ATOM     33  H   UNL     1      35.127 -21.115 -17.317  0.00  0.00    -0.079 HD
ENDBRANCH  26  28
ENDBRANCH   6  26
TORSDOF 6
ENDMDL
MODEL 3
REMARK VINA RESULT:      -8.7      2.919      7.466
REMARK  Name = 4369172
REMARK  6 active torsions:
REMARK  status: ('A' for Active; 'I' for Inactive)
REMARK    1  A    between atoms: N_5  and  C_12
REMARK    2  A    between atoms: C_6  and  C_26
REMARK    3  A    between atoms: C_11  and  S_20
REMARK    4  A    between atoms: C_15  and  O_18
REMARK    5  A    between atoms: S_20  and  N_23
REMARK    6  A    between atoms: C_26  and  N_28
REMARK                            x       y       z     vdW  Elec       q    Type
REMARK                         _______ _______ _______ _____ _____    ______ ____
ROOT
ATOM      1  S   UNL     1      32.623 -23.746 -13.282  0.00  0.00    +0.086 S 
ATOM      2  S   UNL     1      29.936 -23.373 -14.534  0.00  0.00    -0.047 S 
ATOM      3  O   UNL     1      32.401 -25.129 -12.909  0.00  0.00    -0.149 OA
ATOM      4  O   UNL     1      32.311 -22.649 -12.388  0.00  0.00    -0.149 OA
ATOM      5  N   UNL     1      34.200 -23.548 -13.912  0.00  0.00    -0.175 N 
ATOM      6  C   UNL     1      34.469 -23.620 -15.341  0.00  0.00    +0.031 C 
ATOM      7  C   UNL     1      31.612 -23.502 -14.682  0.00  0.00    +0.156 C 
ATOM      8  C   UNL     1      32.062 -23.418 -15.967  0.00  0.00    +0.028 C 
ATOM      9  C   UNL     1      33.459 -23.532 -16.237  0.00  0.00    +0.012 C 
ATOM     10  C   UNL     1      30.994 -23.235 -16.885  0.00  0.00    +0.028 C 
ATOM     11  C   UNL     1      29.773 -23.187 -16.237  0.00  0.00    +0.152 C 
ENDROOT
BRANCH   5  12
ATOM     12  C   UNL     1      35.277 -23.731 -12.980  0.00  0.00    +0.076 C 
ATOM     13  C   UNL     1      36.298 -22.784 -12.896  0.00  0.00    +0.053 C 
ATOM     14  C   UNL     1      35.303 -24.858 -12.156  0.00  0.00    +0.017 C 
ATOM     15  C   UNL     1      37.344 -22.963 -11.990  0.00  0.00    +0.135 C 
ATOM     16  C   UNL     1      36.349 -25.036 -11.250  0.00  0.00    +0.004 C 
ATOM     17  C   UNL     1      37.370 -24.088 -11.168  0.00  0.00    +0.037 C 
BRANCH  15  18
ATOM     18  O   UNL     1      38.340 -22.038 -11.910  0.00  0.00    -0.505 OA
ATOM     19  H   UNL     1      38.900 -21.888 -12.646  0.00  0.00    +0.292 HD
ENDBRANCH  15  18
ENDBRANCH   5  12
BRANCH  11  20
ATOM     20  S   UNL     1      28.120 -22.985 -16.798  0.00  0.00    +0.063 S 
ATOM     21  O   UNL     1      28.083 -21.695 -17.477  0.00  0.00    -0.153 OA
ATOM     22  O   UNL     1      27.812 -24.213 -17.520  0.00  0.00    -0.153 OA
BRANCH  20  23
ATOM     23  N   UNL     1      27.084 -22.885 -15.431  0.00  0.00    -0.203 NA
ATOM     24  H   UNL     1      27.285 -23.656 -14.795  0.00  0.00    +0.144 HD
ATOM     25  H   UNL     1      26.113 -22.940 -15.736  0.00  0.00    +0.144 HD
ENDBRANCH  20  23
ENDBRANCH  11  20
BRANCH   6  26
ATOM     26  C   UNL     1      35.896 -23.704 -15.815  0.00  0.00    -0.033 C 
BRANCH  26  28
ATOM     27  O   UNL     1      38.467 -26.901 -14.928  0.00  0.00    -0.358 OA
ATOM     28  N   UNL     1      36.648 -24.716 -15.076  0.00  0.00    +0.394 N 
ATOM     29  C   UNL     1      36.261 -26.069 -15.501  0.00  0.00    -0.044 C 
ATOM     30  C   UNL     1      38.095 -24.526 -15.256  0.00  0.00    -0.044 C 
ATOM     31  C   UNL     1      37.069 -27.106 -14.725  0.00  0.00    +0.119 C 
ATOM     32  C   UNL     1      38.859 -25.600 -14.488  0.00  0.00    +0.119 C 
ATOM     33  H   UNL     1      36.427 -24.609 -14.086  0.00  0.00    -0.079 HD
ENDBRANCH  26  28
ENDBRANCH   6  26
TORSDOF 6
ENDMDL
MODEL 4
REMARK VINA RESULT:      -8.6     14.574     18.273
REMARK  Name = 4369172
REMARK  6 active torsions:
REMARK  status: ('A' for Active; 'I' for Inactive)
REMARK    1  A    between atoms: N_5  and  C_12
REMARK    2  A    between atoms: C_6  and  C_26
REMARK    3  A    between atoms: C_11  and  S_20
REMARK    4  A    between atoms: C_15  and  O_18
REMARK    5  A    between atoms: S_20  and  N_23
REMARK    6  A    between atoms: C_26  and  N_28
REMARK                            x       y       z     vdW  Elec       q    Type
REMARK                         _______ _______ _______ _____ _____    ______ ____
ROOT
ATOM      1  S   UNL     1      31.279  -6.969 -23.075  0.00  0.00    +0.086 S 
ATOM      2  S   UNL     1      31.511  -4.502 -24.743  0.00  0.00    -0.047 S 
ATOM      3  O   UNL     1      30.100  -7.472 -23.752  0.00  0.00    -0.149 OA
ATOM      4  O   UNL     1      31.190  -6.118 -21.906  0.00  0.00    -0.149 OA
ATOM      5  N   UNL     1      32.383  -8.242 -22.781  0.00  0.00    -0.175 N 
ATOM      6  C   UNL     1      33.463  -8.548 -23.708  0.00  0.00    +0.031 C 
ATOM      7  C   UNL     1      32.101  -6.013 -24.280  0.00  0.00    +0.156 C 
ATOM      8  C   UNL     1      33.232  -6.392 -24.941  0.00  0.00    +0.028 C 
ATOM      9  C   UNL     1      33.826  -7.659 -24.660  0.00  0.00    +0.012 C 
ATOM     10  C   UNL     1      33.650  -5.405 -25.873  0.00  0.00    +0.028 C 
ATOM     11  C   UNL     1      32.801  -4.313 -25.866  0.00  0.00    +0.152 C 
ENDROOT
BRANCH   5  12
ATOM     12  C   UNL     1      31.957  -9.237 -21.836  0.00  0.00    +0.076 C 
ATOM     13  C   UNL     1      32.350  -9.146 -20.501  0.00  0.00    +0.053 C 
ATOM     14  C   UNL     1      31.151 -10.297 -22.254  0.00  0.00    +0.017 C 
ATOM     15  C   UNL     1      31.938 -10.112 -19.584  0.00  0.00    +0.135 C 
ATOM     16  C   UNL     1      30.738 -11.263 -21.336  0.00  0.00    +0.004 C 
ATOM     17  C   UNL     1      31.132 -11.171 -20.001  0.00  0.00    +0.037 C 
BRANCH  15  18
ATOM     18  O   UNL     1      32.322 -10.022 -18.280  0.00  0.00    -0.505 OA
ATOM     19  H   UNL     1      32.961  -9.386 -18.024  0.00  0.00    +0.292 HD
ENDBRANCH  15  18
ENDBRANCH   5  12
BRANCH  11  20
ATOM     20  S   UNL     1      32.776  -2.802 -26.764  0.00  0.00    +0.063 S 
ATOM     21  O   UNL     1      31.930  -1.895 -25.998  0.00  0.00    -0.153 OA
ATOM     22  O   UNL     1      34.177  -2.483 -27.008  0.00  0.00    -0.153 OA
BRANCH  20  23
ATOM     23  N   UNL     1      32.012  -3.076 -28.278  0.00  0.00    -0.203 NA
ATOM     24  H   UNL     1      32.619  -3.642 -28.869  0.00  0.00    +0.144 HD
ATOM     25  H   UNL     1      31.830  -2.182 -28.734  0.00  0.00    +0.144 HD
ENDBRANCH  20  23
ENDBRANCH  11  20
BRANCH   6  26
ATOM     26  C   UNL     1      34.232  -9.832 -23.538  0.00  0.00    -0.033 C 
BRANCH  26  28
ATOM     27  O   UNL     1      33.725 -13.469 -25.569  0.00  0.00    -0.358 OA
ATOM     28  N   UNL     1      33.628 -10.926 -24.297  0.00  0.00    +0.394 N 
ATOM     29  C   UNL     1      34.322 -11.118 -25.577  0.00  0.00    -0.044 C 
ATOM     30  C   UNL     1      33.649 -12.173 -23.520  0.00  0.00    -0.044 C 
ATOM     31  C   UNL     1      33.681 -12.272 -26.344  0.00  0.00    +0.119 C 
ATOM     32  C   UNL     1      33.025 -13.302 -24.336  0.00  0.00    +0.119 C 
ATOM     33  H   UNL     1      32.657 -10.676 -24.485  0.00  0.00    -0.079 HD
ENDBRANCH  26  28
ENDBRANCH   6  26
TORSDOF 6
ENDMDL
MODEL 5
REMARK VINA RESULT:      -8.4     14.865     18.595
REMARK  Name = 4369172
REMARK  6 active torsions:
REMARK  status: ('A' for Active; 'I' for Inactive)
REMARK    1  A    between atoms: N_5  and  C_12
REMARK    2  A    between atoms: C_6  and  C_26
REMARK    3  A    between atoms: C_11  and  S_20
REMARK    4  A    between atoms: C_15  and  O_18
REMARK    5  A    between atoms: S_20  and  N_23
REMARK    6  A    between atoms: C_26  and  N_28
REMARK                            x       y       z     vdW  Elec       q    Type
REMARK                         _______ _______ _______ _____ _____    ______ ____
ROOT
ATOM      1  S   UNL     1      31.474  -6.518 -23.098  0.00  0.00    +0.086 S 
ATOM      2  S   UNL     1      31.632  -4.179 -24.949  0.00  0.00    -0.047 S 
ATOM      3  O   UNL     1      30.248  -7.047 -23.662  0.00  0.00    -0.149 OA
ATOM      4  O   UNL     1      31.470  -5.585 -21.989  0.00  0.00    -0.149 OA
ATOM      5  N   UNL     1      32.578  -7.786 -22.782  0.00  0.00    -0.175 N 
ATOM      6  C   UNL     1      33.593  -8.176 -23.750  0.00  0.00    +0.031 C 
ATOM      7  C   UNL     1      32.231  -5.664 -24.416  0.00  0.00    +0.156 C 
ATOM      8  C   UNL     1      33.313  -6.108 -25.118  0.00  0.00    +0.028 C 
ATOM      9  C   UNL     1      33.907  -7.362 -24.783  0.00  0.00    +0.012 C 
ATOM     10  C   UNL     1      33.684  -5.197 -26.142  0.00  0.00    +0.028 C 
ATOM     11  C   UNL     1      32.851  -4.092 -26.160  0.00  0.00    +0.152 C 
ENDROOT
BRANCH   5  12
ATOM     12  C   UNL     1      32.200  -8.704 -21.744  0.00  0.00    +0.076 C 
ATOM     13  C   UNL     1      31.399  -9.806 -22.042  0.00  0.00    +0.053 C 
ATOM     14  C   UNL     1      32.633  -8.492 -20.434  0.00  0.00    +0.017 C 
ATOM     15  C   UNL     1      31.032 -10.697 -21.034  0.00  0.00    +0.135 C 
ATOM     16  C   UNL     1      32.266  -9.383 -19.425  0.00  0.00    +0.004 C 
ATOM     17  C   UNL     1      31.465 -10.485 -19.725  0.00  0.00    +0.037 C 
BRANCH  15  18
ATOM     18  O   UNL     1      30.250 -11.773 -21.326  0.00  0.00    -0.505 OA
ATOM     19  H   UNL     1      30.563 -12.433 -21.913  0.00  0.00    +0.292 HD
ENDBRANCH  15  18
ENDBRANCH   5  12
BRANCH  11  20
ATOM     20  S   UNL     1      32.789  -2.649 -27.162  0.00  0.00    +0.063 S 
ATOM     21  O   UNL     1      31.780  -1.786 -26.557  0.00  0.00    -0.153 OA
ATOM     22  O   UNL     1      34.173  -2.206 -27.274  0.00  0.00    -0.153 OA
BRANCH  20  23
ATOM     23  N   UNL     1      32.231  -3.088 -28.725  0.00  0.00    -0.203 NA
ATOM     24  H   UNL     1      33.028  -3.297 -29.325  0.00  0.00    +0.144 HD
ATOM     25  H   UNL     1      31.697  -2.317 -29.125  0.00  0.00    +0.144 HD
ENDBRANCH  20  23
ENDBRANCH  11  20
BRANCH   6  26
ATOM     26  C   UNL     1      34.355  -9.457 -23.536  0.00  0.00    -0.033 C 
BRANCH  26  28
ATOM     27  O   UNL     1      33.775 -13.209 -25.325  0.00  0.00    -0.358 OA
ATOM     28  N   UNL     1      33.739 -10.574 -24.249  0.00  0.00    +0.394 N 
ATOM     29  C   UNL     1      34.495 -10.897 -25.467  0.00  0.00    -0.044 C 
ATOM     30  C   UNL     1      33.649 -11.759 -23.384  0.00  0.00    -0.044 C 
ATOM     31  C   UNL     1      33.839 -12.073 -26.186  0.00  0.00    +0.119 C 
ATOM     32  C   UNL     1      33.015 -12.915 -24.152  0.00  0.00    +0.119 C 
ATOM     33  H   UNL     1      32.795 -10.293 -24.515  0.00  0.00    -0.079 HD
ENDBRANCH  26  28
ENDBRANCH   6  26
TORSDOF 6
ENDMDL
MODEL 6
REMARK VINA RESULT:      -7.7      3.570      7.662
REMARK  Name = 4369172
REMARK  6 active torsions:
REMARK  status: ('A' for Active; 'I' for Inactive)
REMARK    1  A    between atoms: N_5  and  C_12
REMARK    2  A    between atoms: C_6  and  C_26
REMARK    3  A    between atoms: C_11  and  S_20
REMARK    4  A    between atoms: C_15  and  O_18
REMARK    5  A    between atoms: S_20  and  N_23
REMARK    6  A    between atoms: C_26  and  N_28
REMARK                            x       y       z     vdW  Elec       q    Type
REMARK                         _______ _______ _______ _____ _____    ______ ____
ROOT
ATOM      1  S   UNL     1      36.382 -21.824 -17.599  0.00  0.00    +0.086 S 
ATOM      2  S   UNL     1      36.385 -20.089 -20.030  0.00  0.00    -0.047 S 
ATOM      3  O   UNL     1      36.418 -20.725 -16.655  0.00  0.00    -0.149 OA
ATOM      4  O   UNL     1      37.590 -22.450 -18.097  0.00  0.00    -0.149 OA
ATOM      5  N   UNL     1      35.285 -23.025 -17.069  0.00  0.00    -0.175 N 
ATOM      6  C   UNL     1      33.898 -23.046 -17.514  0.00  0.00    +0.031 C 
ATOM      7  C   UNL     1      35.588 -21.168 -19.006  0.00  0.00    +0.156 C 
ATOM      8  C   UNL     1      34.304 -21.438 -19.379  0.00  0.00    +0.028 C 
ATOM      9  C   UNL     1      33.510 -22.322 -18.588  0.00  0.00    +0.012 C 
ATOM     10  C   UNL     1      33.943 -20.738 -20.560  0.00  0.00    +0.028 C 
ATOM     11  C   UNL     1      34.989 -19.964 -21.028  0.00  0.00    +0.152 C 
ENDROOT
BRANCH   5  12
ATOM     12  C   UNL     1      35.656 -23.732 -15.876  0.00  0.00    +0.076 C 
ATOM     13  C   UNL     1      35.818 -25.118 -15.905  0.00  0.00    +0.053 C 
ATOM     14  C   UNL     1      35.854 -23.034 -14.683  0.00  0.00    +0.017 C 
ATOM     15  C   UNL     1      36.177 -25.804 -14.746  0.00  0.00    +0.135 C 
ATOM     16  C   UNL     1      36.214 -23.721 -13.523  0.00  0.00    +0.004 C 
ATOM     17  C   UNL     1      36.375 -25.107 -13.555  0.00  0.00    +0.037 C 
BRANCH  15  18
ATOM     18  O   UNL     1      36.334 -27.157 -14.777  0.00  0.00    -0.505 OA
ATOM     19  H   UNL     1      36.893 -27.548 -15.418  0.00  0.00    +0.292 HD
ENDBRANCH  15  18
ENDBRANCH   5  12
BRANCH  11  20
ATOM     20  S   UNL     1      35.169 -18.894 -22.411  0.00  0.00    +0.063 S 
ATOM     21  O   UNL     1      34.884 -19.708 -23.586  0.00  0.00    -0.153 OA
ATOM     22  O   UNL     1      34.349 -17.730 -22.098  0.00  0.00    -0.153 OA
BRANCH  20  23
ATOM     23  N   UNL     1      36.809 -18.393 -22.508  0.00  0.00    -0.203 NA
ATOM     24  H   UNL     1      37.390 -19.183 -22.784  0.00  0.00    +0.144 HD
ATOM     25  H   UNL     1      37.113 -18.046 -21.599  0.00  0.00    +0.144 HD
ENDBRANCH  20  23
ENDBRANCH  11  20
BRANCH   6  26
ATOM     26  C   UNL     1      32.919 -23.954 -16.818  0.00  0.00    -0.033 C 
BRANCH  26  28
ATOM     27  O   UNL     1      30.116 -23.089 -13.816  0.00  0.00    -0.358 OA
ATOM     28  N   UNL     1      32.141 -23.235 -15.811  0.00  0.00    +0.394 N 
ATOM     29  C   UNL     1      30.714 -23.225 -16.163  0.00  0.00    -0.044 C 
ATOM     30  C   UNL     1      32.328 -23.832 -14.481  0.00  0.00    -0.044 C 
ATOM     31  C   UNL     1      29.922 -22.480 -15.092  0.00  0.00    +0.119 C 
ATOM     32  C   UNL     1      31.497 -23.074 -13.451  0.00  0.00    +0.119 C 
ATOM     33  H   UNL     1      32.477 -22.272 -15.785  0.00  0.00    -0.079 HD
ENDBRANCH  26  28
ENDBRANCH   6  26
TORSDOF 6
ENDMDL
