MODEL 1
REMARK VINA RESULT:      -9.4      0.000      0.000
REMARK  Name = 34633
REMARK  6 active torsions:
REMARK  status: ('A' for Active; 'I' for Inactive)
REMARK    1  A    between atoms: C_4  and  C_24
REMARK    2  A    between atoms: C_12  and  N_18
REMARK    3  A    between atoms: C_19  and  O_21
REMARK    4  A    between atoms: O_21  and  C_22
REMARK    5  A    between atoms: C_24  and  C_25
REMARK    6  A    between atoms: C_25  and  N_27
REMARK                            x       y       z     vdW  Elec       q    Type
REMARK                         _______ _______ _______ _____ _____    ______ ____
ROOT
ATOM      1  S   UNL     1      34.183 -16.825 -25.372  0.00  0.00    -0.084 S 
ATOM      2  O   UNL     1      34.742 -14.665 -20.404  0.00  0.00    -0.274 OA
ATOM      3  N   UNL     1      34.036 -15.365 -22.524  0.00  0.00    -0.236 N 
ATOM      4  C   UNL     1      33.871 -14.751 -21.270  0.00  0.00    +0.231 C 
ATOM      5  C   UNL     1      33.870 -14.580 -23.725  0.00  0.00    +0.065 C 
ATOM      6  C   UNL     1      34.462 -16.743 -22.582  0.00  0.00    +0.064 C 
ATOM      7  C   UNL     1      33.914 -15.116 -25.019  0.00  0.00    +0.044 C 
ATOM      8  C   UNL     1      34.597 -17.464 -23.778  0.00  0.00    +0.043 C 
ATOM      9  C   UNL     1      33.693 -13.180 -23.618  0.00  0.00    +0.030 C 
ATOM     10  C   UNL     1      34.726 -17.446 -21.382  0.00  0.00    +0.016 C 
ATOM     11  C   UNL     1      33.740 -14.283 -26.143  0.00  0.00    +0.009 C 
ATOM     12  C   UNL     1      33.526 -12.360 -24.736  0.00  0.00    +0.054 C 
ATOM     13  C   UNL     1      35.028 -18.807 -23.760  0.00  0.00    +0.008 C 
ATOM     14  C   UNL     1      33.543 -12.914 -26.004  0.00  0.00    +0.015 C 
ATOM     15  C   UNL     1      35.152 -18.777 -21.372  0.00  0.00    +0.001 C 
ATOM     16  C   UNL     1      35.312 -19.458 -22.565  0.00  0.00    +0.001 C 
ENDROOT
BRANCH  12  18
ATOM     17  O   UNL     1      35.495 -10.183 -24.095  0.00  0.00    -0.226 OA
ATOM     18  N   UNL     1      33.345 -10.986 -24.577  0.00  0.00    -0.250 N 
ATOM     19  C   UNL     1      34.296 -10.014 -24.279  0.00  0.00    +0.405 C 
ATOM     20  H   UNL     1      32.423 -10.661 -24.691  0.00  0.00    +0.158 HD
BRANCH  19  21
ATOM     21  O   UNL     1      33.685  -8.789 -24.214  0.00  0.00    -0.434 OA
BRANCH  21  22
ATOM     22  C   UNL     1      34.495  -7.707 -23.739  0.00  0.00    +0.210 C 
ATOM     23  C   UNL     1      34.592  -6.652 -24.819  0.00  0.00    +0.051 C 
ENDBRANCH  21  22
ENDBRANCH  19  21
ENDBRANCH  12  18
BRANCH   4  24
ATOM     24  C   UNL     1      32.467 -14.248 -21.012  0.00  0.00    +0.063 C 
BRANCH  24  25
ATOM     25  C   UNL     1      32.508 -13.253 -19.870  0.00  0.00    -0.067 C 
BRANCH  25  27
ATOM     26  O   UNL     1      31.458  -9.541 -21.524  0.00  0.00    -0.358 OA
ATOM     27  N   UNL     1      31.743 -12.061 -20.232  0.00  0.00    +0.391 N 
ATOM     28  C   UNL     1      31.600 -11.957 -21.691  0.00  0.00    -0.045 C 
ATOM     29  C   UNL     1      32.382 -10.849 -19.702  0.00  0.00    -0.045 C 
ATOM     30  C   UNL     1      30.809 -10.701 -22.046  0.00  0.00    +0.119 C 
ATOM     31  C   UNL     1      31.572  -9.619 -20.103  0.00  0.00    +0.119 C 
ATOM     32  H   UNL     1      30.814 -12.148 -19.819  0.00  0.00    -0.079 HD
ENDBRANCH  25  27
ENDBRANCH  24  25
ENDBRANCH   4  24
TORSDOF 6
ENDMDL
MODEL 2
REMARK VINA RESULT:      -9.1      8.474     12.441
REMARK  Name = 34633
REMARK  6 active torsions:
REMARK  status: ('A' for Active; 'I' for Inactive)
REMARK    1  A    between atoms: C_4  and  C_24
REMARK    2  A    between atoms: C_12  and  N_18
REMARK    3  A    between atoms: C_19  and  O_21
REMARK    4  A    between atoms: O_21  and  C_22
REMARK    5  A    between atoms: C_24  and  C_25
REMARK    6  A    between atoms: C_25  and  N_27
REMARK                            x       y       z     vdW  Elec       q    Type
REMARK                         _______ _______ _______ _____ _____    ______ ____
ROOT
ATOM      1  S   UNL     1      32.809 -23.680 -13.089  0.00  0.00    -0.084 S 
ATOM      2  O   UNL     1      34.095 -24.065 -18.366  0.00  0.00    -0.274 OA
ATOM      3  N   UNL     1      33.331 -23.448 -16.241  0.00  0.00    -0.236 N 
ATOM      4  C   UNL     1      33.576 -23.243 -17.610  0.00  0.00    +0.231 C 
ATOM      5  C   UNL     1      31.975 -23.398 -15.748  0.00  0.00    +0.065 C 
ATOM      6  C   UNL     1      34.431 -23.797 -15.373  0.00  0.00    +0.064 C 
ATOM      7  C   UNL     1      31.634 -23.488 -14.392  0.00  0.00    +0.044 C 
ATOM      8  C   UNL     1      34.304 -23.962 -13.986  0.00  0.00    +0.043 C 
ATOM      9  C   UNL     1      30.907 -23.295 -16.671  0.00  0.00    +0.030 C 
ATOM     10  C   UNL     1      35.730 -23.949 -15.916  0.00  0.00    +0.016 C 
ATOM     11  C   UNL     1      30.284 -23.428 -13.989  0.00  0.00    +0.009 C 
ATOM     12  C   UNL     1      29.571 -23.241 -16.266  0.00  0.00    +0.054 C 
ATOM     13  C   UNL     1      35.422 -24.314 -13.201  0.00  0.00    +0.008 C 
ATOM     14  C   UNL     1      29.258 -23.301 -14.919  0.00  0.00    +0.015 C 
ATOM     15  C   UNL     1      36.833 -24.297 -15.132  0.00  0.00    +0.001 C 
ATOM     16  C   UNL     1      36.677 -24.489 -13.771  0.00  0.00    +0.001 C 
ENDROOT
BRANCH  12  18
ATOM     17  O   UNL     1      27.019 -21.654 -16.231  0.00  0.00    -0.226 OA
ATOM     18  N   UNL     1      28.554 -23.130 -17.214  0.00  0.00    -0.250 N 
ATOM     19  C   UNL     1      27.385 -22.377 -17.150  0.00  0.00    +0.405 C 
ATOM     20  H   UNL     1      28.680 -23.654 -18.038  0.00  0.00    +0.158 HD
BRANCH  19  21
ATOM     21  O   UNL     1      26.666 -22.559 -18.302  0.00  0.00    -0.434 OA
BRANCH  21  22
ATOM     22  C   UNL     1      25.911 -21.430 -18.757  0.00  0.00    +0.210 C 
ATOM     23  C   UNL     1      25.569 -21.622 -20.219  0.00  0.00    +0.051 C 
ENDBRANCH  21  22
ENDBRANCH  19  21
ENDBRANCH  12  18
BRANCH   4  24
ATOM     24  C   UNL     1      33.215 -21.857 -18.100  0.00  0.00    +0.063 C 
BRANCH  24  25
ATOM     25  C   UNL     1      33.470 -21.786 -19.592  0.00  0.00    -0.067 C 
BRANCH  25  27
ATOM     26  O   UNL     1      35.821 -18.979 -21.643  0.00  0.00    -0.358 OA
ATOM     27  N   UNL     1      34.256 -20.592 -19.897  0.00  0.00    +0.391 N 
ATOM     28  C   UNL     1      33.643 -19.830 -20.994  0.00  0.00    -0.045 C 
ATOM     29  C   UNL     1      35.638 -20.951 -20.243  0.00  0.00    -0.045 C 
ATOM     30  C   UNL     1      34.487 -18.597 -21.303  0.00  0.00    +0.119 C 
ATOM     31  C   UNL     1      36.434 -19.691 -20.568  0.00  0.00    +0.119 C 
ATOM     32  H   UNL     1      34.270 -20.006 -19.062  0.00  0.00    -0.079 HD
ENDBRANCH  25  27
ENDBRANCH  24  25
ENDBRANCH   4  24
TORSDOF 6
ENDMDL
MODEL 3
REMARK VINA RESULT:      -8.4      9.251     13.410
REMARK  Name = 34633
REMARK  6 active torsions:
REMARK  status: ('A' for Active; 'I' for Inactive)
REMARK    1  A    between atoms: C_4  and  C_24
REMARK    2  A    between atoms: C_12  and  N_18
REMARK    3  A    between atoms: C_19  and  O_21
REMARK    4  A    between atoms: O_21  and  C_22
REMARK    5  A    between atoms: C_24  and  C_25
REMARK    6  A    between atoms: C_25  and  N_27
REMARK                            x       y       z     vdW  Elec       q    Type
REMARK                         _______ _______ _______ _____ _____    ______ ____
ROOT
ATOM      1  S   UNL     1      36.868 -20.770 -18.593  0.00  0.00    -0.084 S 
ATOM      2  O   UNL     1      32.425 -23.852 -17.954  0.00  0.00    -0.274 OA
ATOM      3  N   UNL     1      34.275 -22.437 -17.721  0.00  0.00    -0.236 N 
ATOM      4  C   UNL     1      33.113 -23.089 -17.275  0.00  0.00    +0.231 C 
ATOM      5  C   UNL     1      35.532 -22.696 -17.059  0.00  0.00    +0.065 C 
ATOM      6  C   UNL     1      34.205 -21.595 -18.893  0.00  0.00    +0.064 C 
ATOM      7  C   UNL     1      36.725 -22.025 -17.361  0.00  0.00    +0.044 C 
ATOM      8  C   UNL     1      35.290 -20.854 -19.382  0.00  0.00    +0.043 C 
ATOM      9  C   UNL     1      35.600 -23.710 -16.075  0.00  0.00    +0.030 C 
ATOM     10  C   UNL     1      32.976 -21.458 -19.582  0.00  0.00    +0.016 C 
ATOM     11  C   UNL     1      37.913 -22.333 -16.666  0.00  0.00    +0.009 C 
ATOM     12  C   UNL     1      36.781 -24.014 -15.394  0.00  0.00    +0.054 C 
ATOM     13  C   UNL     1      35.151 -20.060 -20.539  0.00  0.00    +0.008 C 
ATOM     14  C   UNL     1      37.942 -23.318 -15.686  0.00  0.00    +0.015 C 
ATOM     15  C   UNL     1      32.845 -20.668 -20.728  0.00  0.00    +0.001 C 
ATOM     16  C   UNL     1      33.938 -19.973 -21.214  0.00  0.00    +0.001 C 
ENDROOT
BRANCH  12  18
ATOM     17  O   UNL     1      37.116 -26.989 -15.653  0.00  0.00    -0.226 OA
ATOM     18  N   UNL     1      36.794 -25.017 -14.425  0.00  0.00    -0.250 N 
ATOM     19  C   UNL     1      36.953 -26.390 -14.597  0.00  0.00    +0.405 C 
ATOM     20  H   UNL     1      36.673 -24.715 -13.495  0.00  0.00    +0.158 HD
BRANCH  19  21
ATOM     21  O   UNL     1      36.901 -27.008 -13.376  0.00  0.00    -0.434 OA
BRANCH  21  22
ATOM     22  C   UNL     1      37.212 -26.189 -12.243  0.00  0.00    +0.210 C 
ATOM     23  C   UNL     1      38.613 -25.639 -12.401  0.00  0.00    +0.051 C 
ENDBRANCH  21  22
ENDBRANCH  19  21
ENDBRANCH  12  18
BRANCH   4  24
ATOM     24  C   UNL     1      32.701 -22.717 -15.867  0.00  0.00    +0.063 C 
BRANCH  24  25
ATOM     25  C   UNL     1      31.687 -23.729 -15.372  0.00  0.00    -0.067 C 
BRANCH  25  27
ATOM     26  O   UNL     1      27.534 -23.454 -15.909  0.00  0.00    -0.358 OA
ATOM     27  N   UNL     1      30.380 -23.437 -15.956  0.00  0.00    +0.391 N 
ATOM     28  C   UNL     1      29.620 -22.515 -15.101  0.00  0.00    -0.045 C 
ATOM     29  C   UNL     1      29.614 -24.674 -16.167  0.00  0.00    -0.045 C 
ATOM     30  C   UNL     1      28.255 -22.235 -15.724  0.00  0.00    +0.119 C 
ATOM     31  C   UNL     1      28.251 -24.342 -16.766  0.00  0.00    +0.119 C 
ATOM     32  H   UNL     1      30.534 -22.991 -16.860  0.00  0.00    -0.079 HD
ENDBRANCH  25  27
ENDBRANCH  24  25
ENDBRANCH   4  24
TORSDOF 6
ENDMDL
MODEL 4
REMARK VINA RESULT:      -8.3      2.777      7.000
REMARK  Name = 34633
REMARK  6 active torsions:
REMARK  status: ('A' for Active; 'I' for Inactive)
REMARK    1  A    between atoms: C_4  and  C_24
REMARK    2  A    between atoms: C_12  and  N_18
REMARK    3  A    between atoms: C_19  and  O_21
REMARK    4  A    between atoms: O_21  and  C_22
REMARK    5  A    between atoms: C_24  and  C_25
REMARK    6  A    between atoms: C_25  and  N_27
REMARK                            x       y       z     vdW  Elec       q    Type
REMARK                         _______ _______ _______ _____ _____    ______ ____
ROOT
ATOM      1  S   UNL     1      34.225  -8.208 -23.626  0.00  0.00    -0.084 S 
ATOM      2  O   UNL     1      30.573 -11.389 -21.136  0.00  0.00    -0.274 OA
ATOM      3  N   UNL     1      32.470 -10.407 -22.093  0.00  0.00    -0.236 N 
ATOM      4  C   UNL     1      31.784 -11.390 -21.360  0.00  0.00    +0.231 C 
ATOM      5  C   UNL     1      33.170 -10.782 -23.299  0.00  0.00    +0.065 C 
ATOM      6  C   UNL     1      32.381  -9.027 -21.677  0.00  0.00    +0.064 C 
ATOM      7  C   UNL     1      33.965  -9.902 -24.046  0.00  0.00    +0.044 C 
ATOM      8  C   UNL     1      33.076  -7.981 -22.303  0.00  0.00    +0.043 C 
ATOM      9  C   UNL     1      33.028 -12.098 -23.801  0.00  0.00    +0.030 C 
ATOM     10  C   UNL     1      31.590  -8.684 -20.555  0.00  0.00    +0.016 C 
ATOM     11  C   UNL     1      34.620 -10.347 -25.213  0.00  0.00    +0.009 C 
ATOM     12  C   UNL     1      33.676 -12.531 -24.961  0.00  0.00    +0.054 C 
ATOM     13  C   UNL     1      32.934  -6.654 -21.848  0.00  0.00    +0.008 C 
ATOM     14  C   UNL     1      34.481 -11.653 -25.666  0.00  0.00    +0.015 C 
ATOM     15  C   UNL     1      31.454  -7.366 -20.109  0.00  0.00    +0.001 C 
ATOM     16  C   UNL     1      32.122  -6.346 -20.763  0.00  0.00    +0.001 C 
ENDROOT
BRANCH  12  18
ATOM     17  O   UNL     1      33.684 -13.670 -27.741  0.00  0.00    -0.226 OA
ATOM     18  N   UNL     1      33.511 -13.841 -25.409  0.00  0.00    -0.250 N 
ATOM     19  C   UNL     1      33.523 -14.320 -26.716  0.00  0.00    +0.405 C 
ATOM     20  H   UNL     1      33.366 -14.517 -24.707  0.00  0.00    +0.158 HD
BRANCH  19  21
ATOM     21  O   UNL     1      33.322 -15.675 -26.703  0.00  0.00    -0.434 OA
BRANCH  21  22
ATOM     22  C   UNL     1      33.442 -16.316 -25.428  0.00  0.00    +0.210 C 
ATOM     23  C   UNL     1      34.575 -17.318 -25.484  0.00  0.00    +0.051 C 
ENDBRANCH  21  22
ENDBRANCH  19  21
ENDBRANCH  12  18
BRANCH   4  24
ATOM     24  C   UNL     1      32.681 -12.456 -20.770  0.00  0.00    +0.063 C 
BRANCH  24  25
ATOM     25  C   UNL     1      31.916 -13.764 -20.719  0.00  0.00    -0.067 C 
BRANCH  25  27
ATOM     26  O   UNL     1      34.811 -16.725 -21.397  0.00  0.00    -0.358 OA
ATOM     27  N   UNL     1      32.702 -14.815 -21.362  0.00  0.00    +0.391 N 
ATOM     28  C   UNL     1      32.614 -16.070 -20.603  0.00  0.00    -0.045 C 
ATOM     29  C   UNL     1      34.107 -14.407 -21.500  0.00  0.00    -0.045 C 
ATOM     30  C   UNL     1      33.452 -17.148 -21.286  0.00  0.00    +0.119 C 
ATOM     31  C   UNL     1      34.908 -15.524 -22.162  0.00  0.00    +0.119 C 
ATOM     32  H   UNL     1      32.314 -14.969 -22.293  0.00  0.00    -0.079 HD
ENDBRANCH  25  27
ENDBRANCH  24  25
ENDBRANCH   4  24
TORSDOF 6
ENDMDL
MODEL 5
REMARK VINA RESULT:      -8.2      1.952      4.257
REMARK  Name = 34633
REMARK  6 active torsions:
REMARK  status: ('A' for Active; 'I' for Inactive)
REMARK    1  A    between atoms: C_4  and  C_24
REMARK    2  A    between atoms: C_12  and  N_18
REMARK    3  A    between atoms: C_19  and  O_21
REMARK    4  A    between atoms: O_21  and  C_22
REMARK    5  A    between atoms: C_24  and  C_25
REMARK    6  A    between atoms: C_25  and  N_27
REMARK                            x       y       z     vdW  Elec       q    Type
REMARK                         _______ _______ _______ _____ _____    ______ ____
ROOT
ATOM      1  S   UNL     1      34.255 -16.732 -21.055  0.00  0.00    -0.084 S 
ATOM      2  O   UNL     1      32.776 -15.711 -26.196  0.00  0.00    -0.274 OA
ATOM      3  N   UNL     1      33.637 -15.684 -24.019  0.00  0.00    -0.236 N 
ATOM      4  C   UNL     1      33.462 -15.182 -25.320  0.00  0.00    +0.231 C 
ATOM      5  C   UNL     1      33.213 -14.889 -22.890  0.00  0.00    +0.065 C 
ATOM      6  C   UNL     1      34.149 -17.023 -23.843  0.00  0.00    +0.064 C 
ATOM      7  C   UNL     1      33.433 -15.252 -21.555  0.00  0.00    +0.044 C 
ATOM      8  C   UNL     1      34.417 -17.593 -22.589  0.00  0.00    +0.043 C 
ATOM      9  C   UNL     1      32.496 -13.691 -23.118  0.00  0.00    +0.030 C 
ATOM     10  C   UNL     1      34.445 -17.814 -24.978  0.00  0.00    +0.016 C 
ATOM     11  C   UNL     1      32.991 -14.419 -20.506  0.00  0.00    +0.009 C 
ATOM     12  C   UNL     1      32.056 -12.872 -22.074  0.00  0.00    +0.054 C 
ATOM     13  C   UNL     1      34.907 -18.911 -22.492  0.00  0.00    +0.008 C 
ATOM     14  C   UNL     1      32.310 -13.234 -20.763  0.00  0.00    +0.015 C 
ATOM     15  C   UNL     1      34.931 -19.120 -24.875  0.00  0.00    +0.001 C 
ATOM     16  C   UNL     1      35.155 -19.674 -23.628  0.00  0.00    +0.001 C 
ENDROOT
BRANCH  12  18
ATOM     17  O   UNL     1      32.360 -10.102 -20.953  0.00  0.00    -0.226 OA
ATOM     18  N   UNL     1      31.360 -11.696 -22.352  0.00  0.00    -0.250 N 
ATOM     19  C   UNL     1      31.540 -10.430 -21.801  0.00  0.00    +0.405 C 
ATOM     20  H   UNL     1      30.645 -11.771 -23.025  0.00  0.00    +0.158 HD
BRANCH  19  21
ATOM     21  O   UNL     1      30.639  -9.561 -22.359  0.00  0.00    -0.434 OA
BRANCH  21  22
ATOM     22  C   UNL     1      31.165  -8.645 -23.326  0.00  0.00    +0.210 C 
ATOM     23  C   UNL     1      31.261  -7.270 -22.701  0.00  0.00    +0.051 C 
ENDBRANCH  21  22
ENDBRANCH  19  21
ENDBRANCH  12  18
BRANCH   4  24
ATOM     24  C   UNL     1      34.269 -13.936 -25.614  0.00  0.00    +0.063 C 
BRANCH  24  25
ATOM     25  C   UNL     1      33.374 -12.926 -26.302  0.00  0.00    -0.067 C 
BRANCH  25  27
ATOM     26  O   UNL     1      35.698  -9.742 -24.860  0.00  0.00    -0.358 OA
ATOM     27  N   UNL     1      33.847 -11.574 -26.007  0.00  0.00    +0.391 N 
ATOM     28  C   UNL     1      35.168 -11.342 -26.606  0.00  0.00    -0.045 C 
ATOM     29  C   UNL     1      33.903 -11.345 -24.557  0.00  0.00    -0.045 C 
ATOM     30  C   UNL     1      35.646  -9.931 -26.275  0.00  0.00    +0.119 C 
ATOM     31  C   UNL     1      34.410  -9.934 -24.275  0.00  0.00    +0.119 C 
ATOM     32  H   UNL     1      33.184 -10.915 -26.416  0.00  0.00    -0.079 HD
ENDBRANCH  25  27
ENDBRANCH  24  25
ENDBRANCH   4  24
TORSDOF 6
ENDMDL
MODEL 6
REMARK VINA RESULT:      -8.1      8.650     12.331
REMARK  Name = 34633
REMARK  6 active torsions:
REMARK  status: ('A' for Active; 'I' for Inactive)
REMARK    1  A    between atoms: C_4  and  C_24
REMARK    2  A    between atoms: C_12  and  N_18
REMARK    3  A    between atoms: C_19  and  O_21
REMARK    4  A    between atoms: O_21  and  C_22
REMARK    5  A    between atoms: C_24  and  C_25
REMARK    6  A    between atoms: C_25  and  N_27
REMARK                            x       y       z     vdW  Elec       q    Type
REMARK                         _______ _______ _______ _____ _____    ______ ____
ROOT
ATOM      1  S   UNL     1      38.006 -23.558 -14.993  0.00  0.00    -0.084 S 
ATOM      2  O   UNL     1      32.695 -22.642 -14.213  0.00  0.00    -0.274 OA
ATOM      3  N   UNL     1      34.815 -23.275 -14.978  0.00  0.00    -0.236 N 
ATOM      4  C   UNL     1      33.410 -23.248 -15.011  0.00  0.00    +0.231 C 
ATOM      5  C   UNL     1      35.561 -22.759 -16.102  0.00  0.00    +0.065 C 
ATOM      6  C   UNL     1      35.483 -23.731 -13.781  0.00  0.00    +0.064 C 
ATOM      7  C   UNL     1      36.956 -22.832 -16.211  0.00  0.00    +0.044 C 
ATOM      8  C   UNL     1      36.876 -23.854 -13.668  0.00  0.00    +0.043 C 
ATOM      9  C   UNL     1      34.870 -22.101 -17.147  0.00  0.00    +0.030 C 
ATOM     10  C   UNL     1      34.716 -24.121 -12.657  0.00  0.00    +0.016 C 
ATOM     11  C   UNL     1      37.612 -22.306 -17.344  0.00  0.00    +0.009 C 
ATOM     12  C   UNL     1      35.527 -21.578 -18.264  0.00  0.00    +0.054 C 
ATOM     13  C   UNL     1      37.460 -24.296 -12.463  0.00  0.00    +0.008 C 
ATOM     14  C   UNL     1      36.903 -21.687 -18.366  0.00  0.00    +0.015 C 
ATOM     15  C   UNL     1      35.302 -24.559 -11.467  0.00  0.00    +0.001 C 
ATOM     16  C   UNL     1      36.679 -24.639 -11.366  0.00  0.00    +0.001 C 
ENDROOT
BRANCH  12  18
ATOM     17  O   UNL     1      33.026 -22.418 -19.702  0.00  0.00    -0.226 OA
ATOM     18  N   UNL     1      34.799 -20.946 -19.273  0.00  0.00    -0.250 N 
ATOM     19  C   UNL     1      33.640 -21.380 -19.910  0.00  0.00    +0.405 C 
ATOM     20  H   UNL     1      35.154 -20.078 -19.575  0.00  0.00    +0.158 HD
BRANCH  19  21
ATOM     21  O   UNL     1      33.260 -20.449 -20.841  0.00  0.00    -0.434 OA
BRANCH  21  22
ATOM     22  C   UNL     1      34.168 -19.361 -21.048  0.00  0.00    +0.210 C 
ATOM     23  C   UNL     1      34.551 -19.308 -22.511  0.00  0.00    +0.051 C 
ENDBRANCH  21  22
ENDBRANCH  19  21
ENDBRANCH  12  18
BRANCH   4  24
ATOM     24  C   UNL     1      32.803 -24.114 -16.094  0.00  0.00    +0.063 C 
BRANCH  24  25
ATOM     25  C   UNL     1      31.689 -23.341 -16.769  0.00  0.00    -0.067 C 
BRANCH  25  27
ATOM     26  O   UNL     1      27.766 -24.168 -15.526  0.00  0.00    -0.358 OA
ATOM     27  N   UNL     1      30.478 -23.417 -15.954  0.00  0.00    +0.391 N 
ATOM     28  C   UNL     1      30.097 -24.815 -15.714  0.00  0.00    -0.045 C 
ATOM     29  C   UNL     1      29.370 -22.697 -16.597  0.00  0.00    -0.045 C 
ATOM     30  C   UNL     1      28.825 -24.869 -14.872  0.00  0.00    +0.119 C 
ATOM     31  C   UNL     1      28.116 -22.800 -15.733  0.00  0.00    +0.119 C 
ATOM     32  H   UNL     1      30.678 -22.975 -15.057  0.00  0.00    -0.079 HD
ENDBRANCH  25  27
ENDBRANCH  24  25
ENDBRANCH   4  24
TORSDOF 6
ENDMDL
MODEL 7
REMARK VINA RESULT:      -7.6      3.003      7.111
REMARK  Name = 34633
REMARK  6 active torsions:
REMARK  status: ('A' for Active; 'I' for Inactive)
REMARK    1  A    between atoms: C_4  and  C_24
REMARK    2  A    between atoms: C_12  and  N_18
REMARK    3  A    between atoms: C_19  and  O_21
REMARK    4  A    between atoms: O_21  and  C_22
REMARK    5  A    between atoms: C_24  and  C_25
REMARK    6  A    between atoms: C_25  and  N_27
REMARK                            x       y       z     vdW  Elec       q    Type
REMARK                         _______ _______ _______ _____ _____    ______ ____
ROOT
ATOM      1  S   UNL     1      32.882 -10.279 -23.617  0.00  0.00    -0.084 S 
ATOM      2  O   UNL     1      31.895 -14.529 -20.358  0.00  0.00    -0.274 OA
ATOM      3  N   UNL     1      32.785 -12.923 -21.810  0.00  0.00    -0.236 N 
ATOM      4  C   UNL     1      32.843 -14.064 -20.991  0.00  0.00    +0.231 C 
ATOM      5  C   UNL     1      33.083 -13.045 -23.217  0.00  0.00    +0.065 C 
ATOM      6  C   UNL     1      32.337 -11.672 -21.244  0.00  0.00    +0.064 C 
ATOM      7  C   UNL     1      33.152 -11.956 -24.097  0.00  0.00    +0.044 C 
ATOM      8  C   UNL     1      32.302 -10.465 -21.958  0.00  0.00    +0.043 C 
ATOM      9  C   UNL     1      33.280 -14.330 -23.774  0.00  0.00    +0.030 C 
ATOM     10  C   UNL     1      31.943 -11.619 -19.886  0.00  0.00    +0.016 C 
ATOM     11  C   UNL     1      33.452 -12.157 -25.460  0.00  0.00    +0.009 C 
ATOM     12  C   UNL     1      33.572 -14.523 -25.127  0.00  0.00    +0.054 C 
ATOM     13  C   UNL     1      31.842  -9.282 -21.344  0.00  0.00    +0.008 C 
ATOM     14  C   UNL     1      33.665 -13.432 -25.972  0.00  0.00    +0.015 C 
ATOM     15  C   UNL     1      31.489 -10.443 -19.282  0.00  0.00    +0.001 C 
ATOM     16  C   UNL     1      31.430  -9.272 -20.016  0.00  0.00    +0.001 C 
ENDROOT
BRANCH  12  18
ATOM     17  O   UNL     1      35.295 -16.774 -24.131  0.00  0.00    -0.226 OA
ATOM     18  N   UNL     1      33.766 -15.811 -25.626  0.00  0.00    -0.250 N 
ATOM     19  C   UNL     1      34.581 -16.823 -25.125  0.00  0.00    +0.405 C 
ATOM     20  H   UNL     1      33.261 -16.034 -26.442  0.00  0.00    +0.158 HD
BRANCH  19  21
ATOM     21  O   UNL     1      34.472 -17.930 -25.926  0.00  0.00    -0.434 OA
BRANCH  21  22
ATOM     22  C   UNL     1      33.898 -19.092 -25.318  0.00  0.00    +0.210 C 
ATOM     23  C   UNL     1      34.969 -20.151 -25.169  0.00  0.00    +0.051 C 
ENDBRANCH  21  22
ENDBRANCH  19  21
ENDBRANCH  12  18
BRANCH   4  24
ATOM     24  C   UNL     1      34.226 -14.666 -20.871  0.00  0.00    +0.063 C 
BRANCH  24  25
ATOM     25  C   UNL     1      34.123 -15.979 -20.121  0.00  0.00    -0.067 C 
BRANCH  25  27
ATOM     26  O   UNL     1      35.064 -19.807 -21.561  0.00  0.00    -0.358 OA
ATOM     27  N   UNL     1      34.425 -17.085 -21.027  0.00  0.00    +0.391 N 
ATOM     28  C   UNL     1      33.419 -18.149 -20.904  0.00  0.00    -0.045 C 
ATOM     29  C   UNL     1      35.765 -17.627 -20.760  0.00  0.00    -0.045 C 
ATOM     30  C   UNL     1      33.761 -19.297 -21.849  0.00  0.00    +0.119 C 
ATOM     31  C   UNL     1      36.052 -18.787 -21.710  0.00  0.00    +0.119 C 
ATOM     32  H   UNL     1      34.403 -16.723 -21.980  0.00  0.00    -0.079 HD
ENDBRANCH  25  27
ENDBRANCH  24  25
ENDBRANCH   4  24
TORSDOF 6
ENDMDL
MODEL 8
REMARK VINA RESULT:      -7.6      2.542      8.005
REMARK  Name = 34633
REMARK  6 active torsions:
REMARK  status: ('A' for Active; 'I' for Inactive)
REMARK    1  A    between atoms: C_4  and  C_24
REMARK    2  A    between atoms: C_12  and  N_18
REMARK    3  A    between atoms: C_19  and  O_21
REMARK    4  A    between atoms: O_21  and  C_22
REMARK    5  A    between atoms: C_24  and  C_25
REMARK    6  A    between atoms: C_25  and  N_27
REMARK                            x       y       z     vdW  Elec       q    Type
REMARK                         _______ _______ _______ _____ _____    ______ ____
ROOT
ATOM      1  S   UNL     1      31.526  -9.425 -20.843  0.00  0.00    -0.084 S 
ATOM      2  O   UNL     1      34.897 -10.779 -24.900  0.00  0.00    -0.274 OA
ATOM      3  N   UNL     1      33.139 -10.554 -23.370  0.00  0.00    -0.236 N 
ATOM      4  C   UNL     1      33.755 -11.055 -24.530  0.00  0.00    +0.231 C 
ATOM      5  C   UNL     1      32.717 -11.473 -22.339  0.00  0.00    +0.065 C 
ATOM      6  C   UNL     1      33.027  -9.126 -23.193  0.00  0.00    +0.064 C 
ATOM      7  C   UNL     1      32.006 -11.087 -21.195  0.00  0.00    +0.044 C 
ATOM      8  C   UNL     1      32.376  -8.527 -22.104  0.00  0.00    +0.043 C 
ATOM      9  C   UNL     1      33.065 -12.840 -22.445  0.00  0.00    +0.030 C 
ATOM     10  C   UNL     1      33.557  -8.255 -24.175  0.00  0.00    +0.016 C 
ATOM     11  C   UNL     1      31.627 -12.046 -20.233  0.00  0.00    +0.009 C 
ATOM     12  C   UNL     1      32.691 -13.784 -21.486  0.00  0.00    +0.054 C 
ATOM     13  C   UNL     1      32.314  -7.123 -21.990  0.00  0.00    +0.008 C 
ATOM     14  C   UNL     1      31.963 -13.387 -20.378  0.00  0.00    +0.015 C 
ATOM     15  C   UNL     1      33.491  -6.864 -24.057  0.00  0.00    +0.001 C 
ATOM     16  C   UNL     1      32.875  -6.295 -22.957  0.00  0.00    +0.001 C 
ENDROOT
BRANCH  12  18
ATOM     17  O   UNL     1      34.928 -15.370 -20.258  0.00  0.00    -0.226 OA
ATOM     18  N   UNL     1      33.051 -15.123 -21.641  0.00  0.00    -0.250 N 
ATOM     19  C   UNL     1      34.103 -15.814 -21.046  0.00  0.00    +0.405 C 
ATOM     20  H   UNL     1      32.487 -15.648 -22.254  0.00  0.00    +0.158 HD
BRANCH  19  21
ATOM     21  O   UNL     1      34.092 -17.114 -21.478  0.00  0.00    -0.434 OA
BRANCH  21  22
ATOM     22  C   UNL     1      35.323 -17.832 -21.341  0.00  0.00    +0.210 C 
ATOM     23  C   UNL     1      35.018 -19.294 -21.099  0.00  0.00    +0.051 C 
ENDBRANCH  21  22
ENDBRANCH  19  21
ENDBRANCH  12  18
BRANCH   4  24
ATOM     24  C   UNL     1      32.858 -11.935 -25.373  0.00  0.00    +0.063 C 
BRANCH  24  25
ATOM     25  C   UNL     1      33.719 -12.926 -26.130  0.00  0.00    -0.067 C 
BRANCH  25  27
ATOM     26  O   UNL     1      33.606 -17.117 -25.921  0.00  0.00    -0.358 OA
ATOM     27  N   UNL     1      33.354 -14.287 -25.741  0.00  0.00    +0.391 N 
ATOM     28  C   UNL     1      34.509 -14.993 -25.170  0.00  0.00    -0.045 C 
ATOM     29  C   UNL     1      32.825 -15.035 -26.890  0.00  0.00    -0.045 C 
ATOM     30  C   UNL     1      34.109 -16.414 -24.783  0.00  0.00    +0.119 C 
ATOM     31  C   UNL     1      32.463 -16.454 -26.462  0.00  0.00    +0.119 C 
ATOM     32  H   UNL     1      32.626 -14.224 -25.029  0.00  0.00    -0.079 HD
ENDBRANCH  25  27
ENDBRANCH  24  25
ENDBRANCH   4  24
TORSDOF 6
ENDMDL
MODEL 9
REMARK VINA RESULT:      -7.3      9.756     13.682
REMARK  Name = 34633
REMARK  6 active torsions:
REMARK  status: ('A' for Active; 'I' for Inactive)
REMARK    1  A    between atoms: C_4  and  C_24
REMARK    2  A    between atoms: C_12  and  N_18
REMARK    3  A    between atoms: C_19  and  O_21
REMARK    4  A    between atoms: O_21  and  C_22
REMARK    5  A    between atoms: C_24  and  C_25
REMARK    6  A    between atoms: C_25  and  N_27
REMARK                            x       y       z     vdW  Elec       q    Type
REMARK                         _______ _______ _______ _____ _____    ______ ____
ROOT
ATOM      1  S   UNL     1      30.820 -24.542 -13.594  0.00  0.00    -0.084 S 
ATOM      2  O   UNL     1      32.396 -21.588 -17.889  0.00  0.00    -0.274 OA
ATOM      3  N   UNL     1      32.046 -23.209 -16.237  0.00  0.00    -0.236 N 
ATOM      4  C   UNL     1      32.582 -22.720 -17.441  0.00  0.00    +0.231 C 
ATOM      5  C   UNL     1      32.940 -23.634 -15.185  0.00  0.00    +0.065 C 
ATOM      6  C   UNL     1      30.616 -23.188 -16.042  0.00  0.00    +0.064 C 
ATOM      7  C   UNL     1      32.511 -24.228 -13.990  0.00  0.00    +0.044 C 
ATOM      8  C   UNL     1      29.979 -23.709 -14.905  0.00  0.00    +0.043 C 
ATOM      9  C   UNL     1      34.330 -23.410 -15.325  0.00  0.00    +0.030 C 
ATOM     10  C   UNL     1      29.779 -22.658 -17.053  0.00  0.00    +0.016 C 
ATOM     11  C   UNL     1      33.448 -24.618 -13.011  0.00  0.00    +0.009 C 
ATOM     12  C   UNL     1      35.252 -23.794 -14.349  0.00  0.00    +0.054 C 
ATOM     13  C   UNL     1      28.576 -23.645 -14.777  0.00  0.00    +0.008 C 
ATOM     14  C   UNL     1      34.810 -24.407 -13.189  0.00  0.00    +0.015 C 
ATOM     15  C   UNL     1      28.390 -22.598 -16.920  0.00  0.00    +0.001 C 
ATOM     16  C   UNL     1      27.786 -23.086 -15.775  0.00  0.00    +0.001 C 
ENDROOT
BRANCH  12  18
ATOM     17  O   UNL     1      37.414 -25.565 -15.452  0.00  0.00    -0.226 OA
ATOM     18  N   UNL     1      36.614 -23.559 -14.539  0.00  0.00    -0.250 N 
ATOM     19  C   UNL     1      37.580 -24.418 -15.057  0.00  0.00    +0.405 C 
ATOM     20  H   UNL     1      36.935 -22.668 -14.269  0.00  0.00    +0.158 HD
BRANCH  19  21
ATOM     21  O   UNL     1      38.793 -23.781 -15.066  0.00  0.00    -0.434 OA
BRANCH  21  22
ATOM     22  C   UNL     1      39.941 -24.618 -15.248  0.00  0.00    +0.210 C 
ATOM     23  C   UNL     1      40.221 -25.359 -13.959  0.00  0.00    +0.051 C 
ENDBRANCH  21  22
ENDBRANCH  19  21
ENDBRANCH  12  18
BRANCH   4  24
ATOM     24  C   UNL     1      33.373 -23.745 -18.225  0.00  0.00    +0.063 C 
BRANCH  24  25
ATOM     25  C   UNL     1      33.771 -23.140 -19.556  0.00  0.00    -0.067 C 
BRANCH  25  27
ATOM     26  O   UNL     1      36.833 -20.436 -18.593  0.00  0.00    -0.358 OA
ATOM     27  N   UNL     1      35.090 -22.522 -19.437  0.00  0.00    +0.391 N 
ATOM     28  C   UNL     1      35.463 -22.357 -18.025  0.00  0.00    -0.045 C 
ATOM     29  C   UNL     1      35.121 -21.222 -20.121  0.00  0.00    -0.045 C 
ATOM     30  C   UNL     1      36.837 -21.699 -17.926  0.00  0.00    +0.119 C 
ATOM     31  C   UNL     1      36.503 -20.592 -19.973  0.00  0.00    +0.119 C 
ATOM     32  H   UNL     1      35.767 -23.142 -19.883  0.00  0.00    -0.079 HD
ENDBRANCH  25  27
ENDBRANCH  24  25
ENDBRANCH   4  24
TORSDOF 6
ENDMDL
