MODEL 1
REMARK VINA RESULT:      -9.8      0.000      0.000
REMARK  Name = 4680
REMARK  6 active torsions:
REMARK  status: ('A' for Active; 'I' for Inactive)
REMARK    1  A    between atoms: C_3  and  C_15
REMARK    2  A    between atoms: C_7  and  O_11
REMARK    3  A    between atoms: C_9  and  O_13
REMARK    4  A    between atoms: C_15  and  C_16
REMARK    5  A    between atoms: C_19  and  O_22
REMARK    6  A    between atoms: C_20  and  O_24
REMARK                            x       y       z     vdW  Elec       q    Type
REMARK                         _______ _______ _______ _____ _____    ______ ____
ROOT
ATOM      1  N   UNL     1      34.930 -16.997 -20.559  0.00  0.00    -0.248 NA
ATOM      2  C   UNL     1      34.426 -16.142 -22.779  0.00  0.00    +0.017 C 
ATOM      3  C   UNL     1      34.768 -17.164 -21.891  0.00  0.00    +0.063 C 
ATOM      4  C   UNL     1      34.239 -14.850 -22.244  0.00  0.00    +0.006 C 
ATOM      5  C   UNL     1      34.267 -16.357 -24.158  0.00  0.00    +0.041 C 
ATOM      6  C   UNL     1      33.895 -13.797 -23.107  0.00  0.00    +0.040 C 
ATOM      7  C   UNL     1      33.925 -15.300 -25.000  0.00  0.00    +0.172 C 
ATOM      8  C   UNL     1      34.402 -14.658 -20.867  0.00  0.00    +0.021 C 
ATOM      9  C   UNL     1      33.740 -14.023 -24.476  0.00  0.00    +0.172 C 
ATOM     10  C   UNL     1      34.742 -15.748 -20.082  0.00  0.00    +0.098 C 
ENDROOT
BRANCH   7  11
ATOM     11  O   UNL     1      33.776 -15.528 -26.335  0.00  0.00    -0.468 OA
ATOM     12  C   UNL     1      32.463 -15.839 -26.796  0.00  0.00    +0.253 C 
ENDBRANCH   7  11
BRANCH   9  13
ATOM     13  O   UNL     1      33.406 -12.982 -25.290  0.00  0.00    -0.468 OA
ATOM     14  C   UNL     1      33.940 -11.702 -24.959  0.00  0.00    +0.253 C 
ENDBRANCH   9  13
BRANCH   3  15
ATOM     15  C   UNL     1      34.986 -18.565 -22.367  0.00  0.00    +0.072 C 
BRANCH  15  16
ATOM     16  C   UNL     1      34.756 -19.615 -21.301  0.00  0.00    -0.013 C 
ATOM     17  C   UNL     1      35.848 -20.197 -20.680  0.00  0.00    +0.036 C 
ATOM     18  C   UNL     1      33.459 -19.969 -20.970  0.00  0.00    -0.001 C 
ATOM     19  C   UNL     1      35.635 -21.164 -19.698  0.00  0.00    +0.172 C 
ATOM     20  C   UNL     1      34.335 -21.534 -19.351  0.00  0.00    +0.172 C 
ATOM     21  C   UNL     1      33.247 -20.936 -19.988  0.00  0.00    +0.040 C 
BRANCH  19  22
ATOM     22  O   UNL     1      36.706 -21.740 -19.082  0.00  0.00    -0.468 OA
ATOM     23  C   UNL     1      36.900 -21.435 -17.702  0.00  0.00    +0.253 C 
ENDBRANCH  19  22
BRANCH  20  24
ATOM     24  O   UNL     1      34.116 -22.476 -18.393  0.00  0.00    -0.468 OA
ATOM     25  C   UNL     1      32.790 -22.583 -17.879  0.00  0.00    +0.253 C 
ENDBRANCH  20  24
ENDBRANCH  15  16
ENDBRANCH   3  15
TORSDOF 6
ENDMDL
MODEL 2
REMARK VINA RESULT:      -9.6      4.438      8.949
REMARK  Name = 4680
REMARK  6 active torsions:
REMARK  status: ('A' for Active; 'I' for Inactive)
REMARK    1  A    between atoms: C_3  and  C_15
REMARK    2  A    between atoms: C_7  and  O_11
REMARK    3  A    between atoms: C_9  and  O_13
REMARK    4  A    between atoms: C_15  and  C_16
REMARK    5  A    between atoms: C_19  and  O_22
REMARK    6  A    between atoms: C_20  and  O_24
REMARK                            x       y       z     vdW  Elec       q    Type
REMARK                         _______ _______ _______ _____ _____    ______ ____
ROOT
ATOM      1  N   UNL     1      32.458 -13.279 -20.963  0.00  0.00    -0.248 NA
ATOM      2  C   UNL     1      32.973 -14.198 -23.155  0.00  0.00    +0.017 C 
ATOM      3  C   UNL     1      32.402 -13.241 -22.313  0.00  0.00    +0.063 C 
ATOM      4  C   UNL     1      33.653 -15.275 -22.549  0.00  0.00    +0.006 C 
ATOM      5  C   UNL     1      32.892 -14.121 -24.555  0.00  0.00    +0.041 C 
ATOM      6  C   UNL     1      34.239 -16.257 -23.364  0.00  0.00    +0.040 C 
ATOM      7  C   UNL     1      33.481 -15.105 -25.349  0.00  0.00    +0.172 C 
ATOM      8  C   UNL     1      33.722 -15.332 -21.152  0.00  0.00    +0.021 C 
ATOM      9  C   UNL     1      34.153 -16.170 -24.755  0.00  0.00    +0.172 C 
ATOM     10  C   UNL     1      33.118 -14.325 -20.418  0.00  0.00    +0.098 C 
ENDROOT
BRANCH   7  11
ATOM     11  O   UNL     1      33.391 -15.013 -26.706  0.00  0.00    -0.468 OA
ATOM     12  C   UNL     1      33.383 -13.702 -27.267  0.00  0.00    +0.253 C 
ENDBRANCH   7  11
BRANCH   9  13
ATOM     13  O   UNL     1      34.732 -17.137 -25.521  0.00  0.00    -0.468 OA
ATOM     14  C   UNL     1      34.506 -18.492 -25.135  0.00  0.00    +0.253 C 
ENDBRANCH   9  13
BRANCH   3  15
ATOM     15  C   UNL     1      31.662 -12.064 -22.865  0.00  0.00    +0.072 C 
BRANCH  15  16
ATOM     16  C   UNL     1      32.523 -10.832 -23.045  0.00  0.00    -0.013 C 
ATOM     17  C   UNL     1      32.227  -9.691 -22.320  0.00  0.00    +0.036 C 
ATOM     18  C   UNL     1      33.586 -10.874 -23.930  0.00  0.00    -0.001 C 
ATOM     19  C   UNL     1      33.020  -8.555 -22.486  0.00  0.00    +0.172 C 
ATOM     20  C   UNL     1      34.096  -8.579 -23.374  0.00  0.00    +0.172 C 
ATOM     21  C   UNL     1      34.379  -9.739 -24.096  0.00  0.00    +0.040 C 
BRANCH  19  22
ATOM     22  O   UNL     1      32.734  -7.429 -21.775  0.00  0.00    -0.468 OA
ATOM     23  C   UNL     1      32.642  -7.564 -20.358  0.00  0.00    +0.253 C 
ENDBRANCH  19  22
BRANCH  20  24
ATOM     24  O   UNL     1      34.878  -7.476 -23.543  0.00  0.00    -0.468 OA
ATOM     25  C   UNL     1      34.604  -6.655 -24.676  0.00  0.00    +0.253 C 
ENDBRANCH  20  24
ENDBRANCH  15  16
ENDBRANCH   3  15
TORSDOF 6
ENDMDL
MODEL 3
REMARK VINA RESULT:      -9.3      3.680      6.352
REMARK  Name = 4680
REMARK  6 active torsions:
REMARK  status: ('A' for Active; 'I' for Inactive)
REMARK    1  A    between atoms: C_3  and  C_15
REMARK    2  A    between atoms: C_7  and  O_11
REMARK    3  A    between atoms: C_9  and  O_13
REMARK    4  A    between atoms: C_15  and  C_16
REMARK    5  A    between atoms: C_19  and  O_22
REMARK    6  A    between atoms: C_20  and  O_24
REMARK                            x       y       z     vdW  Elec       q    Type
REMARK                         _______ _______ _______ _____ _____    ______ ____
ROOT
ATOM      1  N   UNL     1      33.828 -12.327 -24.925  0.00  0.00    -0.248 NA
ATOM      2  C   UNL     1      32.731 -11.279 -23.025  0.00  0.00    +0.017 C 
ATOM      3  C   UNL     1      32.998 -12.367 -23.858  0.00  0.00    +0.063 C 
ATOM      4  C   UNL     1      33.372 -10.058 -23.322  0.00  0.00    +0.006 C 
ATOM      5  C   UNL     1      31.862 -11.361 -21.925  0.00  0.00    +0.041 C 
ATOM      6  C   UNL     1      33.128  -8.941 -22.507  0.00  0.00    +0.040 C 
ATOM      7  C   UNL     1      31.630 -10.242 -21.125  0.00  0.00    +0.172 C 
ATOM      8  C   UNL     1      34.235  -9.997 -24.423  0.00  0.00    +0.021 C 
ATOM      9  C   UNL     1      32.262  -9.035 -21.416  0.00  0.00    +0.172 C 
ATOM     10  C   UNL     1      34.425 -11.143 -25.179  0.00  0.00    +0.098 C 
ENDROOT
BRANCH   7  11
ATOM     11  O   UNL     1      30.783 -10.342 -20.062  0.00  0.00    -0.468 OA
ATOM     12  C   UNL     1      31.329 -10.843 -18.844  0.00  0.00    +0.253 C 
ENDBRANCH   7  11
BRANCH   9  13
ATOM     13  O   UNL     1      32.043  -7.936 -20.641  0.00  0.00    -0.468 OA
ATOM     14  C   UNL     1      31.994  -6.674 -21.305  0.00  0.00    +0.253 C 
ENDBRANCH   9  13
BRANCH   3  15
ATOM     15  C   UNL     1      32.364 -13.701 -23.620  0.00  0.00    +0.072 C 
BRANCH  15  16
ATOM     16  C   UNL     1      33.322 -14.745 -23.088  0.00  0.00    -0.013 C 
ATOM     17  C   UNL     1      33.848 -15.684 -23.959  0.00  0.00    +0.036 C 
ATOM     18  C   UNL     1      33.650 -14.738 -21.743  0.00  0.00    -0.001 C 
ATOM     19  C   UNL     1      34.730 -16.647 -23.468  0.00  0.00    +0.172 C 
ATOM     20  C   UNL     1      35.072 -16.655 -22.115  0.00  0.00    +0.172 C 
ATOM     21  C   UNL     1      34.532 -15.701 -21.253  0.00  0.00    +0.040 C 
BRANCH  19  22
ATOM     22  O   UNL     1      35.253 -17.572 -24.320  0.00  0.00    -0.468 OA
ATOM     23  C   UNL     1      34.349 -18.528 -24.872  0.00  0.00    +0.253 C 
ENDBRANCH  19  22
BRANCH  20  24
ATOM     24  O   UNL     1      35.934 -17.590 -21.626  0.00  0.00    -0.468 OA
ATOM     25  C   UNL     1      35.368 -18.817 -21.168  0.00  0.00    +0.253 C 
ENDBRANCH  20  24
ENDBRANCH  15  16
ENDBRANCH   3  15
TORSDOF 6
ENDMDL
MODEL 4
REMARK VINA RESULT:      -9.3      3.488      9.234
REMARK  Name = 4680
REMARK  6 active torsions:
REMARK  status: ('A' for Active; 'I' for Inactive)
REMARK    1  A    between atoms: C_3  and  C_15
REMARK    2  A    between atoms: C_7  and  O_11
REMARK    3  A    between atoms: C_9  and  O_13
REMARK    4  A    between atoms: C_15  and  C_16
REMARK    5  A    between atoms: C_19  and  O_22
REMARK    6  A    between atoms: C_20  and  O_24
REMARK                            x       y       z     vdW  Elec       q    Type
REMARK                         _______ _______ _______ _____ _____    ______ ____
ROOT
ATOM      1  N   UNL     1      35.946 -22.399 -17.745  0.00  0.00    -0.248 NA
ATOM      2  C   UNL     1      33.718 -22.933 -16.929  0.00  0.00    +0.017 C 
ATOM      3  C   UNL     1      34.633 -22.655 -17.946  0.00  0.00    +0.063 C 
ATOM      4  C   UNL     1      34.201 -22.947 -15.604  0.00  0.00    +0.006 C 
ATOM      5  C   UNL     1      32.361 -23.194 -17.181  0.00  0.00    +0.041 C 
ATOM      6  C   UNL     1      33.310 -23.223 -14.555  0.00  0.00    +0.040 C 
ATOM      7  C   UNL     1      31.489 -23.466 -16.127  0.00  0.00    +0.172 C 
ATOM      8  C   UNL     1      35.557 -22.685 -15.375  0.00  0.00    +0.021 C 
ATOM      9  C   UNL     1      31.963 -23.480 -14.817  0.00  0.00    +0.172 C 
ATOM     10  C   UNL     1      36.373 -22.422 -16.464  0.00  0.00    +0.098 C 
ENDROOT
BRANCH   7  11
ATOM     11  O   UNL     1      30.176 -23.716 -16.391  0.00  0.00    -0.468 OA
ATOM     12  C   UNL     1      29.297 -22.594 -16.422  0.00  0.00    +0.253 C 
ENDBRANCH   7  11
BRANCH   9  13
ATOM     13  O   UNL     1      31.120 -23.745 -13.779  0.00  0.00    -0.468 OA
ATOM     14  C   UNL     1      30.984 -25.109 -13.386  0.00  0.00    +0.253 C 
ENDBRANCH   9  13
BRANCH   3  15
ATOM     15  C   UNL     1      34.212 -22.619 -19.381  0.00  0.00    +0.072 C 
BRANCH  15  16
ATOM     16  C   UNL     1      34.161 -21.225 -19.968  0.00  0.00    -0.013 C 
ATOM     17  C   UNL     1      35.340 -20.614 -20.359  0.00  0.00    +0.036 C 
ATOM     18  C   UNL     1      32.937 -20.592 -20.099  0.00  0.00    -0.001 C 
ATOM     19  C   UNL     1      35.293 -19.328 -20.899  0.00  0.00    +0.172 C 
ATOM     20  C   UNL     1      34.068 -18.675 -21.039  0.00  0.00    +0.172 C 
ATOM     21  C   UNL     1      32.890 -19.306 -20.639  0.00  0.00    +0.040 C 
BRANCH  19  22
ATOM     22  O   UNL     1      36.449 -18.722 -21.288  0.00  0.00    -0.468 OA
ATOM     23  C   UNL     1      36.610 -18.467 -22.682  0.00  0.00    +0.253 C 
ENDBRANCH  19  22
BRANCH  20  24
ATOM     24  O   UNL     1      34.010 -17.420 -21.567  0.00  0.00    -0.468 OA
ATOM     25  C   UNL     1      34.215 -16.330 -20.670  0.00  0.00    +0.253 C 
ENDBRANCH  20  24
ENDBRANCH  15  16
ENDBRANCH   3  15
TORSDOF 6
ENDMDL
MODEL 5
REMARK VINA RESULT:      -9.1      4.399      8.720
REMARK  Name = 4680
REMARK  6 active torsions:
REMARK  status: ('A' for Active; 'I' for Inactive)
REMARK    1  A    between atoms: C_3  and  C_15
REMARK    2  A    between atoms: C_7  and  O_11
REMARK    3  A    between atoms: C_9  and  O_13
REMARK    4  A    between atoms: C_15  and  C_16
REMARK    5  A    between atoms: C_19  and  O_22
REMARK    6  A    between atoms: C_20  and  O_24
REMARK                            x       y       z     vdW  Elec       q    Type
REMARK                         _______ _______ _______ _____ _____    ______ ____
ROOT
ATOM      1  N   UNL     1      32.426 -13.495 -20.909  0.00  0.00    -0.248 NA
ATOM      2  C   UNL     1      32.990 -14.371 -23.106  0.00  0.00    +0.017 C 
ATOM      3  C   UNL     1      32.363 -13.455 -22.259  0.00  0.00    +0.063 C 
ATOM      4  C   UNL     1      33.737 -15.407 -22.507  0.00  0.00    +0.006 C 
ATOM      5  C   UNL     1      32.900 -14.294 -24.506  0.00  0.00    +0.041 C 
ATOM      6  C   UNL     1      34.380 -16.347 -23.328  0.00  0.00    +0.040 C 
ATOM      7  C   UNL     1      33.546 -15.236 -25.306  0.00  0.00    +0.172 C 
ATOM      8  C   UNL     1      33.814 -15.465 -21.111  0.00  0.00    +0.021 C 
ATOM      9  C   UNL     1      34.284 -16.260 -24.718  0.00  0.00    +0.172 C 
ATOM     10  C   UNL     1      33.151 -14.500 -20.371  0.00  0.00    +0.098 C 
ENDROOT
BRANCH   7  11
ATOM     11  O   UNL     1      33.446 -15.145 -26.662  0.00  0.00    -0.468 OA
ATOM     12  C   UNL     1      33.269 -13.841 -27.212  0.00  0.00    +0.253 C 
ENDBRANCH   7  11
BRANCH   9  13
ATOM     13  O   UNL     1      34.919 -17.187 -25.490  0.00  0.00    -0.468 OA
ATOM     14  C   UNL     1      34.648 -18.559 -25.211  0.00  0.00    +0.253 C 
ENDBRANCH   9  13
BRANCH   3  15
ATOM     15  C   UNL     1      31.551 -12.323 -22.804  0.00  0.00    +0.072 C 
BRANCH  15  16
ATOM     16  C   UNL     1      31.910 -10.976 -22.217  0.00  0.00    -0.013 C 
ATOM     17  C   UNL     1      32.648 -10.084 -22.976  0.00  0.00    +0.036 C 
ATOM     18  C   UNL     1      31.492 -10.665 -20.934  0.00  0.00    -0.001 C 
ATOM     19  C   UNL     1      32.980  -8.842 -22.434  0.00  0.00    +0.172 C 
ATOM     20  C   UNL     1      32.567  -8.511 -21.142  0.00  0.00    +0.172 C 
ATOM     21  C   UNL     1      31.824  -9.423 -20.392  0.00  0.00    +0.040 C 
BRANCH  19  22
ATOM     22  O   UNL     1      33.705  -7.959 -23.176  0.00  0.00    -0.468 OA
ATOM     23  C   UNL     1      34.728  -8.501 -24.010  0.00  0.00    +0.253 C 
ENDBRANCH  19  22
BRANCH  20  24
ATOM     24  O   UNL     1      32.885  -7.301 -20.604  0.00  0.00    -0.468 OA
ATOM     25  C   UNL     1      31.944  -6.244 -20.785  0.00  0.00    +0.253 C 
ENDBRANCH  20  24
ENDBRANCH  15  16
ENDBRANCH   3  15
TORSDOF 6
ENDMDL
MODEL 6
REMARK VINA RESULT:      -9.1      3.934      6.993
REMARK  Name = 4680
REMARK  6 active torsions:
REMARK  status: ('A' for Active; 'I' for Inactive)
REMARK    1  A    between atoms: C_3  and  C_15
REMARK    2  A    between atoms: C_7  and  O_11
REMARK    3  A    between atoms: C_9  and  O_13
REMARK    4  A    between atoms: C_15  and  C_16
REMARK    5  A    between atoms: C_19  and  O_22
REMARK    6  A    between atoms: C_20  and  O_24
REMARK                            x       y       z     vdW  Elec       q    Type
REMARK                         _______ _______ _______ _____ _____    ______ ____
ROOT
ATOM      1  N   UNL     1      34.275 -11.819 -25.169  0.00  0.00    -0.248 NA
ATOM      2  C   UNL     1      33.301 -10.423 -23.433  0.00  0.00    +0.017 C 
ATOM      3  C   UNL     1      33.431 -11.626 -24.131  0.00  0.00    +0.063 C 
ATOM      4  C   UNL     1      34.105  -9.341 -23.845  0.00  0.00    +0.006 C 
ATOM      5  C   UNL     1      32.411 -10.263 -22.358  0.00  0.00    +0.041 C 
ATOM      6  C   UNL     1      34.001  -8.115 -23.167  0.00  0.00    +0.040 C 
ATOM      7  C   UNL     1      32.320  -9.039 -21.696  0.00  0.00    +0.172 C 
ATOM      8  C   UNL     1      34.986  -9.522 -24.918  0.00  0.00    +0.021 C 
ATOM      9  C   UNL     1      33.113  -7.968 -22.100  0.00  0.00    +0.172 C 
ATOM     10  C   UNL     1      35.031 -10.761 -25.535  0.00  0.00    +0.098 C 
ENDROOT
BRANCH   7  11
ATOM     11  O   UNL     1      31.451  -8.903 -20.655  0.00  0.00    -0.468 OA
ATOM     12  C   UNL     1      31.748  -9.629 -19.464  0.00  0.00    +0.253 C 
ENDBRANCH   7  11
BRANCH   9  13
ATOM     13  O   UNL     1      33.033  -6.767 -21.460  0.00  0.00    -0.468 OA
ATOM     14  C   UNL     1      32.089  -5.825 -21.965  0.00  0.00    +0.253 C 
ENDBRANCH   9  13
BRANCH   3  15
ATOM     15  C   UNL     1      32.619 -12.828 -23.765  0.00  0.00    +0.072 C 
BRANCH  15  16
ATOM     16  C   UNL     1      33.297 -14.142 -24.085  0.00  0.00    -0.013 C 
ATOM     17  C   UNL     1      34.086 -14.746 -23.121  0.00  0.00    +0.036 C 
ATOM     18  C   UNL     1      33.114 -14.711 -25.333  0.00  0.00    -0.001 C 
ATOM     19  C   UNL     1      34.712 -15.958 -23.416  0.00  0.00    +0.172 C 
ATOM     20  C   UNL     1      34.538 -16.546 -24.669  0.00  0.00    +0.172 C 
ATOM     21  C   UNL     1      33.740 -15.923 -25.628  0.00  0.00    +0.040 C 
BRANCH  19  22
ATOM     22  O   UNL     1      35.488 -16.558 -22.471  0.00  0.00    -0.468 OA
ATOM     23  C   UNL     1      34.906 -16.757 -21.184  0.00  0.00    +0.253 C 
ENDBRANCH  19  22
BRANCH  20  24
ATOM     24  O   UNL     1      35.143 -17.730 -24.967  0.00  0.00    -0.468 OA
ATOM     25  C   UNL     1      34.403 -18.920 -24.706  0.00  0.00    +0.253 C 
ENDBRANCH  20  24
ENDBRANCH  15  16
ENDBRANCH   3  15
TORSDOF 6
ENDMDL
MODEL 7
REMARK VINA RESULT:      -9.1      3.480      9.822
REMARK  Name = 4680
REMARK  6 active torsions:
REMARK  status: ('A' for Active; 'I' for Inactive)
REMARK    1  A    between atoms: C_3  and  C_15
REMARK    2  A    between atoms: C_7  and  O_11
REMARK    3  A    between atoms: C_9  and  O_13
REMARK    4  A    between atoms: C_15  and  C_16
REMARK    5  A    between atoms: C_19  and  O_22
REMARK    6  A    between atoms: C_20  and  O_24
REMARK                            x       y       z     vdW  Elec       q    Type
REMARK                         _______ _______ _______ _____ _____    ______ ____
ROOT
ATOM      1  N   UNL     1      36.207 -22.051 -17.995  0.00  0.00    -0.248 NA
ATOM      2  C   UNL     1      34.829 -23.063 -16.266  0.00  0.00    +0.017 C 
ATOM      3  C   UNL     1      35.042 -22.581 -17.559  0.00  0.00    +0.063 C 
ATOM      4  C   UNL     1      35.905 -22.990 -15.357  0.00  0.00    +0.006 C 
ATOM      5  C   UNL     1      33.601 -23.607 -15.852  0.00  0.00    +0.041 C 
ATOM      6  C   UNL     1      35.728 -23.465 -14.048  0.00  0.00    +0.040 C 
ATOM      7  C   UNL     1      33.442 -24.074 -14.548  0.00  0.00    +0.172 C 
ATOM      8  C   UNL     1      37.120 -22.446 -15.790  0.00  0.00    +0.021 C 
ATOM      9  C   UNL     1      34.503 -24.004 -13.648  0.00  0.00    +0.172 C 
ATOM     10  C   UNL     1      37.216 -21.998 -17.098  0.00  0.00    +0.098 C 
ENDROOT
BRANCH   7  11
ATOM     11  O   UNL     1      32.244 -24.598 -14.165  0.00  0.00    -0.468 OA
ATOM     12  C   UNL     1      31.223 -23.674 -13.793  0.00  0.00    +0.253 C 
ENDBRANCH   7  11
BRANCH   9  13
ATOM     13  O   UNL     1      34.359 -24.457 -12.371  0.00  0.00    -0.468 OA
ATOM     14  C   UNL     1      35.524 -24.460 -11.548  0.00  0.00    +0.253 C 
ENDBRANCH   9  13
BRANCH   3  15
ATOM     15  C   UNL     1      33.959 -22.617 -18.590  0.00  0.00    +0.072 C 
BRANCH  15  16
ATOM     16  C   UNL     1      33.929 -21.399 -19.487  0.00  0.00    -0.013 C 
ATOM     17  C   UNL     1      35.109 -20.950 -20.054  0.00  0.00    +0.036 C 
ATOM     18  C   UNL     1      32.723 -20.761 -19.721  0.00  0.00    -0.001 C 
ATOM     19  C   UNL     1      35.082 -19.827 -20.881  0.00  0.00    +0.172 C 
ATOM     20  C   UNL     1      33.876 -19.171 -21.128  0.00  0.00    +0.172 C 
ATOM     21  C   UNL     1      32.696 -19.638 -20.548  0.00  0.00    +0.040 C 
BRANCH  19  22
ATOM     22  O   UNL     1      36.240 -19.381 -21.444  0.00  0.00    -0.468 OA
ATOM     23  C   UNL     1      37.420 -19.457 -20.645  0.00  0.00    +0.253 C 
ENDBRANCH  19  22
BRANCH  20  24
ATOM     24  O   UNL     1      33.837 -18.074 -21.935  0.00  0.00    -0.468 OA
ATOM     25  C   UNL     1      34.049 -16.807 -21.316  0.00  0.00    +0.253 C 
ENDBRANCH  20  24
ENDBRANCH  15  16
ENDBRANCH   3  15
TORSDOF 6
ENDMDL
MODEL 8
REMARK VINA RESULT:      -9.1      3.079      9.026
REMARK  Name = 4680
REMARK  6 active torsions:
REMARK  status: ('A' for Active; 'I' for Inactive)
REMARK    1  A    between atoms: C_3  and  C_15
REMARK    2  A    between atoms: C_7  and  O_11
REMARK    3  A    between atoms: C_9  and  O_13
REMARK    4  A    between atoms: C_15  and  C_16
REMARK    5  A    between atoms: C_19  and  O_22
REMARK    6  A    between atoms: C_20  and  O_24
REMARK                            x       y       z     vdW  Elec       q    Type
REMARK                         _______ _______ _______ _____ _____    ______ ____
ROOT
ATOM      1  N   UNL     1      32.281 -12.786 -21.756  0.00  0.00    -0.248 NA
ATOM      2  C   UNL     1      33.466 -14.743 -22.579  0.00  0.00    +0.017 C 
ATOM      3  C   UNL     1      32.896 -13.479 -22.741  0.00  0.00    +0.063 C 
ATOM      4  C   UNL     1      33.391 -15.333 -21.300  0.00  0.00    +0.006 C 
ATOM      5  C   UNL     1      34.097 -15.431 -23.629  0.00  0.00    +0.041 C 
ATOM      6  C   UNL     1      33.953 -16.604 -21.100  0.00  0.00    +0.040 C 
ATOM      7  C   UNL     1      34.650 -16.692 -23.413  0.00  0.00    +0.172 C 
ATOM      8  C   UNL     1      32.759 -14.631 -20.267  0.00  0.00    +0.021 C 
ATOM      9  C   UNL     1      34.578 -17.278 -22.151  0.00  0.00    +0.172 C 
ATOM     10  C   UNL     1      32.229 -13.381 -20.544  0.00  0.00    +0.098 C 
ENDROOT
BRANCH   7  11
ATOM     11  O   UNL     1      35.257 -17.343 -24.444  0.00  0.00    -0.468 OA
ATOM     12  C   UNL     1      34.452 -18.238 -25.209  0.00  0.00    +0.253 C 
ENDBRANCH   7  11
BRANCH   9  13
ATOM     13  O   UNL     1      35.115 -18.510 -21.928  0.00  0.00    -0.468 OA
ATOM     14  C   UNL     1      34.239 -19.519 -21.429  0.00  0.00    +0.253 C 
ENDBRANCH   9  13
BRANCH   3  15
ATOM     15  C   UNL     1      32.927 -12.776 -24.061  0.00  0.00    +0.072 C 
BRANCH  15  16
ATOM     16  C   UNL     1      33.430 -11.351 -23.981  0.00  0.00    -0.013 C 
ATOM     17  C   UNL     1      32.725 -10.427 -23.229  0.00  0.00    +0.036 C 
ATOM     18  C   UNL     1      34.584 -11.003 -24.662  0.00  0.00    -0.001 C 
ATOM     19  C   UNL     1      33.188  -9.114 -23.157  0.00  0.00    +0.172 C 
ATOM     20  C   UNL     1      34.350  -8.745 -23.836  0.00  0.00    +0.172 C 
ATOM     21  C   UNL     1      35.047  -9.689 -24.589  0.00  0.00    +0.040 C 
BRANCH  19  22
ATOM     22  O   UNL     1      32.500  -8.200 -22.417  0.00  0.00    -0.468 OA
ATOM     23  C   UNL     1      32.628  -8.285 -20.999  0.00  0.00    +0.253 C 
ENDBRANCH  19  22
BRANCH  20  24
ATOM     24  O   UNL     1      34.812  -7.465 -23.771  0.00  0.00    -0.468 OA
ATOM     25  C   UNL     1      34.468  -6.596 -24.848  0.00  0.00    +0.253 C 
ENDBRANCH  20  24
ENDBRANCH  15  16
ENDBRANCH   3  15
TORSDOF 6
ENDMDL
MODEL 9
REMARK VINA RESULT:      -9.1      2.248      8.757
REMARK  Name = 4680
REMARK  6 active torsions:
REMARK  status: ('A' for Active; 'I' for Inactive)
REMARK    1  A    between atoms: C_3  and  C_15
REMARK    2  A    between atoms: C_7  and  O_11
REMARK    3  A    between atoms: C_9  and  O_13
REMARK    4  A    between atoms: C_15  and  C_16
REMARK    5  A    between atoms: C_19  and  O_22
REMARK    6  A    between atoms: C_20  and  O_24
REMARK                            x       y       z     vdW  Elec       q    Type
REMARK                         _______ _______ _______ _____ _____    ______ ____
ROOT
ATOM      1  N   UNL     1      36.027 -20.506 -19.985  0.00  0.00    -0.248 NA
ATOM      2  C   UNL     1      34.503 -21.827 -18.627  0.00  0.00    +0.017 C 
ATOM      3  C   UNL     1      34.801 -21.010 -19.719  0.00  0.00    +0.063 C 
ATOM      4  C   UNL     1      35.556 -22.145 -17.744  0.00  0.00    +0.006 C 
ATOM      5  C   UNL     1      33.214 -22.331 -18.386  0.00  0.00    +0.041 C 
ATOM      6  C   UNL     1      35.294 -22.964 -16.634  0.00  0.00    +0.040 C 
ATOM      7  C   UNL     1      32.971 -23.143 -17.279  0.00  0.00    +0.172 C 
ATOM      8  C   UNL     1      36.833 -21.633 -18.002  0.00  0.00    +0.021 C 
ATOM      9  C   UNL     1      34.008 -23.459 -16.405  0.00  0.00    +0.172 C 
ATOM     10  C   UNL     1      37.012 -20.832 -19.119  0.00  0.00    +0.098 C 
ENDROOT
BRANCH   7  11
ATOM     11  O   UNL     1      31.713 -23.622 -17.063  0.00  0.00    -0.468 OA
ATOM     12  C   UNL     1      30.822 -22.790 -16.322  0.00  0.00    +0.253 C 
ENDBRANCH   7  11
BRANCH   9  13
ATOM     13  O   UNL     1      33.782 -24.252 -15.320  0.00  0.00    -0.468 OA
ATOM     14  C   UNL     1      34.413 -23.875 -14.098  0.00  0.00    +0.253 C 
ENDBRANCH   9  13
BRANCH   3  15
ATOM     15  C   UNL     1      33.749 -20.621 -20.708  0.00  0.00    +0.072 C 
BRANCH  15  16
ATOM     16  C   UNL     1      34.082 -19.371 -21.493  0.00  0.00    -0.013 C 
ATOM     17  C   UNL     1      33.884 -18.133 -20.907  0.00  0.00    +0.036 C 
ATOM     18  C   UNL     1      34.576 -19.493 -22.780  0.00  0.00    -0.001 C 
ATOM     19  C   UNL     1      34.191 -16.981 -21.631  0.00  0.00    +0.172 C 
ATOM     20  C   UNL     1      34.690 -17.085 -22.930  0.00  0.00    +0.172 C 
ATOM     21  C   UNL     1      34.883 -18.341 -23.505  0.00  0.00    +0.040 C 
BRANCH  19  22
ATOM     22  O   UNL     1      34.000 -15.759 -21.059  0.00  0.00    -0.468 OA
ATOM     23  C   UNL     1      32.662 -15.268 -21.010  0.00  0.00    +0.253 C 
ENDBRANCH  19  22
BRANCH  20  24
ATOM     24  O   UNL     1      34.994 -15.966 -23.645  0.00  0.00    -0.468 OA
ATOM     25  C   UNL     1      34.003 -15.487 -24.551  0.00  0.00    +0.253 C 
ENDBRANCH  20  24
ENDBRANCH  15  16
ENDBRANCH   3  15
TORSDOF 6
ENDMDL
