MODEL 1
REMARK VINA RESULT:      -6.9      0.000      0.000
REMARK  Name = 445892
REMARK  3 active torsions:
REMARK  status: ('A' for Active; 'I' for Inactive)
REMARK    1  A    between atoms: C_1  and  C_9
REMARK    2  A    between atoms: C_4  and  O_7
REMARK    3  A    between atoms: C_9  and  N_11
REMARK                            x       y       z     vdW  Elec       q    Type
REMARK                         _______ _______ _______ _____ _____    ______ ____
ROOT
ATOM      1  C   UNL     1      34.613 -19.619 -21.152  0.00  0.00    -0.039 C 
ATOM      2  C   UNL     1      33.520 -20.264 -20.603  0.00  0.00    +0.030 C 
ATOM      3  C   UNL     1      35.907 -19.938 -20.784  0.00  0.00    -0.006 C 
ATOM      4  C   UNL     1      33.727 -21.261 -19.651  0.00  0.00    +0.133 C 
ATOM      5  C   UNL     1      36.115 -20.937 -19.832  0.00  0.00    +0.003 C 
ATOM      6  C   UNL     1      35.025 -21.599 -19.266  0.00  0.00    +0.037 C 
ENDROOT
BRANCH   4   7
ATOM      7  O   UNL     1      32.665 -21.907 -19.099  0.00  0.00    -0.506 OA
ATOM      8  H   UNL     1      32.307 -22.665 -19.520  0.00  0.00    +0.292 HD
ENDBRANCH   4   7
BRANCH   1   9
ATOM      9  C   UNL     1      34.387 -18.533 -22.186  0.00  0.00    -0.035 C 
ATOM     10  C   UNL     1      34.674 -19.032 -23.604  0.00  0.00    -0.018 C 
BRANCH   9  11
ATOM     11  N   UNL     1      35.204 -17.352 -21.910  0.00  0.00    +0.388 N 
ATOM     12  C   UNL     1      34.590 -16.541 -20.860  0.00  0.00    -0.100 C 
ATOM     13  C   UNL     1      35.383 -16.560 -23.128  0.00  0.00    -0.100 C 
ATOM     14  H   UNL     1      36.120 -17.660 -21.587  0.00  0.00    -0.079 HD
ENDBRANCH   9  11
ENDBRANCH   1   9
TORSDOF 3
ENDMDL
MODEL 2
REMARK VINA RESULT:      -6.7      1.315      2.444
REMARK  Name = 445892
REMARK  3 active torsions:
REMARK  status: ('A' for Active; 'I' for Inactive)
REMARK    1  A    between atoms: C_1  and  C_9
REMARK    2  A    between atoms: C_4  and  O_7
REMARK    3  A    between atoms: C_9  and  N_11
REMARK                            x       y       z     vdW  Elec       q    Type
REMARK                         _______ _______ _______ _____ _____    ______ ____
ROOT
ATOM      1  C   UNL     1      34.771 -19.156 -21.129  0.00  0.00    -0.039 C 
ATOM      2  C   UNL     1      35.738 -19.955 -20.548  0.00  0.00    +0.030 C 
ATOM      3  C   UNL     1      33.422 -19.417 -20.976  0.00  0.00    -0.006 C 
ATOM      4  C   UNL     1      35.343 -21.056 -19.788  0.00  0.00    +0.133 C 
ATOM      5  C   UNL     1      33.026 -20.518 -20.215  0.00  0.00    +0.003 C 
ATOM      6  C   UNL     1      33.987 -21.337 -19.621  0.00  0.00    +0.037 C 
ENDROOT
BRANCH   4   7
ATOM      7  O   UNL     1      36.280 -21.855 -19.209  0.00  0.00    -0.506 OA
ATOM      8  H   UNL     1      36.572 -22.630 -19.649  0.00  0.00    +0.292 HD
ENDBRANCH   4   7
BRANCH   1   9
ATOM      9  C   UNL     1      35.201 -17.959 -21.955  0.00  0.00    -0.035 C 
ATOM     10  C   UNL     1      34.916 -16.640 -21.235  0.00  0.00    -0.018 C 
BRANCH   9  11
ATOM     11  N   UNL     1      34.550 -17.951 -23.265  0.00  0.00    +0.388 N 
ATOM     12  C   UNL     1      35.055 -19.044 -24.094  0.00  0.00    -0.100 C 
ATOM     13  C   UNL     1      34.761 -16.665 -23.931  0.00  0.00    -0.100 C 
ATOM     14  H   UNL     1      33.548 -18.084 -23.130  0.00  0.00    -0.079 HD
ENDBRANCH   9  11
ENDBRANCH   1   9
TORSDOF 3
ENDMDL
MODEL 3
REMARK VINA RESULT:      -6.6      0.788      1.709
REMARK  Name = 445892
REMARK  3 active torsions:
REMARK  status: ('A' for Active; 'I' for Inactive)
REMARK    1  A    between atoms: C_1  and  C_9
REMARK    2  A    between atoms: C_4  and  O_7
REMARK    3  A    between atoms: C_9  and  N_11
REMARK                            x       y       z     vdW  Elec       q    Type
REMARK                         _______ _______ _______ _____ _____    ______ ____
ROOT
ATOM      1  C   UNL     1      35.265 -19.219 -20.975  0.00  0.00    -0.039 C 
ATOM      2  C   UNL     1      34.017 -19.771 -20.753  0.00  0.00    +0.030 C 
ATOM      3  C   UNL     1      36.420 -19.819 -20.508  0.00  0.00    -0.006 C 
ATOM      4  C   UNL     1      33.920 -20.964 -20.038  0.00  0.00    +0.133 C 
ATOM      5  C   UNL     1      36.324 -21.013 -19.793  0.00  0.00    +0.003 C 
ATOM      6  C   UNL     1      35.073 -21.586 -19.558  0.00  0.00    +0.037 C 
ENDROOT
BRANCH   4   7
ATOM      7  O   UNL     1      32.701 -21.523 -19.808  0.00  0.00    -0.506 OA
ATOM      8  H   UNL     1      32.639 -22.423 -19.552  0.00  0.00    +0.292 HD
ENDBRANCH   4   7
BRANCH   1   9
ATOM      9  C   UNL     1      35.371 -17.922 -21.753  0.00  0.00    -0.035 C 
ATOM     10  C   UNL     1      34.919 -16.721 -20.918  0.00  0.00    -0.018 C 
BRANCH   9  11
ATOM     11  N   UNL     1      34.596 -17.974 -22.992  0.00  0.00    +0.388 N 
ATOM     12  C   UNL     1      35.171 -18.953 -23.913  0.00  0.00    -0.100 C 
ATOM     13  C   UNL     1      34.546 -16.652 -23.617  0.00  0.00    -0.100 C 
ATOM     14  H   UNL     1      33.645 -18.262 -22.767  0.00  0.00    -0.079 HD
ENDBRANCH   9  11
ENDBRANCH   1   9
TORSDOF 3
ENDMDL
MODEL 4
REMARK VINA RESULT:      -6.5      3.374      5.731
REMARK  Name = 445892
REMARK  3 active torsions:
REMARK  status: ('A' for Active; 'I' for Inactive)
REMARK    1  A    between atoms: C_1  and  C_9
REMARK    2  A    between atoms: C_4  and  O_7
REMARK    3  A    between atoms: C_9  and  N_11
REMARK                            x       y       z     vdW  Elec       q    Type
REMARK                         _______ _______ _______ _____ _____    ______ ____
ROOT
ATOM      1  C   UNL     1      34.779 -16.854 -23.691  0.00  0.00    -0.039 C 
ATOM      2  C   UNL     1      34.311 -16.771 -24.989  0.00  0.00    +0.030 C 
ATOM      3  C   UNL     1      34.676 -15.792 -22.811  0.00  0.00    -0.006 C 
ATOM      4  C   UNL     1      33.721 -15.585 -25.425  0.00  0.00    +0.133 C 
ATOM      5  C   UNL     1      34.085 -14.605 -23.245  0.00  0.00    +0.003 C 
ATOM      6  C   UNL     1      33.607 -14.502 -24.552  0.00  0.00    +0.037 C 
ENDROOT
BRANCH   4   7
ATOM      7  O   UNL     1      33.256 -15.483 -26.699  0.00  0.00    -0.506 OA
ATOM      8  H   UNL     1      33.246 -14.649 -27.129  0.00  0.00    +0.292 HD
ENDBRANCH   4   7
BRANCH   1   9
ATOM      9  C   UNL     1      35.421 -18.144 -23.218  0.00  0.00    -0.035 C 
ATOM     10  C   UNL     1      34.926 -19.351 -24.018  0.00  0.00    -0.018 C 
BRANCH   9  11
ATOM     11  N   UNL     1      35.182 -18.371 -21.794  0.00  0.00    +0.388 N 
ATOM     12  C   UNL     1      36.400 -18.847 -21.140  0.00  0.00    -0.100 C 
ATOM     13  C   UNL     1      34.093 -19.330 -21.606  0.00  0.00    -0.100 C 
ATOM     14  H   UNL     1      34.910 -17.486 -21.366  0.00  0.00    -0.079 HD
ENDBRANCH   9  11
ENDBRANCH   1   9
TORSDOF 3
ENDMDL
MODEL 5
REMARK VINA RESULT:      -6.4      2.643      4.817
REMARK  Name = 445892
REMARK  3 active torsions:
REMARK  status: ('A' for Active; 'I' for Inactive)
REMARK    1  A    between atoms: C_1  and  C_9
REMARK    2  A    between atoms: C_4  and  O_7
REMARK    3  A    between atoms: C_9  and  N_11
REMARK                            x       y       z     vdW  Elec       q    Type
REMARK                         _______ _______ _______ _____ _____    ______ ____
ROOT
ATOM      1  C   UNL     1      34.661 -18.458 -22.089  0.00  0.00    -0.039 C 
ATOM      2  C   UNL     1      34.721 -18.490 -23.469  0.00  0.00    +0.030 C 
ATOM      3  C   UNL     1      34.674 -17.267 -21.386  0.00  0.00    -0.006 C 
ATOM      4  C   UNL     1      34.797 -17.289 -24.174  0.00  0.00    +0.133 C 
ATOM      5  C   UNL     1      34.749 -16.065 -22.091  0.00  0.00    +0.003 C 
ATOM      6  C   UNL     1      34.811 -16.076 -23.485  0.00  0.00    +0.037 C 
ENDROOT
BRANCH   4   7
ATOM      7  O   UNL     1      34.858 -17.299 -25.533  0.00  0.00    -0.506 OA
ATOM      8  H   UNL     1      35.683 -17.414 -25.964  0.00  0.00    +0.292 HD
ENDBRANCH   4   7
BRANCH   1   9
ATOM      9  C   UNL     1      34.579 -19.764 -21.322  0.00  0.00    -0.035 C 
ATOM     10  C   UNL     1      33.185 -19.990 -20.734  0.00  0.00    -0.018 C 
BRANCH   9  11
ATOM     11  N   UNL     1      35.575 -19.823 -20.254  0.00  0.00    +0.388 N 
ATOM     12  C   UNL     1      36.911 -19.555 -20.785  0.00  0.00    -0.100 C 
ATOM     13  C   UNL     1      35.540 -21.129 -19.595  0.00  0.00    -0.100 C 
ATOM     14  H   UNL     1      35.352 -19.107 -19.564  0.00  0.00    -0.079 HD
ENDBRANCH   9  11
ENDBRANCH   1   9
TORSDOF 3
ENDMDL
MODEL 6
REMARK VINA RESULT:      -6.4      2.789      4.963
REMARK  Name = 445892
REMARK  3 active torsions:
REMARK  status: ('A' for Active; 'I' for Inactive)
REMARK    1  A    between atoms: C_1  and  C_9
REMARK    2  A    between atoms: C_4  and  O_7
REMARK    3  A    between atoms: C_9  and  N_11
REMARK                            x       y       z     vdW  Elec       q    Type
REMARK                         _______ _______ _______ _____ _____    ______ ____
ROOT
ATOM      1  C   UNL     1      34.919 -18.314 -22.348  0.00  0.00    -0.039 C 
ATOM      2  C   UNL     1      34.840 -16.935 -22.395  0.00  0.00    +0.030 C 
ATOM      3  C   UNL     1      34.839 -19.088 -23.491  0.00  0.00    -0.006 C 
ATOM      4  C   UNL     1      34.672 -16.306 -23.628  0.00  0.00    +0.133 C 
ATOM      5  C   UNL     1      34.671 -18.459 -24.726  0.00  0.00    +0.003 C 
ATOM      6  C   UNL     1      34.589 -17.068 -24.794  0.00  0.00    +0.037 C 
ENDROOT
BRANCH   4   7
ATOM      7  O   UNL     1      34.590 -14.950 -23.696  0.00  0.00    -0.506 OA
ATOM      8  H   UNL     1      33.918 -14.497 -23.224  0.00  0.00    +0.292 HD
ENDBRANCH   4   7
BRANCH   1   9
ATOM      9  C   UNL     1      35.101 -18.998 -21.007  0.00  0.00    -0.035 C 
ATOM     10  C   UNL     1      36.563 -19.370 -20.753  0.00  0.00    -0.018 C 
BRANCH   9  11
ATOM     11  N   UNL     1      34.267 -20.195 -20.897  0.00  0.00    +0.388 N 
ATOM     12  C   UNL     1      32.887 -19.828 -20.584  0.00  0.00    -0.100 C 
ATOM     13  C   UNL     1      34.801 -21.096 -19.876  0.00  0.00    -0.100 C 
ATOM     14  H   UNL     1      34.278 -20.679 -21.794  0.00  0.00    -0.079 HD
ENDBRANCH   9  11
ENDBRANCH   1   9
TORSDOF 3
ENDMDL
MODEL 7
REMARK VINA RESULT:      -6.3      3.039      4.575
REMARK  Name = 445892
REMARK  3 active torsions:
REMARK  status: ('A' for Active; 'I' for Inactive)
REMARK    1  A    between atoms: C_1  and  C_9
REMARK    2  A    between atoms: C_4  and  O_7
REMARK    3  A    between atoms: C_9  and  N_11
REMARK                            x       y       z     vdW  Elec       q    Type
REMARK                         _______ _______ _______ _____ _____    ______ ____
ROOT
ATOM      1  C   UNL     1      34.585 -16.377 -23.236  0.00  0.00    -0.039 C 
ATOM      2  C   UNL     1      34.744 -17.417 -22.340  0.00  0.00    +0.030 C 
ATOM      3  C   UNL     1      34.489 -16.597 -24.598  0.00  0.00    -0.006 C 
ATOM      4  C   UNL     1      34.810 -18.724 -22.821  0.00  0.00    +0.133 C 
ATOM      5  C   UNL     1      34.554 -17.905 -25.080  0.00  0.00    +0.003 C 
ATOM      6  C   UNL     1      34.715 -18.968 -24.191  0.00  0.00    +0.037 C 
ENDROOT
BRANCH   4   7
ATOM      7  O   UNL     1      34.967 -19.762 -21.955  0.00  0.00    -0.506 OA
ATOM      8  H   UNL     1      34.709 -19.668 -21.059  0.00  0.00    +0.292 HD
ENDBRANCH   4   7
BRANCH   1   9
ATOM      9  C   UNL     1      34.513 -14.956 -22.712  0.00  0.00    -0.035 C 
ATOM     10  C   UNL     1      34.497 -14.914 -21.183  0.00  0.00    -0.018 C 
BRANCH   9  11
ATOM     11  N   UNL     1      33.342 -14.251 -23.232  0.00  0.00    +0.388 N 
ATOM     12  C   UNL     1      33.746 -13.024 -23.916  0.00  0.00    -0.100 C 
ATOM     13  C   UNL     1      32.407 -13.948 -22.148  0.00  0.00    -0.100 C 
ATOM     14  H   UNL     1      32.872 -14.856 -23.904  0.00  0.00    -0.079 HD
ENDBRANCH   9  11
ENDBRANCH   1   9
TORSDOF 3
ENDMDL
MODEL 8
REMARK VINA RESULT:      -6.2      2.466      4.658
REMARK  Name = 445892
REMARK  3 active torsions:
REMARK  status: ('A' for Active; 'I' for Inactive)
REMARK    1  A    between atoms: C_1  and  C_9
REMARK    2  A    between atoms: C_4  and  O_7
REMARK    3  A    between atoms: C_9  and  N_11
REMARK                            x       y       z     vdW  Elec       q    Type
REMARK                         _______ _______ _______ _____ _____    ______ ____
ROOT
ATOM      1  C   UNL     1      34.638 -18.692 -21.934  0.00  0.00    -0.039 C 
ATOM      2  C   UNL     1      34.579 -17.488 -21.258  0.00  0.00    +0.030 C 
ATOM      3  C   UNL     1      34.858 -18.752 -23.298  0.00  0.00    -0.006 C 
ATOM      4  C   UNL     1      34.744 -16.301 -21.970  0.00  0.00    +0.133 C 
ATOM      5  C   UNL     1      35.024 -17.564 -24.011  0.00  0.00    +0.003 C 
ATOM      6  C   UNL     1      34.967 -16.339 -23.346  0.00  0.00    +0.037 C 
ENDROOT
BRANCH   4   7
ATOM      7  O   UNL     1      34.688 -15.105 -21.323  0.00  0.00    -0.506 OA
ATOM      8  H   UNL     1      35.152 -14.986 -20.517  0.00  0.00    +0.292 HD
ENDBRANCH   4   7
BRANCH   1   9
ATOM      9  C   UNL     1      34.458 -19.984 -21.159  0.00  0.00    -0.035 C 
ATOM     10  C   UNL     1      33.041 -20.117 -20.599  0.00  0.00    -0.018 C 
BRANCH   9  11
ATOM     11  N   UNL     1      35.426 -20.095 -20.069  0.00  0.00    +0.388 N 
ATOM     12  C   UNL     1      36.783 -19.869 -20.565  0.00  0.00    -0.100 C 
ATOM     13  C   UNL     1      35.327 -21.408 -19.431  0.00  0.00    -0.100 C 
ATOM     14  H   UNL     1      35.213 -19.381 -19.373  0.00  0.00    -0.079 HD
ENDBRANCH   9  11
ENDBRANCH   1   9
TORSDOF 3
ENDMDL
MODEL 9
REMARK VINA RESULT:      -6.2      1.312      1.802
REMARK  Name = 445892
REMARK  3 active torsions:
REMARK  status: ('A' for Active; 'I' for Inactive)
REMARK    1  A    between atoms: C_1  and  C_9
REMARK    2  A    between atoms: C_4  and  O_7
REMARK    3  A    between atoms: C_9  and  N_11
REMARK                            x       y       z     vdW  Elec       q    Type
REMARK                         _______ _______ _______ _____ _____    ______ ____
ROOT
ATOM      1  C   UNL     1      34.446 -18.412 -21.302  0.00  0.00    -0.039 C 
ATOM      2  C   UNL     1      33.456 -19.268 -20.857  0.00  0.00    +0.030 C 
ATOM      3  C   UNL     1      35.788 -18.713 -21.160  0.00  0.00    -0.006 C 
ATOM      4  C   UNL     1      33.819 -20.467 -20.247  0.00  0.00    +0.133 C 
ATOM      5  C   UNL     1      36.152 -19.915 -20.551  0.00  0.00    +0.003 C 
ATOM      6  C   UNL     1      35.167 -20.792 -20.094  0.00  0.00    +0.037 C 
ENDROOT
BRANCH   4   7
ATOM      7  O   UNL     1      32.860 -21.323 -19.801  0.00  0.00    -0.506 OA
ATOM      8  H   UNL     1      32.217 -21.027 -19.186  0.00  0.00    +0.292 HD
ENDBRANCH   4   7
BRANCH   1   9
ATOM      9  C   UNL     1      34.050 -17.106 -21.965  0.00  0.00    -0.035 C 
ATOM     10  C   UNL     1      35.207 -16.500 -22.762  0.00  0.00    -0.018 C 
BRANCH   9  11
ATOM     11  N   UNL     1      33.569 -16.132 -20.987  0.00  0.00    +0.388 N 
ATOM     12  C   UNL     1      32.559 -15.261 -21.587  0.00  0.00    -0.100 C 
ATOM     13  C   UNL     1      34.682 -15.339 -20.466  0.00  0.00    -0.100 C 
ATOM     14  H   UNL     1      33.140 -16.637 -20.211  0.00  0.00    -0.079 HD
ENDBRANCH   9  11
ENDBRANCH   1   9
TORSDOF 3
ENDMDL
