MODEL 1
REMARK VINA RESULT:      -9.2      0.000      0.000
REMARK  Name = 6439522
REMARK  5 active torsions:
REMARK  status: ('A' for Active; 'I' for Inactive)
REMARK    1  A    between atoms: C_1  and  C_7
REMARK    2  A    between atoms: C_2  and  O_10
REMARK    3  A    between atoms: C_3  and  O_12
REMARK    4  A    between atoms: C_4  and  C_14
REMARK    5  A    between atoms: C_15  and  C_16
REMARK                            x       y       z     vdW  Elec       q    Type
REMARK                         _______ _______ _______ _____ _____    ______ ____
ROOT
ATOM      1  C   UNL     1      36.586 -24.581 -14.418  0.00  0.00    +0.045 C 
ATOM      2  C   UNL     1      37.635 -23.907 -15.042  0.00  0.00    +0.133 C 
ATOM      3  C   UNL     1      35.271 -24.346 -14.819  0.00  0.00    +0.133 C 
ATOM      4  C   UNL     1      36.059 -22.777 -16.454  0.00  0.00    +0.006 C 
ATOM      5  C   UNL     1      37.370 -22.999 -16.068  0.00  0.00    +0.036 C 
ATOM      6  C   UNL     1      35.005 -23.438 -15.844  0.00  0.00    +0.036 C 
ENDROOT
BRANCH   1   7
ATOM      7  C   UNL     1      36.869 -25.553 -13.319  0.00  0.00    +0.028 C 
ATOM      8  C   UNL     1      37.758 -24.949 -12.218  0.00  0.00    +0.005 C 
ATOM      9  C   UNL     1      37.492 -26.860 -13.840  0.00  0.00    +0.005 C 
ENDBRANCH   1   7
BRANCH   2  10
ATOM     10  O   UNL     1      38.927 -24.124 -14.664  0.00  0.00    -0.506 OA
ATOM     11  H   UNL     1      39.122 -24.766 -14.011  0.00  0.00    +0.292 HD
ENDBRANCH   2  10
BRANCH   3  12
ATOM     12  O   UNL     1      34.232 -24.995 -14.220  0.00  0.00    -0.506 OA
ATOM     13  H   UNL     1      34.005 -24.796 -13.334  0.00  0.00    +0.292 HD
ENDBRANCH   3  12
BRANCH   4  14
ATOM     14  C   UNL     1      35.779 -21.817 -17.538  0.00  0.00    +0.000 C 
ATOM     15  C   UNL     1      34.998 -22.065 -18.616  0.00  0.00    +0.000 C 
BRANCH  15  16
ATOM     16  C   UNL     1      34.705 -21.112 -19.675  0.00  0.00    +0.000 C 
ATOM     17  C   UNL     1      33.383 -20.789 -19.977  0.00  0.00    +0.000 C 
ATOM     18  C   UNL     1      35.748 -20.520 -20.389  0.00  0.00    +0.000 C 
ATOM     19  C   UNL     1      33.102 -19.874 -20.992  0.00  0.00    +0.000 C 
ATOM     20  C   UNL     1      35.467 -19.607 -21.405  0.00  0.00    +0.000 C 
ATOM     21  C   UNL     1      34.144 -19.284 -21.706  0.00  0.00    +0.000 C 
ENDBRANCH  15  16
ENDBRANCH   4  14
TORSDOF 5
ENDMDL
MODEL 2
REMARK VINA RESULT:      -9.1      5.937     11.021
REMARK  Name = 6439522
REMARK  5 active torsions:
REMARK  status: ('A' for Active; 'I' for Inactive)
REMARK    1  A    between atoms: C_1  and  C_7
REMARK    2  A    between atoms: C_2  and  O_10
REMARK    3  A    between atoms: C_3  and  O_12
REMARK    4  A    between atoms: C_4  and  C_14
REMARK    5  A    between atoms: C_15  and  C_16
REMARK                            x       y       z     vdW  Elec       q    Type
REMARK                         _______ _______ _______ _____ _____    ______ ____
ROOT
ATOM      1  C   UNL     1      33.389 -14.760 -24.093  0.00  0.00    +0.045 C 
ATOM      2  C   UNL     1      34.107 -15.865 -24.548  0.00  0.00    +0.133 C 
ATOM      3  C   UNL     1      33.044 -14.659 -22.745  0.00  0.00    +0.133 C 
ATOM      4  C   UNL     1      34.131 -16.755 -22.320  0.00  0.00    +0.006 C 
ATOM      5  C   UNL     1      34.482 -16.871 -23.655  0.00  0.00    +0.036 C 
ATOM      6  C   UNL     1      33.419 -15.663 -21.852  0.00  0.00    +0.036 C 
ENDROOT
BRANCH   1   7
ATOM      7  C   UNL     1      32.988 -13.684 -25.049  0.00  0.00    +0.028 C 
ATOM      8  C   UNL     1      32.746 -14.223 -26.470  0.00  0.00    +0.005 C 
ATOM      9  C   UNL     1      34.003 -12.529 -25.091  0.00  0.00    +0.005 C 
ENDBRANCH   1   7
BRANCH   2  10
ATOM     10  O   UNL     1      34.452 -15.982 -25.861  0.00  0.00    -0.506 OA
ATOM     11  H   UNL     1      34.149 -16.712 -26.362  0.00  0.00    +0.292 HD
ENDBRANCH   2  10
BRANCH   3  12
ATOM     12  O   UNL     1      32.343 -13.586 -22.283  0.00  0.00    -0.506 OA
ATOM     13  H   UNL     1      31.917 -13.628 -21.450  0.00  0.00    +0.292 HD
ENDBRANCH   3  12
BRANCH   4  14
ATOM     14  C   UNL     1      34.527 -17.817 -21.376  0.00  0.00    +0.000 C 
ATOM     15  C   UNL     1      34.114 -19.105 -21.434  0.00  0.00    +0.000 C 
BRANCH  15  16
ATOM     16  C   UNL     1      34.520 -20.157 -20.515  0.00  0.00    +0.000 C 
ATOM     17  C   UNL     1      35.873 -20.381 -20.264  0.00  0.00    +0.000 C 
ATOM     18  C   UNL     1      33.554 -20.941 -19.882  0.00  0.00    +0.000 C 
ATOM     19  C   UNL     1      36.262 -21.389 -19.381  0.00  0.00    +0.000 C 
ATOM     20  C   UNL     1      33.943 -21.949 -19.000  0.00  0.00    +0.000 C 
ATOM     21  C   UNL     1      35.296 -22.173 -18.750  0.00  0.00    +0.000 C 
ENDBRANCH  15  16
ENDBRANCH   4  14
TORSDOF 5
ENDMDL
MODEL 3
REMARK VINA RESULT:      -9.1      5.941     11.093
REMARK  Name = 6439522
REMARK  5 active torsions:
REMARK  status: ('A' for Active; 'I' for Inactive)
REMARK    1  A    between atoms: C_1  and  C_7
REMARK    2  A    between atoms: C_2  and  O_10
REMARK    3  A    between atoms: C_3  and  O_12
REMARK    4  A    between atoms: C_4  and  C_14
REMARK    5  A    between atoms: C_15  and  C_16
REMARK                            x       y       z     vdW  Elec       q    Type
REMARK                         _______ _______ _______ _____ _____    ______ ____
ROOT
ATOM      1  C   UNL     1      33.412 -14.761 -24.113  0.00  0.00    +0.045 C 
ATOM      2  C   UNL     1      33.075 -14.657 -22.764  0.00  0.00    +0.133 C 
ATOM      3  C   UNL     1      34.122 -15.870 -24.571  0.00  0.00    +0.133 C 
ATOM      4  C   UNL     1      34.152 -16.759 -22.342  0.00  0.00    +0.006 C 
ATOM      5  C   UNL     1      33.447 -15.664 -21.872  0.00  0.00    +0.036 C 
ATOM      6  C   UNL     1      34.495 -16.877 -23.680  0.00  0.00    +0.036 C 
ENDROOT
BRANCH   1   7
ATOM      7  C   UNL     1      33.014 -13.683 -25.068  0.00  0.00    +0.028 C 
ATOM      8  C   UNL     1      32.730 -14.226 -26.479  0.00  0.00    +0.005 C 
ATOM      9  C   UNL     1      34.052 -12.550 -25.140  0.00  0.00    +0.005 C 
ENDBRANCH   1   7
BRANCH   2  10
ATOM     10  O   UNL     1      32.381 -13.581 -22.298  0.00  0.00    -0.506 OA
ATOM     11  H   UNL     1      32.812 -12.939 -21.769  0.00  0.00    +0.292 HD
ENDBRANCH   2  10
BRANCH   3  12
ATOM     12  O   UNL     1      34.461 -15.988 -25.886  0.00  0.00    -0.506 OA
ATOM     13  H   UNL     1      35.352 -16.141 -26.128  0.00  0.00    +0.292 HD
ENDBRANCH   3  12
BRANCH   4  14
ATOM     14  C   UNL     1      34.546 -17.822 -21.400  0.00  0.00    +0.000 C 
ATOM     15  C   UNL     1      34.118 -19.106 -21.450  0.00  0.00    +0.000 C 
BRANCH  15  16
ATOM     16  C   UNL     1      34.521 -20.160 -20.533  0.00  0.00    +0.000 C 
ATOM     17  C   UNL     1      35.875 -20.391 -20.287  0.00  0.00    +0.000 C 
ATOM     18  C   UNL     1      33.554 -20.940 -19.897  0.00  0.00    +0.000 C 
ATOM     19  C   UNL     1      36.261 -21.402 -19.406  0.00  0.00    +0.000 C 
ATOM     20  C   UNL     1      33.941 -21.951 -19.017  0.00  0.00    +0.000 C 
ATOM     21  C   UNL     1      35.295 -22.181 -18.772  0.00  0.00    +0.000 C 
ENDBRANCH  15  16
ENDBRANCH   4  14
TORSDOF 5
ENDMDL
MODEL 4
REMARK VINA RESULT:      -9.0      3.943      7.949
REMARK  Name = 6439522
REMARK  5 active torsions:
REMARK  status: ('A' for Active; 'I' for Inactive)
REMARK    1  A    between atoms: C_1  and  C_7
REMARK    2  A    between atoms: C_2  and  O_10
REMARK    3  A    between atoms: C_3  and  O_12
REMARK    4  A    between atoms: C_4  and  C_14
REMARK    5  A    between atoms: C_15  and  C_16
REMARK                            x       y       z     vdW  Elec       q    Type
REMARK                         _______ _______ _______ _____ _____    ______ ____
ROOT
ATOM      1  C   UNL     1      34.804 -20.218 -20.616  0.00  0.00    +0.045 C 
ATOM      2  C   UNL     1      33.429 -20.200 -20.387  0.00  0.00    +0.133 C 
ATOM      3  C   UNL     1      35.613 -21.125 -19.933  0.00  0.00    +0.133 C 
ATOM      4  C   UNL     1      33.679 -21.986 -18.805  0.00  0.00    +0.006 C 
ATOM      5  C   UNL     1      32.862 -21.091 -19.475  0.00  0.00    +0.036 C 
ATOM      6  C   UNL     1      35.047 -22.016 -19.022  0.00  0.00    +0.036 C 
ENDROOT
BRANCH   1   7
ATOM      7  C   UNL     1      35.412 -19.263 -21.593  0.00  0.00    +0.028 C 
ATOM      8  C   UNL     1      35.329 -17.803 -21.115  0.00  0.00    +0.005 C 
ATOM      9  C   UNL     1      34.797 -19.392 -22.998  0.00  0.00    +0.005 C 
ENDBRANCH   1   7
BRANCH   2  10
ATOM     10  O   UNL     1      32.622 -19.321 -21.045  0.00  0.00    -0.506 OA
ATOM     11  H   UNL     1      32.467 -18.469 -20.687  0.00  0.00    +0.292 HD
ENDBRANCH   2  10
BRANCH   3  12
ATOM     12  O   UNL     1      36.960 -21.156 -20.144  0.00  0.00    -0.506 OA
ATOM     13  H   UNL     1      37.399 -21.976 -20.246  0.00  0.00    +0.292 HD
ENDBRANCH   3  12
BRANCH   4  14
ATOM     14  C   UNL     1      33.081 -22.927 -17.841  0.00  0.00    +0.000 C 
ATOM     15  C   UNL     1      32.116 -22.617 -16.943  0.00  0.00    +0.000 C 
BRANCH  15  16
ATOM     16  C   UNL     1      31.511 -23.550 -16.006  0.00  0.00    +0.000 C 
ATOM     17  C   UNL     1      32.237 -23.999 -14.903  0.00  0.00    +0.000 C 
ATOM     18  C   UNL     1      30.204 -23.994 -16.208  0.00  0.00    +0.000 C 
ATOM     19  C   UNL     1      31.656 -24.893 -14.003  0.00  0.00    +0.000 C 
ATOM     20  C   UNL     1      29.624 -24.889 -15.309  0.00  0.00    +0.000 C 
ATOM     21  C   UNL     1      30.350 -25.338 -14.206  0.00  0.00    +0.000 C 
ENDBRANCH  15  16
ENDBRANCH   4  14
TORSDOF 5
ENDMDL
MODEL 5
REMARK VINA RESULT:      -9.0      0.375      2.236
REMARK  Name = 6439522
REMARK  5 active torsions:
REMARK  status: ('A' for Active; 'I' for Inactive)
REMARK    1  A    between atoms: C_1  and  C_7
REMARK    2  A    between atoms: C_2  and  O_10
REMARK    3  A    between atoms: C_3  and  O_12
REMARK    4  A    between atoms: C_4  and  C_14
REMARK    5  A    between atoms: C_15  and  C_16
REMARK                            x       y       z     vdW  Elec       q    Type
REMARK                         _______ _______ _______ _____ _____    ______ ____
ROOT
ATOM      1  C   UNL     1      36.689 -24.536 -14.437  0.00  0.00    +0.045 C 
ATOM      2  C   UNL     1      35.398 -24.231 -14.865  0.00  0.00    +0.133 C 
ATOM      3  C   UNL     1      37.786 -23.908 -15.027  0.00  0.00    +0.133 C 
ATOM      4  C   UNL     1      36.301 -22.682 -16.459  0.00  0.00    +0.006 C 
ATOM      5  C   UNL     1      35.202 -23.296 -15.883  0.00  0.00    +0.036 C 
ATOM      6  C   UNL     1      37.591 -22.973 -16.044  0.00  0.00    +0.036 C 
ENDROOT
BRANCH   1   7
ATOM      7  C   UNL     1      36.899 -25.537 -13.348  0.00  0.00    +0.028 C 
ATOM      8  C   UNL     1      37.843 -25.017 -12.249  0.00  0.00    +0.005 C 
ATOM      9  C   UNL     1      37.407 -26.887 -13.882  0.00  0.00    +0.005 C 
ENDBRANCH   1   7
BRANCH   2  10
ATOM     10  O   UNL     1      34.314 -24.834 -14.301  0.00  0.00    -0.506 OA
ATOM     11  H   UNL     1      33.478 -24.413 -14.324  0.00  0.00    +0.292 HD
ENDBRANCH   2  10
BRANCH   3  12
ATOM     12  O   UNL     1      39.055 -24.194 -14.622  0.00  0.00    -0.506 OA
ATOM     13  H   UNL     1      39.205 -24.562 -13.774  0.00  0.00    +0.292 HD
ENDBRANCH   3  12
BRANCH   4  14
ATOM     14  C   UNL     1      36.095 -21.694 -17.534  0.00  0.00    +0.000 C 
ATOM     15  C   UNL     1      35.381 -21.909 -18.664  0.00  0.00    +0.000 C 
BRANCH  15  16
ATOM     16  C   UNL     1      35.161 -20.929 -19.716  0.00  0.00    +0.000 C 
ATOM     17  C   UNL     1      36.244 -20.250 -20.274  0.00  0.00    +0.000 C 
ATOM     18  C   UNL     1      33.866 -20.669 -20.168  0.00  0.00    +0.000 C 
ATOM     19  C   UNL     1      36.032 -19.311 -21.284  0.00  0.00    +0.000 C 
ATOM     20  C   UNL     1      33.656 -19.729 -21.177  0.00  0.00    +0.000 C 
ATOM     21  C   UNL     1      34.739 -19.051 -21.735  0.00  0.00    +0.000 C 
ENDBRANCH  15  16
ENDBRANCH   4  14
TORSDOF 5
ENDMDL
MODEL 6
REMARK VINA RESULT:      -9.0      3.940      7.763
REMARK  Name = 6439522
REMARK  5 active torsions:
REMARK  status: ('A' for Active; 'I' for Inactive)
REMARK    1  A    between atoms: C_1  and  C_7
REMARK    2  A    between atoms: C_2  and  O_10
REMARK    3  A    between atoms: C_3  and  O_12
REMARK    4  A    between atoms: C_4  and  C_14
REMARK    5  A    between atoms: C_15  and  C_16
REMARK                            x       y       z     vdW  Elec       q    Type
REMARK                         _______ _______ _______ _____ _____    ______ ____
ROOT
ATOM      1  C   UNL     1      34.803 -20.210 -20.608  0.00  0.00    +0.045 C 
ATOM      2  C   UNL     1      35.617 -21.111 -19.923  0.00  0.00    +0.133 C 
ATOM      3  C   UNL     1      33.427 -20.202 -20.381  0.00  0.00    +0.133 C 
ATOM      4  C   UNL     1      33.687 -21.984 -18.796  0.00  0.00    +0.006 C 
ATOM      5  C   UNL     1      35.055 -22.005 -19.009  0.00  0.00    +0.036 C 
ATOM      6  C   UNL     1      32.865 -21.094 -19.468  0.00  0.00    +0.036 C 
ENDROOT
BRANCH   1   7
ATOM      7  C   UNL     1      35.405 -19.254 -21.586  0.00  0.00    +0.028 C 
ATOM      8  C   UNL     1      35.309 -17.793 -21.112  0.00  0.00    +0.005 C 
ATOM      9  C   UNL     1      34.794 -19.391 -22.991  0.00  0.00    +0.005 C 
ENDBRANCH   1   7
BRANCH   2  10
ATOM     10  O   UNL     1      36.964 -21.134 -20.131  0.00  0.00    -0.506 OA
ATOM     11  H   UNL     1      37.551 -20.981 -19.418  0.00  0.00    +0.292 HD
ENDBRANCH   2  10
BRANCH   3  12
ATOM     12  O   UNL     1      32.617 -19.328 -21.042  0.00  0.00    -0.506 OA
ATOM     13  H   UNL     1      32.971 -18.537 -21.397  0.00  0.00    +0.292 HD
ENDBRANCH   3  12
BRANCH   4  14
ATOM     14  C   UNL     1      33.093 -22.927 -17.831  0.00  0.00    +0.000 C 
ATOM     15  C   UNL     1      32.115 -22.624 -16.945  0.00  0.00    +0.000 C 
BRANCH  15  16
ATOM     16  C   UNL     1      31.515 -23.560 -16.007  0.00  0.00    +0.000 C 
ATOM     17  C   UNL     1      32.238 -23.994 -14.896  0.00  0.00    +0.000 C 
ATOM     18  C   UNL     1      30.215 -24.021 -16.217  0.00  0.00    +0.000 C 
ATOM     19  C   UNL     1      31.662 -24.890 -13.995  0.00  0.00    +0.000 C 
ATOM     20  C   UNL     1      29.640 -24.918 -15.317  0.00  0.00    +0.000 C 
ATOM     21  C   UNL     1      30.363 -25.352 -14.206  0.00  0.00    +0.000 C 
ENDBRANCH  15  16
ENDBRANCH   4  14
TORSDOF 5
ENDMDL
MODEL 7
REMARK VINA RESULT:      -8.9      9.318     13.716
REMARK  Name = 6439522
REMARK  5 active torsions:
REMARK  status: ('A' for Active; 'I' for Inactive)
REMARK    1  A    between atoms: C_1  and  C_7
REMARK    2  A    between atoms: C_2  and  O_10
REMARK    3  A    between atoms: C_3  and  O_12
REMARK    4  A    between atoms: C_4  and  C_14
REMARK    5  A    between atoms: C_15  and  C_16
REMARK                            x       y       z     vdW  Elec       q    Type
REMARK                         _______ _______ _______ _____ _____    ______ ____
ROOT
ATOM      1  C   UNL     1      32.735 -10.071 -23.009  0.00  0.00    +0.045 C 
ATOM      2  C   UNL     1      31.927 -10.996 -22.348  0.00  0.00    +0.133 C 
ATOM      3  C   UNL     1      33.723 -10.512 -23.888  0.00  0.00    +0.133 C 
ATOM      4  C   UNL     1      33.093 -12.784 -23.443  0.00  0.00    +0.006 C 
ATOM      5  C   UNL     1      32.106 -12.363 -22.567  0.00  0.00    +0.036 C 
ATOM      6  C   UNL     1      33.903 -11.878 -24.107  0.00  0.00    +0.036 C 
ENDROOT
BRANCH   1   7
ATOM      7  C   UNL     1      32.542  -8.608 -22.774  0.00  0.00    +0.028 C 
ATOM      8  C   UNL     1      32.620  -8.238 -21.283  0.00  0.00    +0.005 C 
ATOM      9  C   UNL     1      31.227  -8.086 -23.378  0.00  0.00    +0.005 C 
ENDBRANCH   1   7
BRANCH   2  10
ATOM     10  O   UNL     1      30.956 -10.584 -21.485  0.00  0.00    -0.506 OA
ATOM     11  H   UNL     1      31.190 -10.145 -20.691  0.00  0.00    +0.292 HD
ENDBRANCH   2  10
BRANCH   3  12
ATOM     12  O   UNL     1      34.522  -9.623 -24.542  0.00  0.00    -0.506 OA
ATOM     13  H   UNL     1      34.634  -8.757 -24.205  0.00  0.00    +0.292 HD
ENDBRANCH   3  12
BRANCH   4  14
ATOM     14  C   UNL     1      33.283 -14.228 -23.674  0.00  0.00    +0.000 C 
ATOM     15  C   UNL     1      34.419 -14.916 -23.414  0.00  0.00    +0.000 C 
BRANCH  15  16
ATOM     16  C   UNL     1      34.601 -16.344 -23.624  0.00  0.00    +0.000 C 
ATOM     17  C   UNL     1      34.314 -16.908 -24.866  0.00  0.00    +0.000 C 
ATOM     18  C   UNL     1      35.064 -17.149 -22.582  0.00  0.00    +0.000 C 
ATOM     19  C   UNL     1      34.489 -18.278 -25.068  0.00  0.00    +0.000 C 
ATOM     20  C   UNL     1      35.239 -18.518 -22.784  0.00  0.00    +0.000 C 
ATOM     21  C   UNL     1      34.951 -19.082 -24.026  0.00  0.00    +0.000 C 
ENDBRANCH  15  16
ENDBRANCH   4  14
TORSDOF 5
ENDMDL
MODEL 8
REMARK VINA RESULT:      -8.9      9.309     13.595
REMARK  Name = 6439522
REMARK  5 active torsions:
REMARK  status: ('A' for Active; 'I' for Inactive)
REMARK    1  A    between atoms: C_1  and  C_7
REMARK    2  A    between atoms: C_2  and  O_10
REMARK    3  A    between atoms: C_3  and  O_12
REMARK    4  A    between atoms: C_4  and  C_14
REMARK    5  A    between atoms: C_15  and  C_16
REMARK                            x       y       z     vdW  Elec       q    Type
REMARK                         _______ _______ _______ _____ _____    ______ ____
ROOT
ATOM      1  C   UNL     1      32.730 -10.091 -23.018  0.00  0.00    +0.045 C 
ATOM      2  C   UNL     1      33.711 -10.547 -23.898  0.00  0.00    +0.133 C 
ATOM      3  C   UNL     1      31.928 -11.005 -22.335  0.00  0.00    +0.133 C 
ATOM      4  C   UNL     1      33.085 -12.811 -23.410  0.00  0.00    +0.006 C 
ATOM      5  C   UNL     1      33.891 -11.917 -24.095  0.00  0.00    +0.036 C 
ATOM      6  C   UNL     1      32.106 -12.374 -22.532  0.00  0.00    +0.036 C 
ENDROOT
BRANCH   1   7
ATOM      7  C   UNL     1      32.538  -8.625 -22.806  0.00  0.00    +0.028 C 
ATOM      8  C   UNL     1      32.630  -8.230 -21.322  0.00  0.00    +0.005 C 
ATOM      9  C   UNL     1      31.216  -8.115 -23.405  0.00  0.00    +0.005 C 
ENDBRANCH   1   7
BRANCH   2  10
ATOM     10  O   UNL     1      34.505  -9.669 -24.573  0.00  0.00    -0.506 OA
ATOM     11  H   UNL     1      34.520  -8.765 -24.326  0.00  0.00    +0.292 HD
ENDBRANCH   2  10
BRANCH   3  12
ATOM     12  O   UNL     1      30.963 -10.578 -21.471  0.00  0.00    -0.506 OA
ATOM     13  H   UNL     1      31.030 -10.778 -20.559  0.00  0.00    +0.292 HD
ENDBRANCH   3  12
BRANCH   4  14
ATOM     14  C   UNL     1      33.274 -14.258 -23.619  0.00  0.00    +0.000 C 
ATOM     15  C   UNL     1      34.441 -14.925 -23.450  0.00  0.00    +0.000 C 
BRANCH  15  16
ATOM     16  C   UNL     1      34.623 -16.355 -23.636  0.00  0.00    +0.000 C 
ATOM     17  C   UNL     1      34.314 -16.944 -24.862  0.00  0.00    +0.000 C 
ATOM     18  C   UNL     1      35.109 -17.139 -22.589  0.00  0.00    +0.000 C 
ATOM     19  C   UNL     1      34.489 -18.316 -25.041  0.00  0.00    +0.000 C 
ATOM     20  C   UNL     1      35.284 -18.512 -22.768  0.00  0.00    +0.000 C 
ATOM     21  C   UNL     1      34.975 -19.100 -23.994  0.00  0.00    +0.000 C 
ENDBRANCH  15  16
ENDBRANCH   4  14
TORSDOF 5
ENDMDL
MODEL 9
REMARK VINA RESULT:      -8.7      2.910      7.902
REMARK  Name = 6439522
REMARK  5 active torsions:
REMARK  status: ('A' for Active; 'I' for Inactive)
REMARK    1  A    between atoms: C_1  and  C_7
REMARK    2  A    between atoms: C_2  and  O_10
REMARK    3  A    between atoms: C_3  and  O_12
REMARK    4  A    between atoms: C_4  and  C_14
REMARK    5  A    between atoms: C_15  and  C_16
REMARK                            x       y       z     vdW  Elec       q    Type
REMARK                         _______ _______ _______ _____ _____    ______ ____
ROOT
ATOM      1  C   UNL     1      34.672 -19.664 -21.100  0.00  0.00    +0.045 C 
ATOM      2  C   UNL     1      35.972 -19.858 -20.635  0.00  0.00    +0.133 C 
ATOM      3  C   UNL     1      33.619 -20.392 -20.548  0.00  0.00    +0.133 C 
ATOM      4  C   UNL     1      35.163 -21.496 -19.081  0.00  0.00    +0.006 C 
ATOM      5  C   UNL     1      36.220 -20.780 -19.617  0.00  0.00    +0.036 C 
ATOM      6  C   UNL     1      33.865 -21.314 -19.531  0.00  0.00    +0.036 C 
ENDROOT
BRANCH   1   7
ATOM      7  C   UNL     1      34.407 -18.676 -22.189  0.00  0.00    +0.028 C 
ATOM      8  C   UNL     1      34.971 -19.134 -23.546  0.00  0.00    +0.005 C 
ATOM      9  C   UNL     1      34.935 -17.271 -21.848  0.00  0.00    +0.005 C 
ENDBRANCH   1   7
BRANCH   2  10
ATOM     10  O   UNL     1      37.014 -19.155 -21.162  0.00  0.00    -0.506 OA
ATOM     11  H   UNL     1      37.867 -19.225 -20.780  0.00  0.00    +0.292 HD
ENDBRANCH   2  10
BRANCH   3  12
ATOM     12  O   UNL     1      32.341 -20.216 -20.990  0.00  0.00    -0.506 OA
ATOM     13  H   UNL     1      31.826 -20.956 -21.242  0.00  0.00    +0.292 HD
ENDBRANCH   3  12
BRANCH   4  14
ATOM     14  C   UNL     1      35.424 -22.471 -18.006  0.00  0.00    +0.000 C 
ATOM     15  C   UNL     1      36.179 -22.237 -16.907  0.00  0.00    +0.000 C 
BRANCH  15  16
ATOM     16  C   UNL     1      36.420 -23.192 -15.837  0.00  0.00    +0.000 C 
ATOM     17  C   UNL     1      35.346 -23.807 -15.195  0.00  0.00    +0.000 C 
ATOM     18  C   UNL     1      37.728 -23.494 -15.453  0.00  0.00    +0.000 C 
ATOM     19  C   UNL     1      35.577 -24.723 -14.169  0.00  0.00    +0.000 C 
ATOM     20  C   UNL     1      37.959 -24.410 -14.427  0.00  0.00    +0.000 C 
ATOM     21  C   UNL     1      36.884 -25.025 -13.785  0.00  0.00    +0.000 C 
ENDBRANCH  15  16
ENDBRANCH   4  14
TORSDOF 5
ENDMDL
