MODEL 1
REMARK VINA RESULT:      -7.7      0.000      0.000
REMARK  Name = 121938
REMARK  0 active torsions:
REMARK  status: ('A' for Active; 'I' for Inactive)
REMARK                            x       y       z     vdW  Elec       q    Type
REMARK                         _______ _______ _______ _____ _____    ______ ____
ROOT
ATOM      1 CL   UNL     1      34.367 -16.847 -25.545  0.00  0.00    -0.082 Cl
ATOM      2 CL   UNL     1      35.038 -19.786 -24.609  0.00  0.00    -0.081 Cl
ATOM      3  N   UNL     1      32.786 -14.291 -22.885  0.00  0.00    +0.386 N 
ATOM      4  C   UNL     1      34.382 -15.465 -20.433  0.00  0.00    +0.024 C 
ATOM      5  C   UNL     1      32.999 -14.812 -20.426  0.00  0.00    -0.019 C 
ATOM      6  C   UNL     1      34.536 -16.506 -21.513  0.00  0.00    -0.027 C 
ATOM      7  C   UNL     1      32.793 -13.763 -21.519  0.00  0.00    -0.081 C 
ATOM      8  C   UNL     1      34.399 -16.177 -22.875  0.00  0.00    -0.036 C 
ATOM      9  C   UNL     1      34.102 -14.765 -23.317  0.00  0.00    -0.054 C 
ATOM     10  C   UNL     1      34.832 -17.832 -21.153  0.00  0.00    -0.004 C 
ATOM     11  C   UNL     1      34.551 -17.185 -23.842  0.00  0.00    +0.062 C 
ATOM     12  C   UNL     1      34.981 -18.820 -22.124  0.00  0.00    +0.012 C 
ATOM     13  C   UNL     1      34.839 -18.497 -23.469  0.00  0.00    +0.068 C 
ATOM     14  H   UNL     1      32.482 -13.552 -23.518  0.00  0.00    -0.084 HD
ATOM     15  H   UNL     1      32.153 -15.090 -22.900  0.00  0.00    -0.084 HD
ENDROOT
TORSDOF 0
ENDMDL
MODEL 2
REMARK VINA RESULT:      -7.6      1.780      2.819
REMARK  Name = 121938
REMARK  0 active torsions:
REMARK  status: ('A' for Active; 'I' for Inactive)
REMARK                            x       y       z     vdW  Elec       q    Type
REMARK                         _______ _______ _______ _____ _____    ______ ____
ROOT
ATOM      1 CL   UNL     1      34.969 -19.234 -24.131  0.00  0.00    -0.082 Cl
ATOM      2 CL   UNL     1      35.124 -19.470 -20.988  0.00  0.00    -0.081 Cl
ATOM      3  N   UNL     1      33.259 -15.975 -25.736  0.00  0.00    +0.386 N 
ATOM      4  C   UNL     1      34.264 -14.027 -23.472  0.00  0.00    +0.024 C 
ATOM      5  C   UNL     1      32.985 -13.918 -24.303  0.00  0.00    -0.019 C 
ATOM      6  C   UNL     1      34.480 -15.406 -22.901  0.00  0.00    -0.027 C 
ATOM      7  C   UNL     1      33.092 -14.521 -25.705  0.00  0.00    -0.081 C 
ATOM      8  C   UNL     1      34.618 -16.532 -23.735  0.00  0.00    -0.036 C 
ATOM      9  C   UNL     1      34.567 -16.408 -25.239  0.00  0.00    -0.054 C 
ATOM     10  C   UNL     1      34.554 -15.570 -21.508  0.00  0.00    -0.004 C 
ATOM     11  C   UNL     1      34.817 -17.795 -23.154  0.00  0.00    +0.062 C 
ATOM     12  C   UNL     1      34.753 -16.830 -20.946  0.00  0.00    +0.012 C 
ATOM     13  C   UNL     1      34.883 -17.943 -21.769  0.00  0.00    +0.068 C 
ATOM     14  H   UNL     1      33.156 -16.293 -26.700  0.00  0.00    -0.084 HD
ATOM     15  H   UNL     1      32.550 -16.378 -25.125  0.00  0.00    -0.084 HD
ENDROOT
TORSDOF 0
ENDMDL
MODEL 3
REMARK VINA RESULT:      -7.5      2.913      4.958
REMARK  Name = 121938
REMARK  0 active torsions:
REMARK  status: ('A' for Active; 'I' for Inactive)
REMARK                            x       y       z     vdW  Elec       q    Type
REMARK                         _______ _______ _______ _____ _____    ______ ____
ROOT
ATOM      1 CL   UNL     1      33.611 -15.176 -20.290  0.00  0.00    -0.082 Cl
ATOM      2 CL   UNL     1      31.977 -12.850 -21.661  0.00  0.00    -0.081 Cl
ATOM      3  N   UNL     1      34.515 -18.432 -22.458  0.00  0.00    +0.386 N 
ATOM      4  C   UNL     1      34.871 -16.843 -25.156  0.00  0.00    +0.024 C 
ATOM      5  C   UNL     1      34.400 -18.286 -24.973  0.00  0.00    -0.019 C 
ATOM      6  C   UNL     1      34.168 -15.872 -24.241  0.00  0.00    -0.027 C 
ATOM      7  C   UNL     1      34.969 -18.982 -23.736  0.00  0.00    -0.081 C 
ATOM      8  C   UNL     1      34.248 -15.995 -22.841  0.00  0.00    -0.036 C 
ATOM      9  C   UNL     1      35.051 -17.095 -22.192  0.00  0.00    -0.054 C 
ATOM     10  C   UNL     1      33.423 -14.819 -24.797  0.00  0.00    -0.004 C 
ATOM     11  C   UNL     1      33.573 -15.065 -22.032  0.00  0.00    +0.062 C 
ATOM     12  C   UNL     1      32.759 -13.904 -23.981  0.00  0.00    +0.012 C 
ATOM     13  C   UNL     1      32.834 -14.028 -22.599  0.00  0.00    +0.068 C 
ATOM     14  H   UNL     1      34.815 -19.057 -21.710  0.00  0.00    -0.084 HD
ATOM     15  H   UNL     1      33.500 -18.351 -22.503  0.00  0.00    -0.084 HD
ENDROOT
TORSDOF 0
ENDMDL
MODEL 4
REMARK VINA RESULT:      -7.4      2.892      4.664
REMARK  Name = 121938
REMARK  0 active torsions:
REMARK  status: ('A' for Active; 'I' for Inactive)
REMARK                            x       y       z     vdW  Elec       q    Type
REMARK                         _______ _______ _______ _____ _____    ______ ____
ROOT
ATOM      1 CL   UNL     1      33.410 -14.550 -20.598  0.00  0.00    -0.082 Cl
ATOM      2 CL   UNL     1      32.352 -12.959 -23.110  0.00  0.00    -0.081 Cl
ATOM      3  N   UNL     1      34.339 -18.431 -21.027  0.00  0.00    +0.386 N 
ATOM      4  C   UNL     1      35.394 -18.110 -23.980  0.00  0.00    +0.024 C 
ATOM      5  C   UNL     1      34.733 -19.337 -23.348  0.00  0.00    -0.019 C 
ATOM      6  C   UNL     1      34.641 -16.831 -23.710  0.00  0.00    -0.027 C 
ATOM      7  C   UNL     1      34.967 -19.472 -21.842  0.00  0.00    -0.081 C 
ATOM      8  C   UNL     1      34.433 -16.365 -22.398  0.00  0.00    -0.036 C 
ATOM      9  C   UNL     1      34.963 -17.118 -21.202  0.00  0.00    -0.054 C 
ATOM     10  C   UNL     1      34.145 -16.084 -24.791  0.00  0.00    -0.004 C 
ATOM     11  C   UNL     1      33.725 -15.168 -22.200  0.00  0.00    +0.062 C 
ATOM     12  C   UNL     1      33.445 -14.898 -24.579  0.00  0.00    +0.012 C 
ATOM     13  C   UNL     1      33.234 -14.440 -23.283  0.00  0.00    +0.068 C 
ATOM     14  H   UNL     1      34.414 -18.699 -20.045  0.00  0.00    -0.084 HD
ATOM     15  H   UNL     1      33.368 -18.352 -21.327  0.00  0.00    -0.084 HD
ENDROOT
TORSDOF 0
ENDMDL
MODEL 5
REMARK VINA RESULT:      -7.4      6.089      7.669
REMARK  Name = 121938
REMARK  0 active torsions:
REMARK  status: ('A' for Active; 'I' for Inactive)
REMARK                            x       y       z     vdW  Elec       q    Type
REMARK                         _______ _______ _______ _____ _____    ______ ____
ROOT
ATOM      1 CL   UNL     1      32.872 -23.413 -16.720  0.00  0.00    -0.082 Cl
ATOM      2 CL   UNL     1      35.368 -23.460 -14.789  0.00  0.00    -0.081 Cl
ATOM      3  N   UNL     1      32.856 -20.820 -19.785  0.00  0.00    +0.386 N 
ATOM      4  C   UNL     1      35.965 -20.997 -20.277  0.00  0.00    +0.024 C 
ATOM      5  C   UNL     1      35.043 -19.803 -20.526  0.00  0.00    -0.019 C 
ATOM      6  C   UNL     1      35.765 -21.623 -18.919  0.00  0.00    -0.027 C 
ATOM      7  C   UNL     1      33.601 -20.181 -20.871  0.00  0.00    -0.081 C 
ATOM      8  C   UNL     1      34.524 -22.170 -18.539  0.00  0.00    -0.036 C 
ATOM      9  C   UNL     1      33.342 -22.166 -19.477  0.00  0.00    -0.054 C 
ATOM     10  C   UNL     1      36.841 -21.668 -18.018  0.00  0.00    -0.004 C 
ATOM     11  C   UNL     1      34.390 -22.741 -17.262  0.00  0.00    +0.062 C 
ATOM     12  C   UNL     1      36.692 -22.239 -16.754  0.00  0.00    +0.012 C 
ATOM     13  C   UNL     1      35.466 -22.774 -16.377  0.00  0.00    +0.068 C 
ATOM     14  H   UNL     1      31.875 -20.881 -20.056  0.00  0.00    -0.084 HD
ATOM     15  H   UNL     1      32.986 -20.249 -18.950  0.00  0.00    -0.084 HD
ENDROOT
TORSDOF 0
ENDMDL
MODEL 6
REMARK VINA RESULT:      -7.4      4.723      6.458
REMARK  Name = 121938
REMARK  0 active torsions:
REMARK  status: ('A' for Active; 'I' for Inactive)
REMARK                            x       y       z     vdW  Elec       q    Type
REMARK                         _______ _______ _______ _____ _____    ______ ____
ROOT
ATOM      1 CL   UNL     1      37.048 -19.065 -21.018  0.00  0.00    -0.082 Cl
ATOM      2 CL   UNL     1      34.414 -17.826 -22.237  0.00  0.00    -0.081 Cl
ATOM      3  N   UNL     1      36.747 -21.452 -17.804  0.00  0.00    +0.386 N 
ATOM      4  C   UNL     1      33.980 -22.688 -18.671  0.00  0.00    +0.024 C 
ATOM      5  C   UNL     1      34.505 -22.467 -17.251  0.00  0.00    -0.019 C 
ATOM      6  C   UNL     1      34.141 -21.476 -19.554  0.00  0.00    -0.027 C 
ATOM      7  C   UNL     1      36.028 -22.533 -17.126  0.00  0.00    -0.081 C 
ATOM      8  C   UNL     1      35.411 -20.933 -19.830  0.00  0.00    -0.036 C 
ATOM      9  C   UNL     1      36.668 -21.546 -19.263  0.00  0.00    -0.054 C 
ATOM     10  C   UNL     1      33.001 -20.882 -20.121  0.00  0.00    -0.004 C 
ATOM     11  C   UNL     1      35.507 -19.802 -20.659  0.00  0.00    +0.062 C 
ATOM     12  C   UNL     1      33.113 -19.760 -20.942  0.00  0.00    +0.012 C 
ATOM     13  C   UNL     1      34.366 -19.221 -21.209  0.00  0.00    +0.068 C 
ATOM     14  H   UNL     1      37.728 -21.492 -17.528  0.00  0.00    -0.084 HD
ATOM     15  H   UNL     1      36.309 -20.574 -17.530  0.00  0.00    -0.084 HD
ENDROOT
TORSDOF 0
ENDMDL
MODEL 7
REMARK VINA RESULT:      -7.2      2.573      3.848
REMARK  Name = 121938
REMARK  0 active torsions:
REMARK  status: ('A' for Active; 'I' for Inactive)
REMARK                            x       y       z     vdW  Elec       q    Type
REMARK                         _______ _______ _______ _____ _____    ______ ____
ROOT
ATOM      1 CL   UNL     1      34.697 -15.068 -21.232  0.00  0.00    -0.082 Cl
ATOM      2 CL   UNL     1      35.514 -17.956 -22.209  0.00  0.00    -0.081 Cl
ATOM      3  N   UNL     1      34.107 -12.200 -23.978  0.00  0.00    +0.386 N 
ATOM      4  C   UNL     1      32.921 -14.165 -26.139  0.00  0.00    +0.024 C 
ATOM      5  C   UNL     1      33.712 -12.878 -26.375  0.00  0.00    -0.019 C 
ATOM      6  C   UNL     1      33.564 -15.073 -25.120  0.00  0.00    -0.027 C 
ATOM      7  C   UNL     1      33.546 -11.826 -25.277  0.00  0.00    -0.081 C 
ATOM      8  C   UNL     1      33.777 -14.653 -23.794  0.00  0.00    -0.036 C 
ATOM      9  C   UNL     1      33.362 -13.279 -23.327  0.00  0.00    -0.054 C 
ATOM     10  C   UNL     1      33.950 -16.369 -25.502  0.00  0.00    -0.004 C 
ATOM     11  C   UNL     1      34.381 -15.537 -22.884  0.00  0.00    +0.062 C 
ATOM     12  C   UNL     1      34.548 -17.235 -24.587  0.00  0.00    +0.012 C 
ATOM     13  C   UNL     1      34.764 -16.818 -23.278  0.00  0.00    +0.068 C 
ATOM     14  H   UNL     1      34.093 -11.382 -23.370  0.00  0.00    -0.084 HD
ATOM     15  H   UNL     1      35.055 -12.538 -24.140  0.00  0.00    -0.084 HD
ENDROOT
TORSDOF 0
ENDMDL
MODEL 8
REMARK VINA RESULT:      -7.2      4.645      7.057
REMARK  Name = 121938
REMARK  0 active torsions:
REMARK  status: ('A' for Active; 'I' for Inactive)
REMARK                            x       y       z     vdW  Elec       q    Type
REMARK                         _______ _______ _______ _____ _____    ______ ____
ROOT
ATOM      1 CL   UNL     1      35.324 -10.072 -25.204  0.00  0.00    -0.082 Cl
ATOM      2 CL   UNL     1      34.755  -7.250 -23.912  0.00  0.00    -0.081 Cl
ATOM      3  N   UNL     1      34.090 -13.364 -23.265  0.00  0.00    +0.386 N 
ATOM      4  C   UNL     1      31.496 -12.007 -22.097  0.00  0.00    +0.024 C 
ATOM      5  C   UNL     1      32.328 -13.130 -21.475  0.00  0.00    -0.019 C 
ATOM      6  C   UNL     1      32.335 -10.852 -22.584  0.00  0.00    -0.027 C 
ATOM      7  C   UNL     1      33.037 -14.025 -22.493  0.00  0.00    -0.081 C 
ATOM      8  C   UNL     1      33.318 -11.026 -23.577  0.00  0.00    -0.036 C 
ATOM      9  C   UNL     1      33.568 -12.374 -24.209  0.00  0.00    -0.054 C 
ATOM     10  C   UNL     1      32.127  -9.573 -22.040  0.00  0.00    -0.004 C 
ATOM     11  C   UNL     1      34.073  -9.918 -23.996  0.00  0.00    +0.062 C 
ATOM     12  C   UNL     1      32.885  -8.483 -22.466  0.00  0.00    +0.012 C 
ATOM     13  C   UNL     1      33.858  -8.656 -23.443  0.00  0.00    +0.068 C 
ATOM     14  H   UNL     1      34.604 -14.072 -23.788  0.00  0.00    -0.084 HD
ATOM     15  H   UNL     1      34.689 -12.870 -22.604  0.00  0.00    -0.084 HD
ENDROOT
TORSDOF 0
ENDMDL
MODEL 9
REMARK VINA RESULT:      -7.2      2.534      4.395
REMARK  Name = 121938
REMARK  0 active torsions:
REMARK  status: ('A' for Active; 'I' for Inactive)
REMARK                            x       y       z     vdW  Elec       q    Type
REMARK                         _______ _______ _______ _____ _____    ______ ____
ROOT
ATOM      1 CL   UNL     1      33.351 -13.340 -24.677  0.00  0.00    -0.082 Cl
ATOM      2 CL   UNL     1      32.060 -11.583 -22.396  0.00  0.00    -0.081 Cl
ATOM      3  N   UNL     1      35.562 -16.525 -23.637  0.00  0.00    +0.386 N 
ATOM      4  C   UNL     1      33.825 -17.217 -21.100  0.00  0.00    +0.024 C 
ATOM      5  C   UNL     1      35.320 -17.464 -21.309  0.00  0.00    -0.019 C 
ATOM      6  C   UNL     1      33.401 -15.819 -21.474  0.00  0.00    -0.027 C 
ATOM      7  C   UNL     1      35.723 -17.691 -22.767  0.00  0.00    -0.081 C 
ATOM      8  C   UNL     1      33.564 -15.328 -22.783  0.00  0.00    -0.036 C 
ATOM      9  C   UNL     1      34.159 -16.183 -23.876  0.00  0.00    -0.054 C 
ATOM     10  C   UNL     1      32.823 -14.991 -20.497  0.00  0.00    -0.004 C 
ATOM     11  C   UNL     1      33.152 -14.018 -23.080  0.00  0.00    +0.062 C 
ATOM     12  C   UNL     1      32.420 -13.693 -20.807  0.00  0.00    +0.012 C 
ATOM     13  C   UNL     1      32.586 -13.206 -22.098  0.00  0.00    +0.068 C 
ATOM     14  H   UNL     1      36.005 -16.726 -24.534  0.00  0.00    -0.084 HD
ATOM     15  H   UNL     1      35.996 -15.731 -23.168  0.00  0.00    -0.084 HD
ENDROOT
TORSDOF 0
ENDMDL
