MODEL 1
REMARK VINA RESULT:      -9.4      0.000      0.000
REMARK  Name = 446493
REMARK  8 active torsions:
REMARK  status: ('A' for Active; 'I' for Inactive)
REMARK    1  A    between atoms: C_2  and  O_17
REMARK    2  A    between atoms: C_3  and  O_19
REMARK    3  A    between atoms: C_4  and  N_7
REMARK    4  A    between atoms: C_5  and  C_21
REMARK    5  A    between atoms: C_21  and  O_22
REMARK    6  A    between atoms: O_22  and  P_23
REMARK    7  A    between atoms: P_23  and  O_25
REMARK    8  A    between atoms: P_23  and  O_27
REMARK                            x       y       z     vdW  Elec       q    Type
REMARK                         _______ _______ _______ _____ _____    ______ ____
ROOT
ATOM      1  O   UNL     1      35.766 -25.203 -15.615  0.00  0.00    -0.333 OA
ATOM      2  C   UNL     1      35.539 -23.502 -13.960  0.00  0.00    +0.187 C 
ATOM      3  C   UNL     1      36.774 -24.329 -13.661  0.00  0.00    +0.171 C 
ATOM      4  C   UNL     1      34.776 -24.476 -14.854  0.00  0.00    +0.224 C 
ATOM      5  C   UNL     1      37.055 -24.963 -15.017  0.00  0.00    +0.176 C 
ENDROOT
BRANCH   4   7
ATOM      6  O   UNL     1      28.679 -22.495 -15.518  0.00  0.00    -0.206 OA
ATOM      7  N   UNL     1      33.785 -23.878 -15.742  0.00  0.00    -0.259 N 
ATOM      8  N   UNL     1      32.905 -22.970 -17.598  0.00  0.00    -0.232 NA
ATOM      9  N   UNL     1      30.656 -22.666 -16.639  0.00  0.00    -0.224 N 
ATOM     10  N   UNL     1      30.422 -23.412 -14.336  0.00  0.00    -0.161 NA
ATOM     11  C   UNL     1      32.479 -23.602 -15.464  0.00  0.00    +0.104 C 
ATOM     12  C   UNL     1      33.992 -23.476 -17.045  0.00  0.00    +0.223 C 
ATOM     13  C   UNL     1      31.974 -23.054 -16.608  0.00  0.00    +0.153 C 
ATOM     14  C   UNL     1      31.670 -23.777 -14.311  0.00  0.00    +0.130 C 
ATOM     15  C   UNL     1      29.863 -22.844 -15.490  0.00  0.00    +0.217 C 
ATOM     16  H   UNL     1      30.273 -22.269 -17.453  0.00  0.00    +0.167 HD
ENDBRANCH   4   7
BRANCH   2  17
ATOM     17  O   UNL     1      35.901 -22.331 -14.684  0.00  0.00    -0.378 OA
ATOM     18  H   UNL     1      36.867 -22.242 -14.694  0.00  0.00    +0.211 HD
ENDBRANCH   2  17
BRANCH   3  19
ATOM     19  O   UNL     1      37.865 -23.560 -13.200  0.00  0.00    -0.379 OA
ATOM     20  H   UNL     1      38.570 -24.151 -12.893  0.00  0.00    +0.211 HD
ENDBRANCH   3  19
BRANCH   5  21
ATOM     21  C   UNL     1      37.824 -26.269 -14.922  0.00  0.00    +0.186 C 
BRANCH  21  22
ATOM     22  O   UNL     1      38.858 -26.123 -13.962  0.00  0.00    -0.271 OA
BRANCH  22  23
ATOM     23  P   UNL     1      40.380 -25.957 -14.487  0.00  0.00    +0.473 P 
ATOM     24  O   UNL     1      41.334 -27.012 -14.008  0.00  0.00    -0.227 OA
BRANCH  23  25
ATOM     25  O   UNL     1      40.764 -24.441 -14.079  0.00  0.00    -0.303 OA
ATOM     26  H   UNL     1      41.470 -24.118 -14.662  0.00  0.00    +0.222 HD
ENDBRANCH  23  25
BRANCH  23  27
ATOM     27  O   UNL     1      40.201 -25.876 -16.092  0.00  0.00    -0.303 OA
ATOM     28  H   UNL     1      39.949 -26.749 -16.434  0.00  0.00    +0.222 HD
ENDBRANCH  23  27
ENDBRANCH  22  23
ENDBRANCH  21  22
ENDBRANCH   5  21
TORSDOF 8
ENDMDL
MODEL 2
REMARK VINA RESULT:      -9.1      1.553      2.602
REMARK  Name = 446493
REMARK  8 active torsions:
REMARK  status: ('A' for Active; 'I' for Inactive)
REMARK    1  A    between atoms: C_2  and  O_17
REMARK    2  A    between atoms: C_3  and  O_19
REMARK    3  A    between atoms: C_4  and  N_7
REMARK    4  A    between atoms: C_5  and  C_21
REMARK    5  A    between atoms: C_21  and  O_22
REMARK    6  A    between atoms: O_22  and  P_23
REMARK    7  A    between atoms: P_23  and  O_25
REMARK    8  A    between atoms: P_23  and  O_27
REMARK                            x       y       z     vdW  Elec       q    Type
REMARK                         _______ _______ _______ _____ _____    ______ ____
ROOT
ATOM      1  O   UNL     1      35.687 -25.298 -15.344  0.00  0.00    -0.333 OA
ATOM      2  C   UNL     1      35.577 -23.647 -13.628  0.00  0.00    +0.187 C 
ATOM      3  C   UNL     1      36.869 -24.428 -13.488  0.00  0.00    +0.171 C 
ATOM      4  C   UNL     1      34.759 -24.631 -14.460  0.00  0.00    +0.224 C 
ATOM      5  C   UNL     1      37.024 -25.019 -14.883  0.00  0.00    +0.176 C 
ENDROOT
BRANCH   4   7
ATOM      6  O   UNL     1      32.971 -21.644 -19.884  0.00  0.00    -0.206 OA
ATOM      7  N   UNL     1      33.655 -24.054 -15.219  0.00  0.00    -0.259 N 
ATOM      8  N   UNL     1      31.563 -23.414 -15.725  0.00  0.00    -0.232 NA
ATOM      9  N   UNL     1      32.158 -22.454 -17.914  0.00  0.00    -0.224 N 
ATOM     10  N   UNL     1      34.516 -22.616 -18.489  0.00  0.00    -0.161 NA
ATOM     11  C   UNL     1      33.709 -23.464 -16.447  0.00  0.00    +0.104 C 
ATOM     12  C   UNL     1      32.334 -23.998 -14.826  0.00  0.00    +0.223 C 
ATOM     13  C   UNL     1      32.427 -23.087 -16.724  0.00  0.00    +0.153 C 
ATOM     14  C   UNL     1      34.765 -23.215 -17.363  0.00  0.00    +0.130 C 
ATOM     15  C   UNL     1      33.212 -22.212 -18.815  0.00  0.00    +0.217 C 
ATOM     16  H   UNL     1      31.241 -22.175 -18.133  0.00  0.00    +0.167 HD
ENDBRANCH   4   7
BRANCH   2  17
ATOM     17  O   UNL     1      35.813 -22.446 -14.356  0.00  0.00    -0.378 OA
ATOM     18  H   UNL     1      36.714 -22.133 -14.181  0.00  0.00    +0.211 HD
ENDBRANCH   2  17
BRANCH   3  19
ATOM     19  O   UNL     1      37.973 -23.626 -13.127  0.00  0.00    -0.379 OA
ATOM     20  H   UNL     1      38.791 -24.137 -13.228  0.00  0.00    +0.211 HD
ENDBRANCH   3  19
BRANCH   5  21
ATOM     21  C   UNL     1      37.849 -26.294 -14.907  0.00  0.00    +0.186 C 
BRANCH  21  22
ATOM     22  O   UNL     1      38.904 -26.175 -13.967  0.00  0.00    -0.271 OA
BRANCH  22  23
ATOM     23  P   UNL     1      40.369 -25.745 -14.504  0.00  0.00    +0.473 P 
ATOM     24  O   UNL     1      40.860 -24.415 -14.013  0.00  0.00    -0.227 OA
BRANCH  23  25
ATOM     25  O   UNL     1      40.247 -25.888 -16.110  0.00  0.00    -0.303 OA
ATOM     26  H   UNL     1      40.114 -25.011 -16.504  0.00  0.00    +0.222 HD
ENDBRANCH  23  25
BRANCH  23  27
ATOM     27  O   UNL     1      41.290 -27.008 -14.088  0.00  0.00    -0.303 OA
ATOM     28  H   UNL     1      40.725 -27.778 -13.916  0.00  0.00    +0.222 HD
ENDBRANCH  23  27
ENDBRANCH  22  23
ENDBRANCH  21  22
ENDBRANCH   5  21
TORSDOF 8
ENDMDL
MODEL 3
REMARK VINA RESULT:      -9.0      1.789      2.738
REMARK  Name = 446493
REMARK  8 active torsions:
REMARK  status: ('A' for Active; 'I' for Inactive)
REMARK    1  A    between atoms: C_2  and  O_17
REMARK    2  A    between atoms: C_3  and  O_19
REMARK    3  A    between atoms: C_4  and  N_7
REMARK    4  A    between atoms: C_5  and  C_21
REMARK    5  A    between atoms: C_21  and  O_22
REMARK    6  A    between atoms: O_22  and  P_23
REMARK    7  A    between atoms: P_23  and  O_25
REMARK    8  A    between atoms: P_23  and  O_27
REMARK                            x       y       z     vdW  Elec       q    Type
REMARK                         _______ _______ _______ _____ _____    ______ ____
ROOT
ATOM      1  O   UNL     1      34.315 -23.981 -13.749  0.00  0.00    -0.333 OA
ATOM      2  C   UNL     1      34.218 -23.186 -15.995  0.00  0.00    +0.187 C 
ATOM      3  C   UNL     1      35.617 -22.976 -15.450  0.00  0.00    +0.171 C 
ATOM      4  C   UNL     1      33.440 -23.317 -14.688  0.00  0.00    +0.224 C 
ATOM      5  C   UNL     1      35.649 -23.967 -14.294  0.00  0.00    +0.176 C 
ENDROOT
BRANCH   4   7
ATOM      6  O   UNL     1      27.602 -23.473 -17.414  0.00  0.00    -0.206 OA
ATOM      7  N   UNL     1      32.162 -24.015 -14.778  0.00  0.00    -0.259 N 
ATOM      8  N   UNL     1      30.577 -25.554 -14.376  0.00  0.00    -0.232 NA
ATOM      9  N   UNL     1      28.931 -24.574 -15.925  0.00  0.00    -0.224 N 
ATOM     10  N   UNL     1      29.689 -22.573 -17.083  0.00  0.00    -0.161 NA
ATOM     11  C   UNL     1      31.089 -23.687 -15.552  0.00  0.00    +0.104 C 
ATOM     12  C   UNL     1      31.801 -25.153 -14.086  0.00  0.00    +0.223 C 
ATOM     13  C   UNL     1      30.146 -24.638 -15.285  0.00  0.00    +0.153 C 
ATOM     14  C   UNL     1      30.837 -22.638 -16.475  0.00  0.00    +0.130 C 
ATOM     15  C   UNL     1      28.692 -23.530 -16.839  0.00  0.00    +0.217 C 
ATOM     16  H   UNL     1      28.239 -25.249 -15.747  0.00  0.00    +0.167 HD
ENDBRANCH   4   7
BRANCH   2  17
ATOM     17  O   UNL     1      34.163 -24.400 -16.738  0.00  0.00    -0.378 OA
ATOM     18  H   UNL     1      34.997 -24.524 -17.217  0.00  0.00    +0.211 HD
ENDBRANCH   2  17
BRANCH   3  19
ATOM     19  O   UNL     1      36.632 -23.235 -16.396  0.00  0.00    -0.379 OA
ATOM     20  H   UNL     1      37.267 -22.501 -16.399  0.00  0.00    +0.211 HD
ENDBRANCH   3  19
BRANCH   5  21
ATOM     21  C   UNL     1      36.640 -23.591 -13.206  0.00  0.00    +0.186 C 
BRANCH  21  22
ATOM     22  O   UNL     1      37.954 -23.684 -13.732  0.00  0.00    -0.271 OA
BRANCH  22  23
ATOM     23  P   UNL     1      38.636 -25.147 -13.846  0.00  0.00    +0.473 P 
ATOM     24  O   UNL     1      38.171 -26.146 -12.828  0.00  0.00    -0.227 OA
BRANCH  23  25
ATOM     25  O   UNL     1      40.222 -24.833 -13.831  0.00  0.00    -0.303 OA
ATOM     26  H   UNL     1      40.606 -25.144 -12.995  0.00  0.00    +0.222 HD
ENDBRANCH  23  25
BRANCH  23  27
ATOM     27  O   UNL     1      38.355 -25.558 -15.384  0.00  0.00    -0.303 OA
ATOM     28  H   UNL     1      39.188 -25.822 -15.807  0.00  0.00    +0.222 HD
ENDBRANCH  23  27
ENDBRANCH  22  23
ENDBRANCH  21  22
ENDBRANCH   5  21
TORSDOF 8
ENDMDL
MODEL 4
REMARK VINA RESULT:      -8.9      8.932     11.247
REMARK  Name = 446493
REMARK  8 active torsions:
REMARK  status: ('A' for Active; 'I' for Inactive)
REMARK    1  A    between atoms: C_2  and  O_17
REMARK    2  A    between atoms: C_3  and  O_19
REMARK    3  A    between atoms: C_4  and  N_7
REMARK    4  A    between atoms: C_5  and  C_21
REMARK    5  A    between atoms: C_21  and  O_22
REMARK    6  A    between atoms: O_22  and  P_23
REMARK    7  A    between atoms: P_23  and  O_25
REMARK    8  A    between atoms: P_23  and  O_27
REMARK                            x       y       z     vdW  Elec       q    Type
REMARK                         _______ _______ _______ _____ _____    ______ ____
ROOT
ATOM      1  O   UNL     1      34.642 -16.980 -21.112  0.00  0.00    -0.333 OA
ATOM      2  C   UNL     1      34.908 -18.189 -23.150  0.00  0.00    +0.187 C 
ATOM      3  C   UNL     1      34.514 -16.759 -23.464  0.00  0.00    +0.171 C 
ATOM      4  C   UNL     1      34.436 -18.284 -21.702  0.00  0.00    +0.224 C 
ATOM      5  C   UNL     1      34.899 -16.043 -22.176  0.00  0.00    +0.176 C 
ENDROOT
BRANCH   4   7
ATOM      6  O   UNL     1      33.607 -23.689 -18.291  0.00  0.00    -0.206 OA
ATOM      7  N   UNL     1      35.074 -19.317 -20.894  0.00  0.00    -0.259 N 
ATOM      8  N   UNL     1      36.696 -20.447 -19.828  0.00  0.00    -0.232 NA
ATOM      9  N   UNL     1      35.198 -22.201 -18.962  0.00  0.00    -0.224 N 
ATOM     10  N   UNL     1      32.862 -21.946 -19.589  0.00  0.00    -0.161 NA
ATOM     11  C   UNL     1      34.481 -20.392 -20.300  0.00  0.00    +0.104 C 
ATOM     12  C   UNL     1      36.414 -19.397 -20.578  0.00  0.00    +0.223 C 
ATOM     13  C   UNL     1      35.490 -21.055 -19.663  0.00  0.00    +0.153 C 
ATOM     14  C   UNL     1      33.142 -20.863 -20.251  0.00  0.00    +0.130 C 
ATOM     15  C   UNL     1      33.868 -22.660 -18.920  0.00  0.00    +0.217 C 
ATOM     16  H   UNL     1      35.911 -22.694 -18.496  0.00  0.00    +0.167 HD
ENDBRANCH   4   7
BRANCH   2  17
ATOM     17  O   UNL     1      36.323 -18.330 -23.229  0.00  0.00    -0.378 OA
ATOM     18  H   UNL     1      36.588 -19.171 -22.824  0.00  0.00    +0.211 HD
ENDBRANCH   2  17
BRANCH   3  19
ATOM     19  O   UNL     1      35.184 -16.226 -24.586  0.00  0.00    -0.379 OA
ATOM     20  H   UNL     1      34.586 -15.635 -25.071  0.00  0.00    +0.211 HD
ENDBRANCH   3  19
BRANCH   5  21
ATOM     21  C   UNL     1      34.108 -14.769 -21.936  0.00  0.00    +0.186 C 
BRANCH  21  22
ATOM     22  O   UNL     1      34.453 -13.822 -22.933  0.00  0.00    -0.271 OA
BRANCH  22  23
ATOM     23  P   UNL     1      33.260 -13.059 -23.717  0.00  0.00    +0.473 P 
ATOM     24  O   UNL     1      33.533 -11.620 -24.042  0.00  0.00    -0.227 OA
BRANCH  23  25
ATOM     25  O   UNL     1      31.961 -13.324 -22.791  0.00  0.00    -0.303 OA
ATOM     26  H   UNL     1      31.283 -12.658 -22.987  0.00  0.00    +0.222 HD
ENDBRANCH  23  25
BRANCH  23  27
ATOM     27  O   UNL     1      33.003 -14.012 -24.998  0.00  0.00    -0.303 OA
ATOM     28  H   UNL     1      32.726 -14.891 -24.697  0.00  0.00    +0.222 HD
ENDBRANCH  23  27
ENDBRANCH  22  23
ENDBRANCH  21  22
ENDBRANCH   5  21
TORSDOF 8
ENDMDL
MODEL 5
REMARK VINA RESULT:      -8.8      3.809      8.225
REMARK  Name = 446493
REMARK  8 active torsions:
REMARK  status: ('A' for Active; 'I' for Inactive)
REMARK    1  A    between atoms: C_2  and  O_17
REMARK    2  A    between atoms: C_3  and  O_19
REMARK    3  A    between atoms: C_4  and  N_7
REMARK    4  A    between atoms: C_5  and  C_21
REMARK    5  A    between atoms: C_21  and  O_22
REMARK    6  A    between atoms: O_22  and  P_23
REMARK    7  A    between atoms: P_23  and  O_25
REMARK    8  A    between atoms: P_23  and  O_27
REMARK                            x       y       z     vdW  Elec       q    Type
REMARK                         _______ _______ _______ _____ _____    ______ ____
ROOT
ATOM      1  O   UNL     1      32.159 -22.922 -15.244  0.00  0.00    -0.333 OA
ATOM      2  C   UNL     1      31.900 -24.602 -13.573  0.00  0.00    +0.187 C 
ATOM      3  C   UNL     1      30.547 -23.988 -13.879  0.00  0.00    +0.171 C 
ATOM      4  C   UNL     1      32.817 -23.500 -14.095  0.00  0.00    +0.224 C 
ATOM      5  C   UNL     1      30.791 -23.376 -15.251  0.00  0.00    +0.176 C 
ENDROOT
BRANCH   4   7
ATOM      6  O   UNL     1      38.404 -25.865 -11.922  0.00  0.00    -0.206 OA
ATOM      7  N   UNL     1      34.173 -23.914 -14.437  0.00  0.00    -0.259 N 
ATOM      8  N   UNL     1      35.992 -24.321 -15.691  0.00  0.00    -0.232 NA
ATOM      9  N   UNL     1      37.361 -25.148 -13.817  0.00  0.00    -0.224 N 
ATOM     10  N   UNL     1      36.237 -25.152 -11.660  0.00  0.00    -0.161 NA
ATOM     11  C   UNL     1      35.129 -24.405 -13.598  0.00  0.00    +0.104 C 
ATOM     12  C   UNL     1      34.746 -23.884 -15.692  0.00  0.00    +0.223 C 
ATOM     13  C   UNL     1      36.218 -24.641 -14.388  0.00  0.00    +0.153 C 
ATOM     14  C   UNL     1      35.158 -24.673 -12.204  0.00  0.00    +0.130 C 
ATOM     15  C   UNL     1      37.378 -25.410 -12.434  0.00  0.00    +0.217 C 
ATOM     16  H   UNL     1      38.156 -25.325 -14.369  0.00  0.00    +0.167 HD
ENDBRANCH   4   7
BRANCH   2  17
ATOM     17  O   UNL     1      32.070 -25.799 -14.325  0.00  0.00    -0.378 OA
ATOM     18  H   UNL     1      31.584 -25.728 -15.162  0.00  0.00    +0.211 HD
ENDBRANCH   2  17
BRANCH   3  19
ATOM     19  O   UNL     1      29.496 -24.929 -13.898  0.00  0.00    -0.379 OA
ATOM     20  H   UNL     1      29.809 -25.772 -13.535  0.00  0.00    +0.211 HD
ENDBRANCH   3  19
BRANCH   5  21
ATOM     21  C   UNL     1      29.868 -22.210 -15.563  0.00  0.00    +0.186 C 
BRANCH  21  22
ATOM     22  O   UNL     1      29.319 -22.394 -16.857  0.00  0.00    -0.271 OA
BRANCH  22  23
ATOM     23  P   UNL     1      27.756 -22.794 -16.981  0.00  0.00    +0.473 P 
ATOM     24  O   UNL     1      27.485 -24.080 -17.704  0.00  0.00    -0.227 OA
BRANCH  23  25
ATOM     25  O   UNL     1      27.074 -21.479 -17.631  0.00  0.00    -0.303 OA
ATOM     26  H   UNL     1      26.841 -21.659 -18.556  0.00  0.00    +0.222 HD
ENDBRANCH  23  25
BRANCH  23  27
ATOM     27  O   UNL     1      27.250 -22.754 -15.446  0.00  0.00    -0.303 OA
ATOM     28  H   UNL     1      28.014 -22.815 -14.851  0.00  0.00    +0.222 HD
ENDBRANCH  23  27
ENDBRANCH  22  23
ENDBRANCH  21  22
ENDBRANCH   5  21
TORSDOF 8
ENDMDL
MODEL 6
REMARK VINA RESULT:      -8.6      2.530      4.052
REMARK  Name = 446493
REMARK  8 active torsions:
REMARK  status: ('A' for Active; 'I' for Inactive)
REMARK    1  A    between atoms: C_2  and  O_17
REMARK    2  A    between atoms: C_3  and  O_19
REMARK    3  A    between atoms: C_4  and  N_7
REMARK    4  A    between atoms: C_5  and  C_21
REMARK    5  A    between atoms: C_21  and  O_22
REMARK    6  A    between atoms: O_22  and  P_23
REMARK    7  A    between atoms: P_23  and  O_25
REMARK    8  A    between atoms: P_23  and  O_27
REMARK                            x       y       z     vdW  Elec       q    Type
REMARK                         _______ _______ _______ _____ _____    ______ ____
ROOT
ATOM      1  O   UNL     1      36.031 -23.193 -15.460  0.00  0.00    -0.333 OA
ATOM      2  C   UNL     1      33.906 -23.897 -14.641  0.00  0.00    +0.187 C 
ATOM      3  C   UNL     1      34.951 -24.100 -13.561  0.00  0.00    +0.171 C 
ATOM      4  C   UNL     1      34.804 -23.836 -15.873  0.00  0.00    +0.224 C 
ATOM      5  C   UNL     1      36.055 -23.157 -14.020  0.00  0.00    +0.176 C 
ENDROOT
BRANCH   4   7
ATOM      6  O   UNL     1      35.933 -19.928 -20.872  0.00  0.00    -0.206 OA
ATOM      7  N   UNL     1      34.239 -23.161 -17.036  0.00  0.00    -0.259 N 
ATOM      8  N   UNL     1      32.713 -22.505 -18.547  0.00  0.00    -0.232 NA
ATOM      9  N   UNL     1      34.284 -21.125 -19.850  0.00  0.00    -0.224 N 
ATOM     10  N   UNL     1      36.562 -21.097 -18.997  0.00  0.00    -0.161 NA
ATOM     11  C   UNL     1      34.883 -22.345 -17.918  0.00  0.00    +0.104 C 
ATOM     12  C   UNL     1      32.928 -23.224 -17.461  0.00  0.00    +0.223 C 
ATOM     13  C   UNL     1      33.932 -21.965 -18.821  0.00  0.00    +0.153 C 
ATOM     14  C   UNL     1      36.224 -21.891 -18.025  0.00  0.00    +0.130 C 
ATOM     15  C   UNL     1      35.616 -20.681 -19.947  0.00  0.00    +0.217 C 
ATOM     16  H   UNL     1      33.614 -20.839 -20.511  0.00  0.00    +0.167 HD
ENDBRANCH   4   7
BRANCH   2  17
ATOM     17  O   UNL     1      33.238 -22.655 -14.442  0.00  0.00    -0.378 OA
ATOM     18  H   UNL     1      33.689 -21.960 -14.946  0.00  0.00    +0.211 HD
ENDBRANCH   2  17
BRANCH   3  19
ATOM     19  O   UNL     1      34.488 -23.782 -12.266  0.00  0.00    -0.379 OA
ATOM     20  H   UNL     1      34.231 -24.596 -11.805  0.00  0.00    +0.211 HD
ENDBRANCH   3  19
BRANCH   5  21
ATOM     21  C   UNL     1      37.433 -23.557 -13.522  0.00  0.00    +0.186 C 
BRANCH  21  22
ATOM     22  O   UNL     1      38.205 -24.005 -14.624  0.00  0.00    -0.271 OA
BRANCH  22  23
ATOM     23  P   UNL     1      38.606 -25.571 -14.698  0.00  0.00    +0.473 P 
ATOM     24  O   UNL     1      38.770 -26.248 -13.370  0.00  0.00    -0.227 OA
BRANCH  23  25
ATOM     25  O   UNL     1      39.915 -25.587 -15.648  0.00  0.00    -0.303 OA
ATOM     26  H   UNL     1      39.652 -25.409 -16.565  0.00  0.00    +0.222 HD
ENDBRANCH  23  25
BRANCH  23  27
ATOM     27  O   UNL     1      37.453 -26.194 -15.645  0.00  0.00    -0.303 OA
ATOM     28  H   UNL     1      37.032 -26.943 -15.193  0.00  0.00    +0.222 HD
ENDBRANCH  23  27
ENDBRANCH  22  23
ENDBRANCH  21  22
ENDBRANCH   5  21
TORSDOF 8
ENDMDL
MODEL 7
REMARK VINA RESULT:      -8.5      3.572      8.078
REMARK  Name = 446493
REMARK  8 active torsions:
REMARK  status: ('A' for Active; 'I' for Inactive)
REMARK    1  A    between atoms: C_2  and  O_17
REMARK    2  A    between atoms: C_3  and  O_19
REMARK    3  A    between atoms: C_4  and  N_7
REMARK    4  A    between atoms: C_5  and  C_21
REMARK    5  A    between atoms: C_21  and  O_22
REMARK    6  A    between atoms: O_22  and  P_23
REMARK    7  A    between atoms: P_23  and  O_25
REMARK    8  A    between atoms: P_23  and  O_27
REMARK                            x       y       z     vdW  Elec       q    Type
REMARK                         _______ _______ _______ _____ _____    ______ ____
ROOT
ATOM      1  O   UNL     1      32.893 -24.014 -13.539  0.00  0.00    -0.333 OA
ATOM      2  C   UNL     1      34.029 -23.877 -15.630  0.00  0.00    +0.187 C 
ATOM      3  C   UNL     1      32.543 -23.672 -15.853  0.00  0.00    +0.171 C 
ATOM      4  C   UNL     1      34.001 -24.579 -14.275  0.00  0.00    +0.224 C 
ATOM      5  C   UNL     1      32.076 -23.268 -14.462  0.00  0.00    +0.176 C 
ENDROOT
BRANCH   4   7
ATOM      6  O   UNL     1      40.212 -26.250 -13.867  0.00  0.00    -0.206 OA
ATOM      7  N   UNL     1      35.230 -24.496 -13.494  0.00  0.00    -0.259 N 
ATOM      8  N   UNL     1      36.622 -23.941 -11.821  0.00  0.00    -0.232 NA
ATOM      9  N   UNL     1      38.573 -25.104 -12.774  0.00  0.00    -0.224 N 
ATOM     10  N   UNL     1      38.157 -26.222 -14.894  0.00  0.00    -0.161 NA
ATOM     11  C   UNL     1      36.442 -25.044 -13.791  0.00  0.00    +0.104 C 
ATOM     12  C   UNL     1      35.392 -23.839 -12.291  0.00  0.00    +0.223 C 
ATOM     13  C   UNL     1      37.263 -24.690 -12.758  0.00  0.00    +0.153 C 
ATOM     14  C   UNL     1      36.918 -25.828 -14.875  0.00  0.00    +0.130 C 
ATOM     15  C   UNL     1      39.034 -25.880 -13.854  0.00  0.00    +0.217 C 
ATOM     16  H   UNL     1      39.181 -24.859 -12.040  0.00  0.00    +0.167 HD
ENDBRANCH   4   7
BRANCH   2  17
ATOM     17  O   UNL     1      34.684 -22.616 -15.531  0.00  0.00    -0.378 OA
ATOM     18  H   UNL     1      34.338 -22.017 -16.212  0.00  0.00    +0.211 HD
ENDBRANCH   2  17
BRANCH   3  19
ATOM     19  O   UNL     1      32.253 -22.683 -16.818  0.00  0.00    -0.379 OA
ATOM     20  H   UNL     1      31.292 -22.554 -16.870  0.00  0.00    +0.211 HD
ENDBRANCH   3  19
BRANCH   5  21
ATOM     21  C   UNL     1      30.610 -23.573 -14.208  0.00  0.00    +0.186 C 
BRANCH  21  22
ATOM     22  O   UNL     1      29.828 -22.488 -14.679  0.00  0.00    -0.271 OA
BRANCH  22  23
ATOM     23  P   UNL     1      28.676 -22.788 -15.776  0.00  0.00    +0.473 P 
ATOM     24  O   UNL     1      27.375 -22.080 -15.540  0.00  0.00    -0.227 OA
BRANCH  23  25
ATOM     25  O   UNL     1      28.588 -24.402 -15.809  0.00  0.00    -0.303 OA
ATOM     26  H   UNL     1      28.043 -24.682 -16.561  0.00  0.00    +0.222 HD
ENDBRANCH  23  25
BRANCH  23  27
ATOM     27  O   UNL     1      29.406 -22.428 -17.174  0.00  0.00    -0.303 OA
ATOM     28  H   UNL     1      28.948 -21.684 -17.596  0.00  0.00    +0.222 HD
ENDBRANCH  23  27
ENDBRANCH  22  23
ENDBRANCH  21  22
ENDBRANCH   5  21
TORSDOF 8
ENDMDL
MODEL 8
REMARK VINA RESULT:      -8.4      6.912      8.593
REMARK  Name = 446493
REMARK  8 active torsions:
REMARK  status: ('A' for Active; 'I' for Inactive)
REMARK    1  A    between atoms: C_2  and  O_17
REMARK    2  A    between atoms: C_3  and  O_19
REMARK    3  A    between atoms: C_4  and  N_7
REMARK    4  A    between atoms: C_5  and  C_21
REMARK    5  A    between atoms: C_21  and  O_22
REMARK    6  A    between atoms: O_22  and  P_23
REMARK    7  A    between atoms: P_23  and  O_25
REMARK    8  A    between atoms: P_23  and  O_27
REMARK                            x       y       z     vdW  Elec       q    Type
REMARK                         _______ _______ _______ _____ _____    ______ ____
ROOT
ATOM      1  O   UNL     1      35.774 -19.981 -20.044  0.00  0.00    -0.333 OA
ATOM      2  C   UNL     1      33.635 -20.526 -20.946  0.00  0.00    +0.187 C 
ATOM      3  C   UNL     1      34.081 -21.633 -20.010  0.00  0.00    +0.171 C 
ATOM      4  C   UNL     1      34.983 -19.875 -21.248  0.00  0.00    +0.224 C 
ATOM      5  C   UNL     1      35.124 -20.918 -19.162  0.00  0.00    +0.176 C 
ENDROOT
BRANCH   4   7
ATOM      6  O   UNL     1      34.125 -15.919 -26.263  0.00  0.00    -0.206 OA
ATOM      7  N   UNL     1      34.929 -18.491 -21.705  0.00  0.00    -0.259 N 
ATOM      8  N   UNL     1      35.000 -16.248 -21.622  0.00  0.00    -0.232 NA
ATOM      9  N   UNL     1      34.552 -15.932 -24.024  0.00  0.00    -0.224 N 
ATOM     10  N   UNL     1      34.261 -17.992 -25.284  0.00  0.00    -0.161 NA
ATOM     11  C   UNL     1      34.699 -18.042 -22.972  0.00  0.00    +0.104 C 
ATOM     12  C   UNL     1      35.105 -17.366 -20.927  0.00  0.00    +0.223 C 
ATOM     13  C   UNL     1      34.749 -16.680 -22.888  0.00  0.00    +0.153 C 
ATOM     14  C   UNL     1      34.448 -18.696 -24.207  0.00  0.00    +0.130 C 
ATOM     15  C   UNL     1      34.303 -16.590 -25.243  0.00  0.00    +0.217 C 
ATOM     16  H   UNL     1      34.584 -14.950 -23.984  0.00  0.00    +0.167 HD
ENDBRANCH   4   7
BRANCH   2  17
ATOM     17  O   UNL     1      32.782 -19.619 -20.255  0.00  0.00    -0.378 OA
ATOM     18  H   UNL     1      32.261 -20.104 -19.595  0.00  0.00    +0.211 HD
ENDBRANCH   2  17
BRANCH   3  19
ATOM     19  O   UNL     1      33.031 -22.158 -19.225  0.00  0.00    -0.379 OA
ATOM     20  H   UNL     1      32.844 -21.556 -18.488  0.00  0.00    +0.211 HD
ENDBRANCH   3  19
BRANCH   5  21
ATOM     21  C   UNL     1      36.158 -21.856 -18.563  0.00  0.00    +0.186 C 
BRANCH  21  22
ATOM     22  O   UNL     1      35.552 -22.594 -17.515  0.00  0.00    -0.271 OA
BRANCH  22  23
ATOM     23  P   UNL     1      36.298 -22.647 -16.080  0.00  0.00    +0.473 P 
ATOM     24  O   UNL     1      37.467 -21.717 -15.936  0.00  0.00    -0.227 OA
BRANCH  23  25
ATOM     25  O   UNL     1      36.634 -24.216 -15.878  0.00  0.00    -0.303 OA
ATOM     26  H   UNL     1      37.464 -24.430 -16.333  0.00  0.00    +0.222 HD
ENDBRANCH  23  25
BRANCH  23  27
ATOM     27  O   UNL     1      35.089 -22.389 -15.036  0.00  0.00    -0.303 OA
ATOM     28  H   UNL     1      34.637 -21.562 -15.263  0.00  0.00    +0.222 HD
ENDBRANCH  23  27
ENDBRANCH  22  23
ENDBRANCH  21  22
ENDBRANCH   5  21
TORSDOF 8
ENDMDL
MODEL 9
REMARK VINA RESULT:      -8.0      3.553      6.924
REMARK  Name = 446493
REMARK  8 active torsions:
REMARK  status: ('A' for Active; 'I' for Inactive)
REMARK    1  A    between atoms: C_2  and  O_17
REMARK    2  A    between atoms: C_3  and  O_19
REMARK    3  A    between atoms: C_4  and  N_7
REMARK    4  A    between atoms: C_5  and  C_21
REMARK    5  A    between atoms: C_21  and  O_22
REMARK    6  A    between atoms: O_22  and  P_23
REMARK    7  A    between atoms: P_23  and  O_25
REMARK    8  A    between atoms: P_23  and  O_27
REMARK                            x       y       z     vdW  Elec       q    Type
REMARK                         _______ _______ _______ _____ _____    ______ ____
ROOT
ATOM      1  O   UNL     1      33.911 -23.657 -15.289  0.00  0.00    -0.333 OA
ATOM      2  C   UNL     1      32.422 -23.867 -13.438  0.00  0.00    +0.187 C 
ATOM      3  C   UNL     1      31.654 -23.363 -14.645  0.00  0.00    +0.171 C 
ATOM      4  C   UNL     1      33.843 -23.496 -13.854  0.00  0.00    +0.224 C 
ATOM      5  C   UNL     1      32.566 -23.785 -15.789  0.00  0.00    +0.176 C 
ENDROOT
BRANCH   4   7
ATOM      6  O   UNL     1      39.197 -26.991 -14.666  0.00  0.00    -0.206 OA
ATOM      7  N   UNL     1      34.910 -24.248 -13.204  0.00  0.00    -0.259 N 
ATOM      8  N   UNL     1      36.126 -25.172 -11.557  0.00  0.00    -0.232 NA
ATOM      9  N   UNL     1      37.797 -26.175 -13.063  0.00  0.00    -0.224 N 
ATOM     10  N   UNL     1      37.417 -25.756 -15.429  0.00  0.00    -0.161 NA
ATOM     11  C   UNL     1      35.951 -24.898 -13.798  0.00  0.00    +0.104 C 
ATOM     12  C   UNL     1      35.062 -24.445 -11.847  0.00  0.00    +0.223 C 
ATOM     13  C   UNL     1      36.668 -25.446 -12.774  0.00  0.00    +0.153 C 
ATOM     14  C   UNL     1      36.350 -25.067 -15.151  0.00  0.00    +0.130 C 
ATOM     15  C   UNL     1      38.183 -26.337 -14.407  0.00  0.00    +0.217 C 
ATOM     16  H   UNL     1      38.327 -26.578 -12.339  0.00  0.00    +0.167 HD
ENDBRANCH   4   7
BRANCH   2  17
ATOM     17  O   UNL     1      32.282 -25.280 -13.329  0.00  0.00    -0.378 OA
ATOM     18  H   UNL     1      31.341 -25.515 -13.352  0.00  0.00    +0.211 HD
ENDBRANCH   2  17
BRANCH   3  19
ATOM     19  O   UNL     1      30.364 -23.925 -14.762  0.00  0.00    -0.379 OA
ATOM     20  H   UNL     1      29.752 -23.259 -15.113  0.00  0.00    +0.211 HD
ENDBRANCH   3  19
BRANCH   5  21
ATOM     21  C   UNL     1      32.401 -22.932 -17.035  0.00  0.00    +0.186 C 
BRANCH  21  22
ATOM     22  O   UNL     1      33.685 -22.616 -17.546  0.00  0.00    -0.271 OA
BRANCH  22  23
ATOM     23  P   UNL     1      33.872 -22.508 -19.150  0.00  0.00    +0.473 P 
ATOM     24  O   UNL     1      32.804 -21.730 -19.862  0.00  0.00    -0.227 OA
BRANCH  23  25
ATOM     25  O   UNL     1      34.038 -24.045 -19.622  0.00  0.00    -0.303 OA
ATOM     26  H   UNL     1      34.871 -24.147 -20.109  0.00  0.00    +0.222 HD
ENDBRANCH  23  25
BRANCH  23  27
ATOM     27  O   UNL     1      35.367 -21.910 -19.300  0.00  0.00    -0.303 OA
ATOM     28  H   UNL     1      36.015 -22.609 -19.118  0.00  0.00    +0.222 HD
ENDBRANCH  23  27
ENDBRANCH  22  23
ENDBRANCH  21  22
ENDBRANCH   5  21
TORSDOF 8
ENDMDL
