MODEL 1
REMARK VINA RESULT:      -6.1      0.000      0.000
REMARK  Name = 14463
REMARK  7 active torsions:
REMARK  status: ('A' for Active; 'I' for Inactive)
REMARK    1  A    between atoms: CA_1  and  N_2
REMARK    2  A    between atoms: CA_1  and  C_7
REMARK    3  A    between atoms: CA_1  and  C_10
REMARK    4  A    between atoms: C_7  and  O_8
REMARK    5  A    between atoms: C_10  and  O_11
REMARK    6  A    between atoms: C_10  and  C_14
REMARK    7  A    between atoms: C_14  and  O_15
REMARK                            x       y       z     vdW  Elec       q    Type
REMARK                         _______ _______ _______ _____ _____    ______ ____
ROOT
ATOM      1  CA  UNL     1      38.700 -25.519 -14.309  0.00  0.00    +0.074 C 
ENDROOT
BRANCH   1   2
ATOM      2  N   UNL     1      38.302 -24.518 -15.305  0.00  0.00    +0.391 N 
ATOM      3  H1  UNL     1      37.303 -24.332 -15.220  0.00  0.00    -0.088 HD
ATOM      4  H2  UNL     1      38.503 -24.872 -16.240  0.00  0.00    -0.088 HD
ATOM      5  H3  UNL     1      38.824 -23.656 -15.147  0.00  0.00    -0.088 HD
ENDBRANCH   1   2
BRANCH   1   7
ATOM      6  OXT UNL     1      40.912 -26.476 -13.910  0.00  0.00    -0.253 OA
ATOM      7  C   UNL     1      40.087 -26.017 -14.690  0.00  0.00    +0.296 C 
BRANCH   7   8
ATOM      8  O   UNL     1      40.332 -25.882 -16.019  0.00  0.00    -0.482 OA
ATOM      9  H   UNL     1      40.335 -25.031 -16.411  0.00  0.00    +0.295 HD
ENDBRANCH   7   8
ENDBRANCH   1   7
BRANCH   1  10
ATOM     10  C   UNL     1      37.663 -26.650 -14.276  0.00  0.00    +0.200 C 
BRANCH  10  11
ATOM     11  O   UNL     1      36.978 -26.651 -13.031  0.00  0.00    -0.375 OA
ATOM     12  H   UNL     1      37.526 -26.214 -12.361  0.00  0.00    +0.211 HD
ENDBRANCH  10  11
BRANCH  10  14
ATOM     13  O   UNL     1      35.663 -25.792 -15.373  0.00  0.00    -0.248 OA
ATOM     14  C   UNL     1      36.639 -26.529 -15.386  0.00  0.00    +0.339 C 
BRANCH  14  15
ATOM     15  O   UNL     1      36.924 -27.380 -16.404  0.00  0.00    -0.479 OA
ATOM     16  H   UNL     1      36.342 -27.445 -17.136  0.00  0.00    +0.295 HD
ENDBRANCH  14  15
ENDBRANCH  10  14
ENDBRANCH   1  10
TORSDOF 7
ENDMDL
MODEL 2
REMARK VINA RESULT:      -5.8      1.163      2.007
REMARK  Name = 14463
REMARK  7 active torsions:
REMARK  status: ('A' for Active; 'I' for Inactive)
REMARK    1  A    between atoms: CA_1  and  N_2
REMARK    2  A    between atoms: CA_1  and  C_7
REMARK    3  A    between atoms: CA_1  and  C_10
REMARK    4  A    between atoms: C_7  and  O_8
REMARK    5  A    between atoms: C_10  and  O_11
REMARK    6  A    between atoms: C_10  and  C_14
REMARK    7  A    between atoms: C_14  and  O_15
REMARK                            x       y       z     vdW  Elec       q    Type
REMARK                         _______ _______ _______ _____ _____    ______ ____
ROOT
ATOM      1  CA  UNL     1      38.889 -25.110 -14.502  0.00  0.00    +0.074 C 
ENDROOT
BRANCH   1   2
ATOM      2  N   UNL     1      38.711 -24.137 -15.586  0.00  0.00    +0.391 N 
ATOM      3  H1  UNL     1      39.593 -23.656 -15.759  0.00  0.00    -0.088 HD
ATOM      4  H2  UNL     1      37.999 -23.457 -15.319  0.00  0.00    -0.088 HD
ATOM      5  H3  UNL     1      38.417 -24.623 -16.433  0.00  0.00    -0.088 HD
ENDBRANCH   1   2
BRANCH   1   7
ATOM      6  OXT UNL     1      40.916 -26.340 -13.916  0.00  0.00    -0.253 OA
ATOM      7  C   UNL     1      40.181 -25.867 -14.774  0.00  0.00    +0.296 C 
BRANCH   7   8
ATOM      8  O   UNL     1      40.454 -25.952 -16.102  0.00  0.00    -0.482 OA
ATOM      9  H   UNL     1      40.234 -26.729 -16.577  0.00  0.00    +0.295 HD
ENDBRANCH   7   8
ENDBRANCH   1   7
BRANCH   1  10
ATOM     10  C   UNL     1      37.670 -26.040 -14.443  0.00  0.00    +0.200 C 
BRANCH  10  11
ATOM     11  O   UNL     1      38.076 -27.391 -14.607  0.00  0.00    -0.375 OA
ATOM     12  H   UNL     1      38.988 -27.495 -14.293  0.00  0.00    +0.211 HD
ENDBRANCH  10  11
BRANCH  10  14
ATOM     13  O   UNL     1      37.267 -26.398 -12.067  0.00  0.00    -0.248 OA
ATOM     14  C   UNL     1      36.913 -25.922 -13.136  0.00  0.00    +0.339 C 
BRANCH  14  15
ATOM     15  O   UNL     1      35.754 -25.237 -13.306  0.00  0.00    -0.479 OA
ATOM     16  H   UNL     1      34.951 -25.702 -13.444  0.00  0.00    +0.295 HD
ENDBRANCH  14  15
ENDBRANCH  10  14
ENDBRANCH   1  10
TORSDOF 7
ENDMDL
MODEL 3
REMARK VINA RESULT:      -5.8      1.744      2.240
REMARK  Name = 14463
REMARK  7 active torsions:
REMARK  status: ('A' for Active; 'I' for Inactive)
REMARK    1  A    between atoms: CA_1  and  N_2
REMARK    2  A    between atoms: CA_1  and  C_7
REMARK    3  A    between atoms: CA_1  and  C_10
REMARK    4  A    between atoms: C_7  and  O_8
REMARK    5  A    between atoms: C_10  and  O_11
REMARK    6  A    between atoms: C_10  and  C_14
REMARK    7  A    between atoms: C_14  and  O_15
REMARK                            x       y       z     vdW  Elec       q    Type
REMARK                         _______ _______ _______ _____ _____    ______ ____
ROOT
ATOM      1  CA  UNL     1      38.711 -25.605 -14.523  0.00  0.00    +0.074 C 
ENDROOT
BRANCH   1   2
ATOM      2  N   UNL     1      38.704 -25.995 -13.109  0.00  0.00    +0.391 N 
ATOM      3  H1  UNL     1      39.599 -25.753 -12.685  0.00  0.00    -0.088 HD
ATOM      4  H2  UNL     1      38.555 -27.002 -13.036  0.00  0.00    -0.088 HD
ATOM      5  H3  UNL     1      37.953 -25.504 -12.625  0.00  0.00    -0.088 HD
ENDBRANCH   1   2
BRANCH   1   7
ATOM      6  OXT UNL     1      40.976 -24.725 -14.282  0.00  0.00    -0.253 OA
ATOM      7  C   UNL     1      40.160 -25.370 -14.926  0.00  0.00    +0.296 C 
BRANCH   7   8
ATOM      8  O   UNL     1      40.460 -25.952 -16.117  0.00  0.00    -0.482 OA
ATOM      9  H   UNL     1      40.444 -26.886 -16.199  0.00  0.00    +0.295 HD
ENDBRANCH   7   8
ENDBRANCH   1   7
BRANCH   1  10
ATOM     10  C   UNL     1      37.843 -24.354 -14.713  0.00  0.00    +0.200 C 
BRANCH  10  11
ATOM     11  O   UNL     1      38.398 -23.520 -15.721  0.00  0.00    -0.375 OA
ATOM     12  H   UNL     1      39.278 -23.222 -15.444  0.00  0.00    +0.211 HD
ENDBRANCH  10  11
BRANCH  10  14
ATOM     13  O   UNL     1      35.762 -24.114 -15.959  0.00  0.00    -0.248 OA
ATOM     14  C   UNL     1      36.417 -24.690 -15.103  0.00  0.00    +0.339 C 
BRANCH  14  15
ATOM     15  O   UNL     1      35.935 -25.709 -14.347  0.00  0.00    -0.479 OA
ATOM     16  H   UNL     1      35.061 -26.019 -14.482  0.00  0.00    +0.295 HD
ENDBRANCH  14  15
ENDBRANCH  10  14
ENDBRANCH   1  10
TORSDOF 7
ENDMDL
MODEL 4
REMARK VINA RESULT:      -5.7      1.334      3.729
REMARK  Name = 14463
REMARK  7 active torsions:
REMARK  status: ('A' for Active; 'I' for Inactive)
REMARK    1  A    between atoms: CA_1  and  N_2
REMARK    2  A    between atoms: CA_1  and  C_7
REMARK    3  A    between atoms: CA_1  and  C_10
REMARK    4  A    between atoms: C_7  and  O_8
REMARK    5  A    between atoms: C_10  and  O_11
REMARK    6  A    between atoms: C_10  and  C_14
REMARK    7  A    between atoms: C_14  and  O_15
REMARK                            x       y       z     vdW  Elec       q    Type
REMARK                         _______ _______ _______ _____ _____    ______ ____
ROOT
ATOM      1  CA  UNL     1      37.671 -25.001 -14.938  0.00  0.00    +0.074 C 
ENDROOT
BRANCH   1   2
ATOM      2  N   UNL     1      37.418 -23.840 -14.077  0.00  0.00    +0.391 N 
ATOM      3  H1  UNL     1      37.112 -24.158 -13.159  0.00  0.00    -0.088 HD
ATOM      4  H2  UNL     1      36.691 -23.260 -14.496  0.00  0.00    -0.088 HD
ATOM      5  H3  UNL     1      38.275 -23.296 -13.981  0.00  0.00    -0.088 HD
ENDBRANCH   1   2
BRANCH   1   7
ATOM      6  OXT UNL     1      36.133 -26.656 -15.866  0.00  0.00    -0.253 OA
ATOM      7  C   UNL     1      36.372 -25.790 -15.035  0.00  0.00    +0.296 C 
BRANCH   7   8
ATOM      8  O   UNL     1      35.474 -25.414 -14.088  0.00  0.00    -0.482 OA
ATOM      9  H   UNL     1      35.063 -24.573 -14.140  0.00  0.00    +0.295 HD
ENDBRANCH   7   8
ENDBRANCH   1   7
BRANCH   1  10
ATOM     10  C   UNL     1      38.817 -25.835 -14.350  0.00  0.00    +0.200 C 
BRANCH  10  11
ATOM     11  O   UNL     1      38.627 -27.211 -14.650  0.00  0.00    -0.375 OA
ATOM     12  H   UNL     1      39.466 -27.685 -14.536  0.00  0.00    +0.211 HD
ENDBRANCH  10  11
BRANCH  10  14
ATOM     13  O   UNL     1      40.966 -24.687 -14.299  0.00  0.00    -0.248 OA
ATOM     14  C   UNL     1      40.172 -25.413 -14.880  0.00  0.00    +0.339 C 
BRANCH  14  15
ATOM     15  O   UNL     1      40.390 -25.924 -16.118  0.00  0.00    -0.479 OA
ATOM     16  H   UNL     1      40.910 -26.697 -16.221  0.00  0.00    +0.295 HD
ENDBRANCH  14  15
ENDBRANCH  10  14
ENDBRANCH   1  10
TORSDOF 7
ENDMDL
MODEL 5
REMARK VINA RESULT:      -5.6      1.955      3.623
REMARK  Name = 14463
REMARK  7 active torsions:
REMARK  status: ('A' for Active; 'I' for Inactive)
REMARK    1  A    between atoms: CA_1  and  N_2
REMARK    2  A    between atoms: CA_1  and  C_7
REMARK    3  A    between atoms: CA_1  and  C_10
REMARK    4  A    between atoms: C_7  and  O_8
REMARK    5  A    between atoms: C_10  and  O_11
REMARK    6  A    between atoms: C_10  and  C_14
REMARK    7  A    between atoms: C_14  and  O_15
REMARK                            x       y       z     vdW  Elec       q    Type
REMARK                         _______ _______ _______ _____ _____    ______ ____
ROOT
ATOM      1  CA  UNL     1      37.858 -24.944 -14.024  0.00  0.00    +0.074 C 
ENDROOT
BRANCH   1   2
ATOM      2  N   UNL     1      37.957 -24.037 -15.173  0.00  0.00    +0.391 N 
ATOM      3  H1  UNL     1      38.825 -23.507 -15.114  0.00  0.00    -0.088 HD
ATOM      4  H2  UNL     1      37.165 -23.394 -15.167  0.00  0.00    -0.088 HD
ATOM      5  H3  UNL     1      37.948 -24.581 -16.036  0.00  0.00    -0.088 HD
ENDBRANCH   1   2
BRANCH   1   7
ATOM      6  OXT UNL     1      37.836 -22.866 -12.741  0.00  0.00    -0.253 OA
ATOM      7  C   UNL     1      37.872 -24.089 -12.764  0.00  0.00    +0.296 C 
BRANCH   7   8
ATOM      8  O   UNL     1      37.947 -24.843 -11.636  0.00  0.00    -0.482 OA
ATOM      9  H   UNL     1      37.175 -25.243 -11.287  0.00  0.00    +0.295 HD
ENDBRANCH   7   8
ENDBRANCH   1   7
BRANCH   1  10
ATOM     10  C   UNL     1      39.019 -25.947 -14.061  0.00  0.00    +0.200 C 
BRANCH  10  11
ATOM     11  O   UNL     1      38.611 -27.146 -14.705  0.00  0.00    -0.375 OA
ATOM     12  H   UNL     1      39.345 -27.492 -15.236  0.00  0.00    +0.211 HD
ENDBRANCH  10  11
BRANCH  10  14
ATOM     13  O   UNL     1      41.007 -24.567 -14.346  0.00  0.00    -0.248 OA
ATOM     14  C   UNL     1      40.232 -25.402 -14.788  0.00  0.00    +0.339 C 
BRANCH  14  15
ATOM     15  O   UNL     1      40.338 -25.943 -16.028  0.00  0.00    -0.479 OA
ATOM     16  H   UNL     1      39.970 -25.498 -16.766  0.00  0.00    +0.295 HD
ENDBRANCH  14  15
ENDBRANCH  10  14
ENDBRANCH   1  10
TORSDOF 7
ENDMDL
MODEL 6
REMARK VINA RESULT:      -5.6      2.836      4.346
REMARK  Name = 14463
REMARK  7 active torsions:
REMARK  status: ('A' for Active; 'I' for Inactive)
REMARK    1  A    between atoms: CA_1  and  N_2
REMARK    2  A    between atoms: CA_1  and  C_7
REMARK    3  A    between atoms: CA_1  and  C_10
REMARK    4  A    between atoms: C_7  and  O_8
REMARK    5  A    between atoms: C_10  and  O_11
REMARK    6  A    between atoms: C_10  and  C_14
REMARK    7  A    between atoms: C_14  and  O_15
REMARK                            x       y       z     vdW  Elec       q    Type
REMARK                         _______ _______ _______ _____ _____    ______ ____
ROOT
ATOM      1  CA  UNL     1      36.893 -24.448 -12.259  0.00  0.00    +0.074 C 
ENDROOT
BRANCH   1   2
ATOM      2  N   UNL     1      37.665 -23.594 -11.349  0.00  0.00    +0.391 N 
ATOM      3  H1  UNL     1      38.493 -23.246 -11.830  0.00  0.00    -0.088 HD
ATOM      4  H2  UNL     1      37.949 -24.137 -10.533  0.00  0.00    -0.088 HD
ATOM      5  H3  UNL     1      37.088 -22.808 -11.050  0.00  0.00    -0.088 HD
ENDBRANCH   1   2
BRANCH   1   7
ATOM      6  OXT UNL     1      35.408 -25.008 -10.403  0.00  0.00    -0.253 OA
ATOM      7  C   UNL     1      35.559 -24.743 -11.588  0.00  0.00    +0.296 C 
BRANCH   7   8
ATOM      8  O   UNL     1      34.524 -24.699 -12.468  0.00  0.00    -0.482 OA
ATOM      9  H   UNL     1      34.546 -25.224 -13.244  0.00  0.00    +0.295 HD
ENDBRANCH   7   8
ENDBRANCH   1   7
BRANCH   1  10
ATOM     10  C   UNL     1      37.689 -25.725 -12.561  0.00  0.00    +0.200 C 
BRANCH  10  11
ATOM     11  O   UNL     1      36.815 -26.843 -12.630  0.00  0.00    -0.375 OA
ATOM     12  H   UNL     1      36.155 -26.694 -13.325  0.00  0.00    +0.211 HD
ENDBRANCH  10  11
BRANCH  10  14
ATOM     13  O   UNL     1      38.817 -26.588 -14.541  0.00  0.00    -0.248 OA
ATOM     14  C   UNL     1      38.455 -25.635 -13.865  0.00  0.00    +0.339 C 
BRANCH  14  15
ATOM     15  O   UNL     1      38.725 -24.344 -14.183  0.00  0.00    -0.479 OA
ATOM     16  H   UNL     1      38.635 -24.051 -15.069  0.00  0.00    +0.295 HD
ENDBRANCH  14  15
ENDBRANCH  10  14
ENDBRANCH   1  10
TORSDOF 7
ENDMDL
MODEL 7
REMARK VINA RESULT:      -5.5      2.585      3.958
REMARK  Name = 14463
REMARK  7 active torsions:
REMARK  status: ('A' for Active; 'I' for Inactive)
REMARK    1  A    between atoms: CA_1  and  N_2
REMARK    2  A    between atoms: CA_1  and  C_7
REMARK    3  A    between atoms: CA_1  and  C_10
REMARK    4  A    between atoms: C_7  and  O_8
REMARK    5  A    between atoms: C_10  and  O_11
REMARK    6  A    between atoms: C_10  and  C_14
REMARK    7  A    between atoms: C_14  and  O_15
REMARK                            x       y       z     vdW  Elec       q    Type
REMARK                         _______ _______ _______ _____ _____    ______ ____
ROOT
ATOM      1  CA  UNL     1      37.120 -25.217 -13.793  0.00  0.00    +0.074 C 
ENDROOT
BRANCH   1   2
ATOM      2  N   UNL     1      35.798 -25.226 -13.156  0.00  0.00    +0.391 N 
ATOM      3  H1  UNL     1      35.179 -24.583 -13.648  0.00  0.00    -0.088 HD
ATOM      4  H2  UNL     1      35.889 -24.932 -12.183  0.00  0.00    -0.088 HD
ATOM      5  H3  UNL     1      35.410 -26.168 -13.192  0.00  0.00    -0.088 HD
ENDBRANCH   1   2
BRANCH   1   7
ATOM      6  OXT UNL     1      38.299 -27.141 -14.727  0.00  0.00    -0.253 OA
ATOM      7  C   UNL     1      37.258 -26.514 -14.577  0.00  0.00    +0.296 C 
BRANCH   7   8
ATOM      8  O   UNL     1      36.079 -26.909 -15.125  0.00  0.00    -0.482 OA
ATOM      9  H   UNL     1      36.068 -27.577 -15.782  0.00  0.00    +0.295 HD
ENDBRANCH   7   8
ENDBRANCH   1   7
BRANCH   1  10
ATOM     10  C   UNL     1      38.205 -25.067 -12.718  0.00  0.00    +0.200 C 
BRANCH  10  11
ATOM     11  O   UNL     1      39.461 -24.791 -13.324  0.00  0.00    -0.375 OA
ATOM     12  H   UNL     1      39.494 -23.858 -13.587  0.00  0.00    +0.211 HD
ENDBRANCH  10  11
BRANCH  10  14
ATOM     13  O   UNL     1      38.379 -22.835 -11.755  0.00  0.00    -0.248 OA
ATOM     14  C   UNL     1      37.896 -23.958 -11.733  0.00  0.00    +0.339 C 
BRANCH  14  15
ATOM     15  O   UNL     1      37.024 -24.382 -10.783  0.00  0.00    -0.479 OA
ATOM     16  H   UNL     1      37.299 -25.006 -10.140  0.00  0.00    +0.295 HD
ENDBRANCH  14  15
ENDBRANCH  10  14
ENDBRANCH   1  10
TORSDOF 7
ENDMDL
MODEL 8
REMARK VINA RESULT:      -5.5      2.782      3.877
REMARK  Name = 14463
REMARK  7 active torsions:
REMARK  status: ('A' for Active; 'I' for Inactive)
REMARK    1  A    between atoms: CA_1  and  N_2
REMARK    2  A    between atoms: CA_1  and  C_7
REMARK    3  A    between atoms: CA_1  and  C_10
REMARK    4  A    between atoms: C_7  and  O_8
REMARK    5  A    between atoms: C_10  and  O_11
REMARK    6  A    between atoms: C_10  and  C_14
REMARK    7  A    between atoms: C_14  and  O_15
REMARK                            x       y       z     vdW  Elec       q    Type
REMARK                         _______ _______ _______ _____ _____    ______ ____
ROOT
ATOM      1  CA  UNL     1      35.637 -24.621 -12.686  0.00  0.00    +0.074 C 
ENDROOT
BRANCH   1   2
ATOM      2  N   UNL     1      35.647 -23.222 -13.130  0.00  0.00    +0.391 N 
ATOM      3  H1  UNL     1      35.812 -22.613 -12.329  0.00  0.00    -0.088 HD
ATOM      4  H2  UNL     1      34.747 -22.993 -13.551  0.00  0.00    -0.088 HD
ATOM      5  H3  UNL     1      36.388 -23.090 -13.817  0.00  0.00    -0.088 HD
ENDBRANCH   1   2
BRANCH   1   7
ATOM      6  OXT UNL     1      35.221 -24.944 -10.301  0.00  0.00    -0.253 OA
ATOM      7  C   UNL     1      35.986 -24.634 -11.204  0.00  0.00    +0.296 C 
BRANCH   7   8
ATOM      8  O   UNL     1      37.266 -24.238 -10.978  0.00  0.00    -0.482 OA
ATOM      9  H   UNL     1      37.804 -23.957 -11.692  0.00  0.00    +0.295 HD
ENDBRANCH   7   8
ENDBRANCH   1   7
BRANCH   1  10
ATOM     10  C   UNL     1      36.632 -25.432 -13.527  0.00  0.00    +0.200 C 
BRANCH  10  11
ATOM     11  O   UNL     1      36.871 -26.695 -12.921  0.00  0.00    -0.375 OA
ATOM     12  H   UNL     1      37.708 -26.664 -12.432  0.00  0.00    +0.211 HD
ENDBRANCH  10  11
BRANCH  10  14
ATOM     13  O   UNL     1      35.840 -24.790 -15.740  0.00  0.00    -0.248 OA
ATOM     14  C   UNL     1      36.142 -25.665 -14.941  0.00  0.00    +0.339 C 
BRANCH  14  15
ATOM     15  O   UNL     1      36.047 -26.992 -15.210  0.00  0.00    -0.479 OA
ATOM     16  H   UNL     1      36.824 -27.504 -15.319  0.00  0.00    +0.295 HD
ENDBRANCH  14  15
ENDBRANCH  10  14
ENDBRANCH   1  10
TORSDOF 7
ENDMDL
MODEL 9
REMARK VINA RESULT:      -5.5      2.189      3.141
REMARK  Name = 14463
REMARK  7 active torsions:
REMARK  status: ('A' for Active; 'I' for Inactive)
REMARK    1  A    between atoms: CA_1  and  N_2
REMARK    2  A    between atoms: CA_1  and  C_7
REMARK    3  A    between atoms: CA_1  and  C_10
REMARK    4  A    between atoms: C_7  and  O_8
REMARK    5  A    between atoms: C_10  and  O_11
REMARK    6  A    between atoms: C_10  and  C_14
REMARK    7  A    between atoms: C_14  and  O_15
REMARK                            x       y       z     vdW  Elec       q    Type
REMARK                         _______ _______ _______ _____ _____    ______ ____
ROOT
ATOM      1  CA  UNL     1      38.514 -24.694 -13.523  0.00  0.00    +0.074 C 
ENDROOT
BRANCH   1   2
ATOM      2  N   UNL     1      39.412 -25.854 -13.492  0.00  0.00    +0.391 N 
ATOM      3  H1  UNL     1      39.688 -26.045 -12.530  0.00  0.00    -0.088 HD
ATOM      4  H2  UNL     1      40.243 -25.654 -14.051  0.00  0.00    -0.088 HD
ATOM      5  H3  UNL     1      38.931 -26.666 -13.877  0.00  0.00    -0.088 HD
ENDBRANCH   1   2
BRANCH   1   7
ATOM      6  OXT UNL     1      37.527 -24.978 -11.307  0.00  0.00    -0.253 OA
ATOM      7  C   UNL     1      38.206 -24.316 -12.081  0.00  0.00    +0.296 C 
BRANCH   7   8
ATOM      8  O   UNL     1      38.762 -23.125 -11.736  0.00  0.00    -0.482 OA
ATOM      9  H   UNL     1      38.220 -22.370 -11.622  0.00  0.00    +0.295 HD
ENDBRANCH   7   8
ENDBRANCH   1   7
BRANCH   1  10
ATOM     10  C   UNL     1      37.248 -25.049 -14.316  0.00  0.00    +0.200 C 
BRANCH  10  11
ATOM     11  O   UNL     1      37.271 -24.411 -15.586  0.00  0.00    -0.375 OA
ATOM     12  H   UNL     1      37.581 -23.498 -15.483  0.00  0.00    +0.211 HD
ENDBRANCH  10  11
BRANCH  10  14
ATOM     13  O   UNL     1      37.263 -27.123 -15.594  0.00  0.00    -0.248 OA
ATOM     14  C   UNL     1      37.097 -26.541 -14.532  0.00  0.00    +0.339 C 
BRANCH  14  15
ATOM     15  O   UNL     1      36.717 -27.161 -13.386  0.00  0.00    -0.479 OA
ATOM     16  H   UNL     1      36.247 -26.685 -12.730  0.00  0.00    +0.295 HD
ENDBRANCH  14  15
ENDBRANCH  10  14
ENDBRANCH   1  10
TORSDOF 7
ENDMDL
