MODEL 1
REMARK VINA RESULT:      -6.6      0.000      0.000
REMARK  Name = 17754054
REMARK  10 active torsions:
REMARK  status: ('A' for Active; 'I' for Inactive)
REMARK    1  A    between atoms: C_1  and  C_2
REMARK    2  A    between atoms: C_1  and  C_12
REMARK    3  A    between atoms: C_2  and  C_3
REMARK    4  A    between atoms: C_3  and  N_4
REMARK    5  A    between atoms: C_3  and  C_9
REMARK    6  A    between atoms: C_9  and  O_10
REMARK    7  A    between atoms: C_12  and  C_13
REMARK    8  A    between atoms: C_13  and  N_14
REMARK    9  A    between atoms: N_14  and  C_18
REMARK   10  A    between atoms: C_18  and  O_19
REMARK                            x       y       z     vdW  Elec       q    Type
REMARK                         _______ _______ _______ _____ _____    ______ ____
ROOT
ATOM      1  C   UNK     1      36.121 -25.099 -14.864  0.00  0.00    +0.000 C 
ENDROOT
BRANCH   1   2
ATOM      2  C   UNK     1      37.591 -24.685 -14.984  0.00  0.00    -0.011 C 
BRANCH   2   3
ATOM      3  C   UNK     1      38.557 -25.798 -14.559  0.00  0.00    +0.036 C 
BRANCH   3   4
ATOM      4  N   UNK     1      38.475 -25.983 -13.108  0.00  0.00    +0.389 N 
ATOM      5  H   UNK     1      39.022 -26.801 -12.838  0.00  0.00    -0.088 HD
ATOM      6  H   UNK     1      37.501 -26.122 -12.838  0.00  0.00    -0.088 HD
ATOM      7  H   UNK     1      38.844 -25.157 -12.638  0.00  0.00    -0.088 HD
ENDBRANCH   3   4
BRANCH   3   9
ATOM      8  O   UNK     1      40.732 -24.766 -14.179  0.00  0.00    -0.253 OA
ATOM      9  C   UNK     1      39.996 -25.441 -14.887  0.00  0.00    +0.293 C 
BRANCH   9  10
ATOM     10  O   UNK     1      40.389 -25.936 -16.090  0.00  0.00    -0.482 OA
ATOM     11  H   UNK     1      40.298 -25.416 -16.864  0.00  0.00    +0.295 HD
ENDBRANCH   9  10
ENDBRANCH   3   9
ENDBRANCH   2   3
ENDBRANCH   1   2
BRANCH   1  12
ATOM     12  C   UNK     1      35.192 -23.985 -14.363  0.00  0.00    +0.020 C 
BRANCH  12  13
ATOM     13  C   UNK     1      34.607 -24.213 -12.972  0.00  0.00    +0.074 C 
BRANCH  13  14
ATOM     14  N   UNK     1      35.446 -25.022 -12.136  0.00  0.00    -0.338 NA
ATOM     15  H   UNK     1      35.690 -25.921 -12.456  0.00  0.00    +0.130 HD
ATOM     16  H   UNK     1      36.355 -25.333 -11.924  0.00  0.00    +0.130 HD
BRANCH  14  18
ATOM     17  O   UNK     1      35.315 -24.588  -9.850  0.00  0.00    -0.228 OA
ATOM     18  C   UNK     1      35.932 -24.616 -10.907  0.00  0.00    +0.382 C 
BRANCH  18  19
ATOM     19  O   UNK     1      37.233 -24.234 -11.003  0.00  0.00    -0.467 OA
ATOM     20  H   UNK     1      37.733 -24.074 -10.227  0.00  0.00    +0.297 HD
ENDBRANCH  18  19
ENDBRANCH  14  18
ENDBRANCH  13  14
ENDBRANCH  12  13
ENDBRANCH   1  12
TORSDOF 10
ENDMDL
MODEL 2
REMARK VINA RESULT:      -6.4      1.468      5.075
REMARK  Name = 17754054
REMARK  10 active torsions:
REMARK  status: ('A' for Active; 'I' for Inactive)
REMARK    1  A    between atoms: C_1  and  C_2
REMARK    2  A    between atoms: C_1  and  C_12
REMARK    3  A    between atoms: C_2  and  C_3
REMARK    4  A    between atoms: C_3  and  N_4
REMARK    5  A    between atoms: C_3  and  C_9
REMARK    6  A    between atoms: C_9  and  O_10
REMARK    7  A    between atoms: C_12  and  C_13
REMARK    8  A    between atoms: C_13  and  N_14
REMARK    9  A    between atoms: N_14  and  C_18
REMARK   10  A    between atoms: C_18  and  O_19
REMARK                            x       y       z     vdW  Elec       q    Type
REMARK                         _______ _______ _______ _____ _____    ______ ____
ROOT
ATOM      1  C   UNK     1      37.366 -23.977 -14.208  0.00  0.00    +0.000 C 
ENDROOT
BRANCH   1   2
ATOM      2  C   UNK     1      36.338 -23.356 -13.257  0.00  0.00    -0.011 C 
BRANCH   2   3
ATOM      3  C   UNK     1      36.792 -23.385 -11.792  0.00  0.00    +0.036 C 
BRANCH   3   4
ATOM      4  N   UNK     1      38.137 -23.959 -11.713  0.00  0.00    +0.389 N 
ATOM      5  H   UNK     1      38.769 -23.428 -12.312  0.00  0.00    -0.088 HD
ATOM      6  H   UNK     1      38.111 -24.930 -12.024  0.00  0.00    -0.088 HD
ATOM      7  H   UNK     1      38.469 -23.920 -10.749  0.00  0.00    -0.088 HD
ENDBRANCH   3   4
BRANCH   3   9
ATOM      8  O   UNK     1      35.918 -24.334  -9.724  0.00  0.00    -0.253 OA
ATOM      9  C   UNK     1      35.879 -24.256 -10.945  0.00  0.00    +0.293 C 
BRANCH   9  10
ATOM     10  O   UNK     1      35.009 -24.976 -11.699  0.00  0.00    -0.482 OA
ATOM     11  H   UNK     1      34.573 -24.573 -12.425  0.00  0.00    +0.295 HD
ENDBRANCH   9  10
ENDBRANCH   3   9
ENDBRANCH   2   3
ENDBRANCH   1   2
BRANCH   1  12
ATOM     12  C   UNK     1      36.972 -25.359 -14.747  0.00  0.00    +0.020 C 
BRANCH  12  13
ATOM     13  C   UNK     1      37.941 -26.484 -14.398  0.00  0.00    +0.074 C 
BRANCH  13  14
ATOM     14  N   UNK     1      39.225 -26.009 -13.970  0.00  0.00    -0.338 NA
ATOM     15  H   UNK     1      39.277 -25.522 -13.115  0.00  0.00    +0.130 HD
ATOM     16  H   UNK     1      40.028 -26.164 -13.423  0.00  0.00    +0.130 HD
BRANCH  14  18
ATOM     17  O   UNK     1      40.597 -25.872 -15.848  0.00  0.00    -0.228 OA
ATOM     18  C   UNK     1      40.394 -26.193 -14.684  0.00  0.00    +0.382 C 
BRANCH  18  19
ATOM     19  O   UNK     1      41.340 -26.797 -13.918  0.00  0.00    -0.467 OA
ATOM     20  H   UNK     1      42.187 -26.977 -14.275  0.00  0.00    +0.297 HD
ENDBRANCH  18  19
ENDBRANCH  14  18
ENDBRANCH  13  14
ENDBRANCH  12  13
ENDBRANCH   1  12
TORSDOF 10
ENDMDL
MODEL 3
REMARK VINA RESULT:      -6.2      2.538      3.092
REMARK  Name = 17754054
REMARK  10 active torsions:
REMARK  status: ('A' for Active; 'I' for Inactive)
REMARK    1  A    between atoms: C_1  and  C_2
REMARK    2  A    between atoms: C_1  and  C_12
REMARK    3  A    between atoms: C_2  and  C_3
REMARK    4  A    between atoms: C_3  and  N_4
REMARK    5  A    between atoms: C_3  and  C_9
REMARK    6  A    between atoms: C_9  and  O_10
REMARK    7  A    between atoms: C_12  and  C_13
REMARK    8  A    between atoms: C_13  and  N_14
REMARK    9  A    between atoms: N_14  and  C_18
REMARK   10  A    between atoms: C_18  and  O_19
REMARK                            x       y       z     vdW  Elec       q    Type
REMARK                         _______ _______ _______ _____ _____    ______ ____
ROOT
ATOM      1  C   UNK     1      37.987 -24.678 -12.052  0.00  0.00    +0.000 C 
ENDROOT
BRANCH   1   2
ATOM      2  C   UNK     1      38.507 -25.667 -13.099  0.00  0.00    -0.011 C 
BRANCH   2   3
ATOM      3  C   UNK     1      39.351 -24.990 -14.187  0.00  0.00    +0.036 C 
BRANCH   3   4
ATOM      4  N   UNK     1      38.483 -24.598 -15.300  0.00  0.00    +0.389 N 
ATOM      5  H   UNK     1      38.049 -23.699 -15.093  0.00  0.00    -0.088 HD
ATOM      6  H   UNK     1      37.758 -25.304 -15.429  0.00  0.00    -0.088 HD
ATOM      7  H   UNK     1      39.037 -24.520 -16.153  0.00  0.00    -0.088 HD
ENDBRANCH   3   4
BRANCH   3   9
ATOM      8  O   UNK     1      41.172 -26.606 -14.070  0.00  0.00    -0.253 OA
ATOM      9  C   UNK     1      40.401 -25.935 -14.745  0.00  0.00    +0.293 C 
BRANCH   9  10
ATOM     10  O   UNK     1      40.417 -25.945 -16.103  0.00  0.00    -0.482 OA
ATOM     11  H   UNK     1      41.084 -25.477 -16.567  0.00  0.00    +0.295 HD
ENDBRANCH   9  10
ENDBRANCH   3   9
ENDBRANCH   2   3
ENDBRANCH   1   2
BRANCH   1  12
ATOM     12  C   UNK     1      36.468 -24.729 -11.837  0.00  0.00    +0.020 C 
BRANCH  12  13
ATOM     13  C   UNK     1      35.643 -24.041 -12.921  0.00  0.00    +0.074 C 
BRANCH  13  14
ATOM     14  N   UNK     1      35.015 -24.965 -13.821  0.00  0.00    -0.338 NA
ATOM     15  H   UNK     1      34.284 -25.525 -13.473  0.00  0.00    +0.130 HD
ATOM     16  H   UNK     1      34.269 -25.148 -14.437  0.00  0.00    +0.130 HD
BRANCH  14  18
ATOM     17  O   UNK     1      35.309 -24.263 -16.023  0.00  0.00    -0.228 OA
ATOM     18  C   UNK     1      35.375 -25.116 -15.147  0.00  0.00    +0.382 C 
BRANCH  18  19
ATOM     19  O   UNK     1      35.832 -26.374 -15.386  0.00  0.00    -0.467 OA
ATOM     20  H   UNK     1      35.838 -27.009 -14.697  0.00  0.00    +0.297 HD
ENDBRANCH  18  19
ENDBRANCH  14  18
ENDBRANCH  13  14
ENDBRANCH  12  13
ENDBRANCH   1  12
TORSDOF 10
ENDMDL
MODEL 4
REMARK VINA RESULT:      -6.1      1.745      2.236
REMARK  Name = 17754054
REMARK  10 active torsions:
REMARK  status: ('A' for Active; 'I' for Inactive)
REMARK    1  A    between atoms: C_1  and  C_2
REMARK    2  A    between atoms: C_1  and  C_12
REMARK    3  A    between atoms: C_2  and  C_3
REMARK    4  A    between atoms: C_3  and  N_4
REMARK    5  A    between atoms: C_3  and  C_9
REMARK    6  A    between atoms: C_9  and  O_10
REMARK    7  A    between atoms: C_12  and  C_13
REMARK    8  A    between atoms: C_13  and  N_14
REMARK    9  A    between atoms: N_14  and  C_18
REMARK   10  A    between atoms: C_18  and  O_19
REMARK                            x       y       z     vdW  Elec       q    Type
REMARK                         _______ _______ _______ _____ _____    ______ ____
ROOT
ATOM      1  C   UNK     1      35.283 -24.374 -15.347  0.00  0.00    +0.000 C 
ENDROOT
BRANCH   1   2
ATOM      2  C   UNK     1      36.796 -24.527 -15.167  0.00  0.00    -0.011 C 
BRANCH   2   3
ATOM      3  C   UNK     1      37.231 -25.991 -15.023  0.00  0.00    +0.036 C 
BRANCH   3   4
ATOM      4  N   UNK     1      36.065 -26.861 -15.192  0.00  0.00    +0.389 N 
ATOM      5  H   UNK     1      35.716 -27.145 -14.276  0.00  0.00    -0.088 HD
ATOM      6  H   UNK     1      36.333 -27.689 -15.724  0.00  0.00    -0.088 HD
ATOM      7  H   UNK     1      35.333 -26.358 -15.693  0.00  0.00    -0.088 HD
ENDBRANCH   3   4
BRANCH   3   9
ATOM      8  O   UNK     1      38.969 -26.084 -13.317  0.00  0.00    -0.253 OA
ATOM      9  C   UNK     1      37.804 -26.268 -13.643  0.00  0.00    +0.293 C 
BRANCH   9  10
ATOM     10  O   UNK     1      36.875 -26.776 -12.792  0.00  0.00    -0.482 OA
ATOM     11  H   UNK     1      36.313 -27.472 -13.073  0.00  0.00    +0.295 HD
ENDBRANCH   9  10
ENDBRANCH   3   9
ENDBRANCH   2   3
ENDBRANCH   1   2
BRANCH   1  12
ATOM     12  C   UNK     1      34.591 -23.586 -14.226  0.00  0.00    +0.020 C 
BRANCH  12  13
ATOM     13  C   UNK     1      34.450 -24.339 -12.906  0.00  0.00    +0.074 C 
BRANCH  13  14
ATOM     14  N   UNK     1      34.985 -23.618 -11.788  0.00  0.00    -0.338 NA
ATOM     15  H   UNK     1      34.680 -22.692 -11.644  0.00  0.00    +0.130 HD
ATOM     16  H   UNK     1      34.872 -23.331 -10.853  0.00  0.00    +0.130 HD
BRANCH  14  18
ATOM     17  O   UNK     1      37.115 -24.220 -11.059  0.00  0.00    -0.228 OA
ATOM     18  C   UNK     1      35.904 -24.143 -10.899  0.00  0.00    +0.382 C 
BRANCH  18  19
ATOM     19  O   UNK     1      35.288 -24.588  -9.771  0.00  0.00    -0.467 OA
ATOM     20  H   UNK     1      35.779 -25.046  -9.118  0.00  0.00    +0.297 HD
ENDBRANCH  18  19
ENDBRANCH  14  18
ENDBRANCH  13  14
ENDBRANCH  12  13
ENDBRANCH   1  12
TORSDOF 10
ENDMDL
MODEL 5
REMARK VINA RESULT:      -6.0      2.964      4.480
REMARK  Name = 17754054
REMARK  10 active torsions:
REMARK  status: ('A' for Active; 'I' for Inactive)
REMARK    1  A    between atoms: C_1  and  C_2
REMARK    2  A    between atoms: C_1  and  C_12
REMARK    3  A    between atoms: C_2  and  C_3
REMARK    4  A    between atoms: C_3  and  N_4
REMARK    5  A    between atoms: C_3  and  C_9
REMARK    6  A    between atoms: C_9  and  O_10
REMARK    7  A    between atoms: C_12  and  C_13
REMARK    8  A    between atoms: C_13  and  N_14
REMARK    9  A    between atoms: N_14  and  C_18
REMARK   10  A    between atoms: C_18  and  O_19
REMARK                            x       y       z     vdW  Elec       q    Type
REMARK                         _______ _______ _______ _____ _____    ______ ____
ROOT
ATOM      1  C   UNK     1      36.503 -25.921 -14.477  0.00  0.00    +0.000 C 
ENDROOT
BRANCH   1   2
ATOM      2  C   UNK     1      35.832 -24.804 -15.282  0.00  0.00    -0.011 C 
BRANCH   2   3
ATOM      3  C   UNK     1      36.314 -23.406 -14.873  0.00  0.00    +0.036 C 
BRANCH   3   4
ATOM      4  N   UNK     1      35.170 -22.492 -14.834  0.00  0.00    +0.389 N 
ATOM      5  H   UNK     1      34.940 -22.194 -15.782  0.00  0.00    -0.088 HD
ATOM      6  H   UNK     1      35.408 -21.675 -14.270  0.00  0.00    -0.088 HD
ATOM      7  H   UNK     1      34.367 -22.967 -14.422  0.00  0.00    -0.088 HD
ENDBRANCH   3   4
BRANCH   3   9
ATOM      8  O   UNK     1      37.054 -21.979 -16.704  0.00  0.00    -0.253 OA
ATOM      9  C   UNK     1      37.306 -22.845 -15.877  0.00  0.00    +0.293 C 
BRANCH   9  10
ATOM     10  O   UNK     1      38.527 -23.432 -15.778  0.00  0.00    -0.482 OA
ATOM     11  H   UNK     1      38.853 -23.958 -16.483  0.00  0.00    +0.295 HD
ENDBRANCH   9  10
ENDBRANCH   3   9
ENDBRANCH   2   3
ENDBRANCH   1   2
BRANCH   1  12
ATOM     12  C   UNK     1      37.022 -25.480 -13.102  0.00  0.00    +0.020 C 
BRANCH  12  13
ATOM     13  C   UNK     1      38.520 -25.676 -12.888  0.00  0.00    +0.074 C 
BRANCH  13  14
ATOM     14  N   UNK     1      39.218 -26.034 -14.090  0.00  0.00    -0.338 NA
ATOM     15  H   UNK     1      38.708 -26.480 -14.805  0.00  0.00    +0.130 HD
ATOM     16  H   UNK     1      39.455 -25.795 -15.015  0.00  0.00    +0.130 HD
BRANCH  14  18
ATOM     17  O   UNK     1      41.065 -24.725 -14.640  0.00  0.00    -0.228 OA
ATOM     18  C   UNK     1      40.561 -25.789 -14.305  0.00  0.00    +0.382 C 
BRANCH  18  19
ATOM     19  O   UNK     1      41.298 -26.912 -14.093  0.00  0.00    -0.467 OA
ATOM     20  H   UNK     1      40.950 -27.610 -13.575  0.00  0.00    +0.297 HD
ENDBRANCH  18  19
ENDBRANCH  14  18
ENDBRANCH  13  14
ENDBRANCH  12  13
ENDBRANCH   1  12
TORSDOF 10
ENDMDL
MODEL 6
REMARK VINA RESULT:      -6.0     12.435     13.683
REMARK  Name = 17754054
REMARK  10 active torsions:
REMARK  status: ('A' for Active; 'I' for Inactive)
REMARK    1  A    between atoms: C_1  and  C_2
REMARK    2  A    between atoms: C_1  and  C_12
REMARK    3  A    between atoms: C_2  and  C_3
REMARK    4  A    between atoms: C_3  and  N_4
REMARK    5  A    between atoms: C_3  and  C_9
REMARK    6  A    between atoms: C_9  and  O_10
REMARK    7  A    between atoms: C_12  and  C_13
REMARK    8  A    between atoms: C_13  and  N_14
REMARK    9  A    between atoms: N_14  and  C_18
REMARK   10  A    between atoms: C_18  and  O_19
REMARK                            x       y       z     vdW  Elec       q    Type
REMARK                         _______ _______ _______ _____ _____    ______ ____
ROOT
ATOM      1  C   UNK     1      33.773 -15.912 -21.528  0.00  0.00    +0.000 C 
ENDROOT
BRANCH   1   2
ATOM      2  C   UNK     1      34.900 -16.786 -20.971  0.00  0.00    -0.011 C 
BRANCH   2   3
ATOM      3  C   UNK     1      34.775 -18.255 -21.395  0.00  0.00    +0.036 C 
BRANCH   3   4
ATOM      4  N   UNK     1      35.674 -19.073 -20.578  0.00  0.00    +0.389 N 
ATOM      5  H   UNK     1      35.439 -18.957 -19.592  0.00  0.00    -0.088 HD
ATOM      6  H   UNK     1      36.638 -18.777 -20.733  0.00  0.00    -0.088 HD
ATOM      7  H   UNK     1      35.574 -20.054 -20.838  0.00  0.00    -0.088 HD
ENDBRANCH   3   4
BRANCH   3   9
ATOM      8  O   UNK     1      34.710 -19.294 -23.599  0.00  0.00    -0.253 OA
ATOM      9  C   UNK     1      35.180 -18.451 -22.846  0.00  0.00    +0.293 C 
BRANCH   9  10
ATOM     10  O   UNK     1      36.161 -17.592 -23.228  0.00  0.00    -0.482 OA
ATOM     11  H   UNK     1      36.968 -17.560 -22.752  0.00  0.00    +0.295 HD
ENDBRANCH   9  10
ENDBRANCH   3   9
ENDBRANCH   2   3
ENDBRANCH   1   2
BRANCH   1  12
ATOM     12  C   UNK     1      34.243 -14.569 -22.105  0.00  0.00    +0.020 C 
BRANCH  12  13
ATOM     13  C   UNK     1      34.128 -14.446 -23.621  0.00  0.00    +0.074 C 
BRANCH  13  14
ATOM     14  N   UNK     1      33.760 -15.677 -24.259  0.00  0.00    -0.338 NA
ATOM     15  H   UNK     1      33.352 -16.382 -23.705  0.00  0.00    +0.130 HD
ATOM     16  H   UNK     1      33.051 -16.214 -24.681  0.00  0.00    +0.130 HD
BRANCH  14  18
ATOM     17  O   UNK     1      33.431 -15.329 -26.540  0.00  0.00    -0.228 OA
ATOM     18  C   UNK     1      33.942 -15.933 -25.605  0.00  0.00    +0.382 C 
BRANCH  18  19
ATOM     19  O   UNK     1      34.791 -16.979 -25.790  0.00  0.00    -0.467 OA
ATOM     20  H   UNK     1      34.548 -17.836 -25.501  0.00  0.00    +0.297 HD
ENDBRANCH  18  19
ENDBRANCH  14  18
ENDBRANCH  13  14
ENDBRANCH  12  13
ENDBRANCH   1  12
TORSDOF 10
ENDMDL
MODEL 7
REMARK VINA RESULT:      -5.9      6.681      7.855
REMARK  Name = 17754054
REMARK  10 active torsions:
REMARK  status: ('A' for Active; 'I' for Inactive)
REMARK    1  A    between atoms: C_1  and  C_2
REMARK    2  A    between atoms: C_1  and  C_12
REMARK    3  A    between atoms: C_2  and  C_3
REMARK    4  A    between atoms: C_3  and  N_4
REMARK    5  A    between atoms: C_3  and  C_9
REMARK    6  A    between atoms: C_9  and  O_10
REMARK    7  A    between atoms: C_12  and  C_13
REMARK    8  A    between atoms: C_13  and  N_14
REMARK    9  A    between atoms: N_14  and  C_18
REMARK   10  A    between atoms: C_18  and  O_19
REMARK                            x       y       z     vdW  Elec       q    Type
REMARK                         _______ _______ _______ _____ _____    ______ ____
ROOT
ATOM      1  C   UNK     1      30.975 -23.749 -13.681  0.00  0.00    +0.000 C 
ENDROOT
BRANCH   1   2
ATOM      2  C   UNK     1      31.740 -22.810 -14.619  0.00  0.00    -0.011 C 
BRANCH   2   3
ATOM      3  C   UNK     1      32.910 -23.505 -15.328  0.00  0.00    +0.036 C 
BRANCH   3   4
ATOM      4  N   UNK     1      34.173 -22.941 -14.845  0.00  0.00    +0.389 N 
ATOM      5  H   UNK     1      34.311 -22.017 -15.256  0.00  0.00    -0.088 HD
ATOM      6  H   UNK     1      34.943 -23.551 -15.117  0.00  0.00    -0.088 HD
ATOM      7  H   UNK     1      34.144 -22.861 -13.829  0.00  0.00    -0.088 HD
ENDBRANCH   3   4
BRANCH   3   9
ATOM      8  O   UNK     1      33.759 -23.566 -17.612  0.00  0.00    -0.253 OA
ATOM      9  C   UNK     1      32.861 -23.282 -16.830  0.00  0.00    +0.293 C 
BRANCH   9  10
ATOM     10  O   UNK     1      31.701 -22.697 -17.226  0.00  0.00    -0.482 OA
ATOM     11  H   UNK     1      30.878 -23.074 -16.982  0.00  0.00    +0.295 HD
ENDBRANCH   9  10
ENDBRANCH   3   9
ENDBRANCH   2   3
ENDBRANCH   1   2
BRANCH   1  12
ATOM     12  C   UNK     1      30.280 -24.919 -14.390  0.00  0.00    +0.020 C 
BRANCH  12  13
ATOM     13  C   UNK     1      28.973 -24.561 -15.090  0.00  0.00    +0.074 C 
BRANCH  13  14
ATOM     14  N   UNK     1      29.155 -24.178 -16.460  0.00  0.00    -0.338 NA
ATOM     15  H   UNK     1      29.902 -24.582 -16.958  0.00  0.00    +0.130 HD
ATOM     16  H   UNK     1      28.991 -24.384 -17.409  0.00  0.00    +0.130 HD
BRANCH  14  18
ATOM     17  O   UNK     1      27.348 -23.539 -17.786  0.00  0.00    -0.228 OA
ATOM     18  C   UNK     1      28.344 -23.276 -17.124  0.00  0.00    +0.382 C 
BRANCH  18  19
ATOM     19  O   UNK     1      28.793 -22.004 -16.954  0.00  0.00    -0.467 OA
ATOM     20  H   UNK     1      29.706 -21.814 -17.044  0.00  0.00    +0.297 HD
ENDBRANCH  18  19
ENDBRANCH  14  18
ENDBRANCH  13  14
ENDBRANCH  12  13
ENDBRANCH   1  12
TORSDOF 10
ENDMDL
MODEL 8
REMARK VINA RESULT:      -5.9      2.510      4.540
REMARK  Name = 17754054
REMARK  10 active torsions:
REMARK  status: ('A' for Active; 'I' for Inactive)
REMARK    1  A    between atoms: C_1  and  C_2
REMARK    2  A    between atoms: C_1  and  C_12
REMARK    3  A    between atoms: C_2  and  C_3
REMARK    4  A    between atoms: C_3  and  N_4
REMARK    5  A    between atoms: C_3  and  C_9
REMARK    6  A    between atoms: C_9  and  O_10
REMARK    7  A    between atoms: C_12  and  C_13
REMARK    8  A    between atoms: C_13  and  N_14
REMARK    9  A    between atoms: N_14  and  C_18
REMARK   10  A    between atoms: C_18  and  O_19
REMARK                            x       y       z     vdW  Elec       q    Type
REMARK                         _______ _______ _______ _____ _____    ______ ____
ROOT
ATOM      1  C   UNK     1      36.938 -23.006 -14.330  0.00  0.00    +0.000 C 
ENDROOT
BRANCH   1   2
ATOM      2  C   UNK     1      37.428 -23.692 -13.050  0.00  0.00    -0.011 C 
BRANCH   2   3
ATOM      3  C   UNK     1      36.464 -23.504 -11.871  0.00  0.00    +0.036 C 
BRANCH   3   4
ATOM      4  N   UNK     1      37.160 -22.814 -10.782  0.00  0.00    +0.389 N 
ATOM      5  H   UNK     1      36.893 -23.230  -9.890  0.00  0.00    -0.088 HD
ATOM      6  H   UNK     1      36.903 -21.827 -10.787  0.00  0.00    -0.088 HD
ATOM      7  H   UNK     1      38.168 -22.903 -10.911  0.00  0.00    -0.088 HD
ENDBRANCH   3   4
BRANCH   3   9
ATOM      8  O   UNK     1      35.204 -24.978 -10.395  0.00  0.00    -0.253 OA
ATOM      9  C   UNK     1      35.986 -24.839 -11.326  0.00  0.00    +0.293 C 
BRANCH   9  10
ATOM     10  O   UNK     1      36.546 -25.891 -11.977  0.00  0.00    -0.482 OA
ATOM     11  H   UNK     1      36.642 -26.715 -11.540  0.00  0.00    +0.295 HD
ENDBRANCH   9  10
ENDBRANCH   3   9
ENDBRANCH   2   3
ENDBRANCH   1   2
BRANCH   1  12
ATOM     12  C   UNK     1      35.523 -23.416 -14.761  0.00  0.00    +0.020 C 
BRANCH  12  13
ATOM     13  C   UNK     1      35.356 -24.896 -15.091  0.00  0.00    +0.074 C 
BRANCH  13  14
ATOM     14  N   UNK     1      36.546 -25.491 -15.627  0.00  0.00    -0.338 NA
ATOM     15  H   UNK     1      37.120 -24.938 -16.205  0.00  0.00    +0.130 HD
ATOM     16  H   UNK     1      37.517 -25.627 -15.542  0.00  0.00    +0.130 HD
BRANCH  14  18
ATOM     17  O   UNK     1      37.346 -27.245 -14.318  0.00  0.00    -0.228 OA
ATOM     18  C   UNK     1      36.936 -26.794 -15.380  0.00  0.00    +0.382 C 
BRANCH  18  19
ATOM     19  O   UNK     1      36.809 -27.559 -16.497  0.00  0.00    -0.467 OA
ATOM     20  H   UNK     1      37.350 -27.392 -17.243  0.00  0.00    +0.297 HD
ENDBRANCH  18  19
ENDBRANCH  14  18
ENDBRANCH  13  14
ENDBRANCH  12  13
ENDBRANCH   1  12
TORSDOF 10
ENDMDL
MODEL 9
REMARK VINA RESULT:      -5.8     10.338     11.106
REMARK  Name = 17754054
REMARK  10 active torsions:
REMARK  status: ('A' for Active; 'I' for Inactive)
REMARK    1  A    between atoms: C_1  and  C_2
REMARK    2  A    between atoms: C_1  and  C_12
REMARK    3  A    between atoms: C_2  and  C_3
REMARK    4  A    between atoms: C_3  and  N_4
REMARK    5  A    between atoms: C_3  and  C_9
REMARK    6  A    between atoms: C_9  and  O_10
REMARK    7  A    between atoms: C_12  and  C_13
REMARK    8  A    between atoms: C_13  and  N_14
REMARK    9  A    between atoms: N_14  and  C_18
REMARK   10  A    between atoms: C_18  and  O_19
REMARK                            x       y       z     vdW  Elec       q    Type
REMARK                         _______ _______ _______ _____ _____    ______ ____
ROOT
ATOM      1  C   UNK     1      35.278 -19.327 -21.482  0.00  0.00    +0.000 C 
ENDROOT
BRANCH   1   2
ATOM      2  C   UNK     1      35.764 -18.416 -22.613  0.00  0.00    -0.011 C 
BRANCH   2   3
ATOM      3  C   UNK     1      34.706 -18.213 -23.706  0.00  0.00    +0.036 C 
BRANCH   3   4
ATOM      4  N   UNK     1      34.722 -19.362 -24.615  0.00  0.00    +0.389 N 
ATOM      5  H   UNK     1      34.701 -20.226 -24.072  0.00  0.00    -0.088 HD
ATOM      6  H   UNK     1      35.572 -19.336 -25.179  0.00  0.00    -0.088 HD
ATOM      7  H   UNK     1      33.907 -19.324 -25.227  0.00  0.00    -0.088 HD
ENDBRANCH   3   4
BRANCH   3   9
ATOM      8  O   UNK     1      34.784 -16.870 -25.738  0.00  0.00    -0.253 OA
ATOM      9  C   UNK     1      34.996 -16.976 -24.537  0.00  0.00    +0.293 C 
BRANCH   9  10
ATOM     10  O   UNK     1      35.553 -15.979 -23.801  0.00  0.00    -0.482 OA
ATOM     11  H   UNK     1      36.299 -15.515 -24.129  0.00  0.00    +0.295 HD
ENDBRANCH   9  10
ENDBRANCH   3   9
ENDBRANCH   2   3
ENDBRANCH   1   2
BRANCH   1  12
ATOM     12  C   UNK     1      33.823 -19.085 -21.059  0.00  0.00    +0.020 C 
BRANCH  12  13
ATOM     13  C   UNK     1      33.096 -20.315 -20.523  0.00  0.00    +0.074 C 
BRANCH  13  14
ATOM     14  N   UNK     1      33.906 -21.108 -19.644  0.00  0.00    -0.338 NA
ATOM     15  H   UNK     1      34.758 -20.727 -19.330  0.00  0.00    +0.130 HD
ATOM     16  H   UNK     1      34.167 -21.318 -18.718  0.00  0.00    +0.130 HD
BRANCH  14  18
ATOM     17  O   UNK     1      34.107 -23.426 -19.522  0.00  0.00    -0.228 OA
ATOM     18  C   UNK     1      33.562 -22.375 -19.211  0.00  0.00    +0.382 C 
BRANCH  18  19
ATOM     19  O   UNK     1      32.502 -22.325 -18.360  0.00  0.00    -0.467 OA
ATOM     20  H   UNK     1      32.626 -22.050 -17.473  0.00  0.00    +0.297 HD
ENDBRANCH  18  19
ENDBRANCH  14  18
ENDBRANCH  13  14
ENDBRANCH  12  13
ENDBRANCH   1  12
TORSDOF 10
ENDMDL
