MODEL 1
REMARK VINA RESULT:      -8.5      0.000      0.000
REMARK  Name = 19861
REMARK  0 active torsions:
REMARK  status: ('A' for Active; 'I' for Inactive)
REMARK                            x       y       z     vdW  Elec       q    Type
REMARK                         _______ _______ _______ _____ _____    ______ ____
ROOT
ATOM      1  N   UNL     1      31.540  -4.905 -23.196  0.00  0.00    +0.386 N 
ATOM      2  N   UNL     1      32.807  -8.922 -19.974  0.00  0.00    -0.244 NA
ATOM      3  C   UNL     1      32.782  -7.415 -22.496  0.00  0.00    -0.047 C 
ATOM      4  C   UNL     1      32.125  -6.565 -21.443  0.00  0.00    -0.001 C 
ATOM      5  C   UNL     1      33.229  -6.650 -23.712  0.00  0.00    -0.001 C 
ATOM      6  C   UNL     1      31.025  -5.697 -22.066  0.00  0.00    -0.073 C 
ATOM      7  C   UNL     1      32.086  -5.779 -24.247  0.00  0.00    -0.073 C 
ATOM      8  C   UNL     1      32.926  -8.741 -22.376  0.00  0.00    +0.009 C 
ATOM      9  C   UNL     1      33.587  -9.516 -23.462  0.00  0.00    -0.003 C 
ATOM     10  C   UNL     1      32.326  -9.346 -21.171  0.00  0.00    +0.077 C 
ATOM     11  C   UNL     1      33.108 -10.760 -23.931  0.00  0.00    -0.022 C 
ATOM     12  C   UNL     1      31.882 -11.499 -23.425  0.00  0.00    +0.031 C 
ATOM     13  C   UNL     1      30.819 -10.722 -22.651  0.00  0.00    +0.033 C 
ATOM     14  C   UNL     1      31.313 -10.296 -21.298  0.00  0.00    -0.004 C 
ATOM     15  C   UNL     1      30.486  -4.048 -23.741  0.00  0.00    -0.101 C 
ATOM     16  C   UNL     1      34.786  -9.006 -24.009  0.00  0.00    -0.000 C 
ATOM     17  C   UNL     1      33.842 -11.433 -24.936  0.00  0.00    -0.004 C 
ATOM     18  C   UNL     1      30.778 -10.832 -20.125  0.00  0.00    -0.001 C 
ATOM     19  C   UNL     1      35.484  -9.684 -25.008  0.00  0.00    -0.000 C 
ATOM     20  C   UNL     1      35.010 -10.899 -25.475  0.00  0.00    -0.000 C 
ATOM     21  C   UNL     1      31.254 -10.417 -18.886  0.00  0.00    +0.020 C 
ATOM     22  C   UNL     1      32.260  -9.468 -18.865  0.00  0.00    +0.099 C 
ATOM     23  H   UNL     1      32.296  -4.314 -22.851  0.00  0.00    -0.080 HD
ENDROOT
TORSDOF 0
ENDMDL
MODEL 2
REMARK VINA RESULT:      -7.0     14.529     17.213
REMARK  Name = 19861
REMARK  0 active torsions:
REMARK  status: ('A' for Active; 'I' for Inactive)
REMARK                            x       y       z     vdW  Elec       q    Type
REMARK                         _______ _______ _______ _____ _____    ______ ____
ROOT
ATOM      1  N   UNL     1      31.627 -23.354 -13.670  0.00  0.00    +0.386 N 
ATOM      2  N   UNL     1      34.187 -23.592 -18.308  0.00  0.00    -0.244 NA
ATOM      3  C   UNL     1      33.782 -24.096 -15.441  0.00  0.00    -0.047 C 
ATOM      4  C   UNL     1      32.528 -23.464 -15.982  0.00  0.00    -0.001 C 
ATOM      5  C   UNL     1      33.598 -24.795 -14.122  0.00  0.00    -0.001 C 
ATOM      6  C   UNL     1      31.862 -22.594 -14.909  0.00  0.00    -0.073 C 
ATOM      7  C   UNL     1      32.892 -23.873 -13.121  0.00  0.00    -0.073 C 
ATOM      8  C   UNL     1      34.965 -24.014 -16.064  0.00  0.00    +0.009 C 
ATOM      9  C   UNL     1      36.164 -24.665 -15.466  0.00  0.00    -0.003 C 
ATOM     10  C   UNL     1      34.991 -23.191 -17.289  0.00  0.00    +0.077 C 
ATOM     11  C   UNL     1      37.436 -24.054 -15.416  0.00  0.00    -0.022 C 
ATOM     12  C   UNL     1      37.792 -22.676 -15.947  0.00  0.00    +0.031 C 
ATOM     13  C   UNL     1      36.672 -21.667 -16.192  0.00  0.00    +0.033 C 
ATOM     14  C   UNL     1      35.807 -22.063 -17.354  0.00  0.00    -0.004 C 
ATOM     15  C   UNL     1      30.947 -22.518 -12.680  0.00  0.00    -0.101 C 
ATOM     16  C   UNL     1      36.030 -25.985 -14.978  0.00  0.00    -0.000 C 
ATOM     17  C   UNL     1      38.517 -24.783 -14.867  0.00  0.00    -0.004 C 
ATOM     18  C   UNL     1      35.789 -21.318 -18.536  0.00  0.00    -0.001 C 
ATOM     19  C   UNL     1      37.109 -26.678 -14.431  0.00  0.00    -0.000 C 
ATOM     20  C   UNL     1      38.355 -26.075 -14.372  0.00  0.00    -0.000 C 
ATOM     21  C   UNL     1      34.977 -21.708 -19.595  0.00  0.00    +0.020 C 
ATOM     22  C   UNL     1      34.201 -22.842 -19.432  0.00  0.00    +0.099 C 
ATOM     23  H   UNL     1      31.029 -24.149 -13.893  0.00  0.00    -0.080 HD
ENDROOT
TORSDOF 0
ENDMDL
MODEL 3
REMARK VINA RESULT:      -6.6      2.058      5.208
REMARK  Name = 19861
REMARK  0 active torsions:
REMARK  status: ('A' for Active; 'I' for Inactive)
REMARK                            x       y       z     vdW  Elec       q    Type
REMARK                         _______ _______ _______ _____ _____    ______ ____
ROOT
ATOM      1  N   UNL     1      32.242 -13.555 -21.096  0.00  0.00    +0.386 N 
ATOM      2  N   UNL     1      31.007  -9.002 -23.519  0.00  0.00    -0.244 NA
ATOM      3  C   UNL     1      32.356 -11.595 -23.212  0.00  0.00    -0.047 C 
ATOM      4  C   UNL     1      31.370 -11.450 -22.085  0.00  0.00    -0.001 C 
ATOM      5  C   UNL     1      32.814 -13.008 -23.450  0.00  0.00    -0.001 C 
ATOM      6  C   UNL     1      31.891 -12.151 -20.825  0.00  0.00    -0.073 C 
ATOM      7  C   UNL     1      33.280 -13.648 -22.137  0.00  0.00    -0.073 C 
ATOM      8  C   UNL     1      32.811 -10.552 -23.920  0.00  0.00    +0.009 C 
ATOM      9  C   UNL     1      33.788 -10.775 -25.021  0.00  0.00    -0.003 C 
ATOM     10  C   UNL     1      32.346  -9.223 -23.477  0.00  0.00    +0.077 C 
ATOM     11  C   UNL     1      34.916  -9.952 -25.238  0.00  0.00    -0.022 C 
ATOM     12  C   UNL     1      35.313  -8.738 -24.416  0.00  0.00    +0.031 C 
ATOM     13  C   UNL     1      34.738  -8.578 -23.009  0.00  0.00    +0.033 C 
ATOM     14  C   UNL     1      33.268  -8.273 -23.038  0.00  0.00    -0.004 C 
ATOM     15  C   UNL     1      32.689 -14.216 -19.870  0.00  0.00    -0.101 C 
ATOM     16  C   UNL     1      33.539 -11.829 -25.929  0.00  0.00    -0.000 C 
ATOM     17  C   UNL     1      35.753 -10.227 -26.344  0.00  0.00    -0.004 C 
ATOM     18  C   UNL     1      32.773  -7.034 -22.626  0.00  0.00    -0.001 C 
ATOM     19  C   UNL     1      34.387 -12.086 -27.006  0.00  0.00    -0.000 C 
ATOM     20  C   UNL     1      35.498 -11.285 -27.213  0.00  0.00    -0.000 C 
ATOM     21  C   UNL     1      31.406  -6.781 -22.662  0.00  0.00    +0.020 C 
ATOM     22  C   UNL     1      30.573  -7.789 -23.111  0.00  0.00    +0.099 C 
ATOM     23  H   UNL     1      31.408 -14.030 -21.438  0.00  0.00    -0.080 HD
ENDROOT
TORSDOF 0
ENDMDL
MODEL 4
REMARK VINA RESULT:      -6.6      1.778      4.822
REMARK  Name = 19861
REMARK  0 active torsions:
REMARK  status: ('A' for Active; 'I' for Inactive)
REMARK                            x       y       z     vdW  Elec       q    Type
REMARK                         _______ _______ _______ _____ _____    ______ ____
ROOT
ATOM      1  N   UNL     1      34.893 -10.036 -25.308  0.00  0.00    +0.386 N 
ATOM      2  N   UNL     1      30.873 -10.452 -21.875  0.00  0.00    -0.244 NA
ATOM      3  C   UNL     1      32.638  -9.079 -23.782  0.00  0.00    -0.047 C 
ATOM      4  C   UNL     1      32.984 -10.543 -23.802  0.00  0.00    -0.001 C 
ATOM      5  C   UNL     1      33.135  -8.313 -24.977  0.00  0.00    -0.001 C 
ATOM      6  C   UNL     1      34.480 -10.734 -24.080  0.00  0.00    -0.073 C 
ATOM      7  C   UNL     1      34.625  -8.591 -25.209  0.00  0.00    -0.073 C 
ATOM      8  C   UNL     1      31.973  -8.502 -22.771  0.00  0.00    +0.009 C 
ATOM      9  C   UNL     1      31.667  -7.046 -22.822  0.00  0.00    -0.003 C 
ATOM     10  C   UNL     1      31.663  -9.377 -21.623  0.00  0.00    +0.077 C 
ATOM     11  C   UNL     1      31.809  -6.183 -21.713  0.00  0.00    -0.022 C 
ATOM     12  C   UNL     1      32.279  -6.576 -20.324  0.00  0.00    +0.031 C 
ATOM     13  C   UNL     1      33.055  -7.880 -20.148  0.00  0.00    +0.033 C 
ATOM     14  C   UNL     1      32.181  -9.083 -20.363  0.00  0.00    -0.004 C 
ATOM     15  C   UNL     1      36.311 -10.274 -25.579  0.00  0.00    -0.101 C 
ATOM     16  C   UNL     1      31.153  -6.516 -24.027  0.00  0.00    -0.000 C 
ATOM     17  C   UNL     1      31.444  -4.824 -21.860  0.00  0.00    -0.004 C 
ATOM     18  C   UNL     1      31.859  -9.947 -19.314  0.00  0.00    -0.001 C 
ATOM     19  C   UNL     1      30.812  -5.169 -24.150  0.00  0.00    -0.000 C 
ATOM     20  C   UNL     1      30.960  -4.320 -23.065  0.00  0.00    -0.000 C 
ATOM     21  C   UNL     1      31.050 -11.054 -19.544  0.00  0.00    +0.020 C 
ATOM     22  C   UNL     1      30.587 -11.261 -20.830  0.00  0.00    +0.099 C 
ATOM     23  H   UNL     1      34.345 -10.407 -26.084  0.00  0.00    -0.080 HD
ENDROOT
TORSDOF 0
ENDMDL
MODEL 5
REMARK VINA RESULT:      -6.6      3.211      6.278
REMARK  Name = 19861
REMARK  0 active torsions:
REMARK  status: ('A' for Active; 'I' for Inactive)
REMARK                            x       y       z     vdW  Elec       q    Type
REMARK                         _______ _______ _______ _____ _____    ______ ____
ROOT
ATOM      1  N   UNL     1      33.928 -15.495 -20.883  0.00  0.00    +0.386 N 
ATOM      2  N   UNL     1      31.236 -11.256 -22.586  0.00  0.00    -0.244 NA
ATOM      3  C   UNL     1      32.848 -13.697 -22.865  0.00  0.00    -0.047 C 
ATOM      4  C   UNL     1      32.477 -13.551 -21.415  0.00  0.00    -0.001 C 
ATOM      5  C   UNL     1      33.298 -15.080 -23.248  0.00  0.00    -0.001 C 
ATOM      6  C   UNL     1      33.590 -14.109 -20.519  0.00  0.00    -0.073 C 
ATOM      7  C   UNL     1      34.379 -15.579 -22.282  0.00  0.00    -0.073 C 
ATOM      8  C   UNL     1      32.814 -12.676 -23.732  0.00  0.00    +0.009 C 
ATOM      9  C   UNL     1      33.196 -12.898 -25.154  0.00  0.00    -0.003 C 
ATOM     10  C   UNL     1      32.461 -11.361 -23.162  0.00  0.00    +0.077 C 
ATOM     11  C   UNL     1      34.003 -12.002 -25.890  0.00  0.00    -0.022 C 
ATOM     12  C   UNL     1      34.597 -10.702 -25.380  0.00  0.00    +0.031 C 
ATOM     13  C   UNL     1      34.716 -10.485 -23.872  0.00  0.00    +0.033 C 
ATOM     14  C   UNL     1      33.372 -10.307 -23.226  0.00  0.00    -0.004 C 
ATOM     15  C   UNL     1      34.955 -16.022 -19.983  0.00  0.00    -0.101 C 
ATOM     16  C   UNL     1      32.676 -14.035 -25.813  0.00  0.00    -0.000 C 
ATOM     17  C   UNL     1      34.266 -12.289 -27.250  0.00  0.00    -0.004 C 
ATOM     18  C   UNL     1      32.989  -9.086 -22.667  0.00  0.00    -0.001 C 
ATOM     19  C   UNL     1      32.960 -14.300 -27.153  0.00  0.00    -0.000 C 
ATOM     20  C   UNL     1      33.759 -13.427 -27.872  0.00  0.00    -0.000 C 
ATOM     21  C   UNL     1      31.738  -8.951 -22.073  0.00  0.00    +0.020 C 
ATOM     22  C   UNL     1      30.907 -10.056 -22.058  0.00  0.00    +0.099 C 
ATOM     23  H   UNL     1      33.087 -16.063 -20.786  0.00  0.00    -0.080 HD
ENDROOT
TORSDOF 0
ENDMDL
MODEL 6
REMARK VINA RESULT:      -6.1     14.123     17.154
REMARK  Name = 19861
REMARK  0 active torsions:
REMARK  status: ('A' for Active; 'I' for Inactive)
REMARK                            x       y       z     vdW  Elec       q    Type
REMARK                         _______ _______ _______ _____ _____    ______ ____
ROOT
ATOM      1  N   UNL     1      37.493 -25.831 -14.210  0.00  0.00    +0.386 N 
ATOM      2  N   UNL     1      36.486 -21.272 -16.723  0.00  0.00    -0.244 NA
ATOM      3  C   UNL     1      35.852 -23.621 -15.075  0.00  0.00    -0.047 C 
ATOM      4  C   UNL     1      37.335 -23.617 -15.324  0.00  0.00    -0.001 C 
ATOM      5  C   UNL     1      35.424 -24.489 -13.923  0.00  0.00    -0.001 C 
ATOM      6  C   UNL     1      37.867 -25.054 -15.403  0.00  0.00    -0.073 C 
ATOM      7  C   UNL     1      36.030 -25.891 -14.056  0.00  0.00    -0.073 C 
ATOM      8  C   UNL     1      34.984 -22.936 -15.832  0.00  0.00    +0.009 C 
ATOM      9  C   UNL     1      33.528 -22.989 -15.523  0.00  0.00    -0.003 C 
ATOM     10  C   UNL     1      35.562 -22.230 -16.993  0.00  0.00    +0.077 C 
ATOM     11  C   UNL     1      32.529 -23.123 -16.512  0.00  0.00    -0.022 C 
ATOM     12  C   UNL     1      32.755 -23.231 -18.009  0.00  0.00    +0.031 C 
ATOM     13  C   UNL     1      34.136 -23.640 -18.520  0.00  0.00    +0.033 C 
ATOM     14  C   UNL     1      35.159 -22.565 -18.284  0.00  0.00    -0.004 C 
ATOM     15  C   UNL     1      38.054 -27.181 -14.284  0.00  0.00    -0.101 C 
ATOM     16  C   UNL     1      33.129 -22.838 -14.176  0.00  0.00    -0.000 C 
ATOM     17  C   UNL     1      31.172 -23.115 -16.110  0.00  0.00    -0.004 C 
ATOM     18  C   UNL     1      35.742 -21.869 -19.346  0.00  0.00    -0.001 C 
ATOM     19  C   UNL     1      31.785 -22.844 -13.804  0.00  0.00    -0.000 C 
ATOM     20  C   UNL     1      30.804 -22.986 -14.773  0.00  0.00    -0.000 C 
ATOM     21  C   UNL     1      36.688 -20.881 -19.097  0.00  0.00    +0.020 C 
ATOM     22  C   UNL     1      37.023 -20.623 -17.780  0.00  0.00    +0.099 C 
ATOM     23  H   UNL     1      37.879 -25.362 -13.391  0.00  0.00    -0.080 HD
ENDROOT
TORSDOF 0
ENDMDL
MODEL 7
REMARK VINA RESULT:      -6.1      3.744      6.636
REMARK  Name = 19861
REMARK  0 active torsions:
REMARK  status: ('A' for Active; 'I' for Inactive)
REMARK                            x       y       z     vdW  Elec       q    Type
REMARK                         _______ _______ _______ _____ _____    ______ ____
ROOT
ATOM      1  N   UNL     1      35.065 -10.126 -26.031  0.00  0.00    +0.386 N 
ATOM      2  N   UNL     1      32.525 -14.774 -25.778  0.00  0.00    -0.244 NA
ATOM      3  C   UNL     1      33.412 -12.147 -24.802  0.00  0.00    -0.047 C 
ATOM      4  C   UNL     1      33.840 -12.276 -26.239  0.00  0.00    -0.001 C 
ATOM      5  C   UNL     1      33.405 -10.734 -24.287  0.00  0.00    -0.001 C 
ATOM      6  C   UNL     1      35.157 -11.527 -26.473  0.00  0.00    -0.073 C 
ATOM      7  C   UNL     1      34.739 -10.045 -24.597  0.00  0.00    -0.073 C 
ATOM      8  C   UNL     1      33.096 -13.203 -24.039  0.00  0.00    +0.009 C 
ATOM      9  C   UNL     1      32.682 -12.996 -22.624  0.00  0.00    -0.003 C 
ATOM     10  C   UNL     1      33.269 -14.526 -24.669  0.00  0.00    +0.077 C 
ATOM     11  C   UNL     1      33.133 -13.804 -21.556  0.00  0.00    -0.022 C 
ATOM     12  C   UNL     1      34.082 -14.983 -21.662  0.00  0.00    +0.031 C 
ATOM     13  C   UNL     1      34.968 -15.111 -22.901  0.00  0.00    +0.033 C 
ATOM     14  C   UNL     1      34.167 -15.444 -24.127  0.00  0.00    -0.004 C 
ATOM     15  C   UNL     1      36.315  -9.419 -26.310  0.00  0.00    -0.101 C 
ATOM     16  C   UNL     1      31.744 -11.975 -22.348  0.00  0.00    -0.000 C 
ATOM     17  C   UNL     1      32.637 -13.547 -20.256  0.00  0.00    -0.004 C 
ATOM     18  C   UNL     1      34.295 -16.680 -24.766  0.00  0.00    -0.001 C 
ATOM     19  C   UNL     1      31.280 -11.735 -21.054  0.00  0.00    -0.000 C 
ATOM     20  C   UNL     1      31.730 -12.521 -20.006  0.00  0.00    -0.000 C 
ATOM     21  C   UNL     1      33.542 -16.959 -25.901  0.00  0.00    +0.020 C 
ATOM     22  C   UNL     1      32.680 -15.982 -26.363  0.00  0.00    +0.099 C 
ATOM     23  H   UNL     1      34.312  -9.677 -26.552  0.00  0.00    -0.080 HD
ENDROOT
TORSDOF 0
ENDMDL
MODEL 8
REMARK VINA RESULT:      -5.6      2.369      6.329
REMARK  Name = 19861
REMARK  0 active torsions:
REMARK  status: ('A' for Active; 'I' for Inactive)
REMARK                            x       y       z     vdW  Elec       q    Type
REMARK                         _______ _______ _______ _____ _____    ______ ____
ROOT
ATOM      1  N   UNL     1      34.040 -11.501 -24.619  0.00  0.00    +0.386 N 
ATOM      2  N   UNL     1      35.144  -6.347 -25.201  0.00  0.00    -0.244 NA
ATOM      3  C   UNL     1      34.066  -8.721 -23.845  0.00  0.00    -0.047 C 
ATOM      4  C   UNL     1      34.823  -9.186 -25.058  0.00  0.00    -0.001 C 
ATOM      5  C   UNL     1      33.817  -9.798 -22.825  0.00  0.00    -0.001 C 
ATOM      6  C   UNL     1      34.178 -10.449 -25.640  0.00  0.00    -0.073 C 
ATOM      7  C   UNL     1      33.211 -11.038 -23.493  0.00  0.00    -0.073 C 
ATOM      8  C   UNL     1      33.622  -7.465 -23.700  0.00  0.00    +0.009 C 
ATOM      9  C   UNL     1      32.878  -7.079 -22.469  0.00  0.00    -0.003 C 
ATOM     10  C   UNL     1      33.851  -6.566 -24.848  0.00  0.00    +0.077 C 
ATOM     11  C   UNL     1      31.718  -6.273 -22.483  0.00  0.00    -0.022 C 
ATOM     12  C   UNL     1      31.052  -5.678 -23.711  0.00  0.00    +0.031 C 
ATOM     13  C   UNL     1      31.357  -6.281 -25.082  0.00  0.00    +0.033 C 
ATOM     14  C   UNL     1      32.767  -5.997 -25.515  0.00  0.00    -0.004 C 
ATOM     15  C   UNL     1      33.469 -12.712 -25.208  0.00  0.00    -0.101 C 
ATOM     16  C   UNL     1      33.396  -7.494 -21.221  0.00  0.00    -0.000 C 
ATOM     17  C   UNL     1      31.117  -5.929 -21.249  0.00  0.00    -0.004 C 
ATOM     18  C   UNL     1      33.041  -5.158 -26.598  0.00  0.00    -0.001 C 
ATOM     19  C   UNL     1      32.778  -7.150 -20.019  0.00  0.00    -0.000 C 
ATOM     20  C   UNL     1      31.634  -6.368 -20.033  0.00  0.00    -0.000 C 
ATOM     21  C   UNL     1      34.357  -4.915 -26.978  0.00  0.00    +0.020 C 
ATOM     22  C   UNL     1      35.363  -5.529 -26.254  0.00  0.00    +0.099 C 
ATOM     23  H   UNL     1      34.968 -11.719 -24.260  0.00  0.00    -0.080 HD
ENDROOT
TORSDOF 0
ENDMDL
MODEL 9
REMARK VINA RESULT:      -5.5      2.483      5.962
REMARK  Name = 19861
REMARK  0 active torsions:
REMARK  status: ('A' for Active; 'I' for Inactive)
REMARK                            x       y       z     vdW  Elec       q    Type
REMARK                         _______ _______ _______ _____ _____    ______ ____
ROOT
ATOM      1  N   UNL     1      33.526 -13.387 -26.280  0.00  0.00    +0.386 N 
ATOM      2  N   UNL     1      34.919  -8.945 -23.741  0.00  0.00    -0.244 NA
ATOM      3  C   UNL     1      33.649 -11.579 -24.034  0.00  0.00    -0.047 C 
ATOM      4  C   UNL     1      34.448 -11.310 -25.280  0.00  0.00    -0.001 C 
ATOM      5  C   UNL     1      33.291 -13.026 -23.834  0.00  0.00    -0.001 C 
ATOM      6  C   UNL     1      33.773 -11.952 -26.497  0.00  0.00    -0.073 C 
ATOM      7  C   UNL     1      32.661 -13.602 -25.108  0.00  0.00    -0.073 C 
ATOM      8  C   UNL     1      33.262 -10.610 -23.193  0.00  0.00    +0.009 C 
ATOM      9  C   UNL     1      32.472 -10.955 -21.979  0.00  0.00    -0.003 C 
ATOM     10  C   UNL     1      33.600  -9.233 -23.601  0.00  0.00    +0.077 C 
ATOM     11  C   UNL     1      31.357 -10.208 -21.540  0.00  0.00    -0.022 C 
ATOM     12  C   UNL     1      30.791  -8.965 -22.203  0.00  0.00    +0.031 C 
ATOM     13  C   UNL     1      31.140  -8.684 -23.664  0.00  0.00    +0.033 C 
ATOM     14  C   UNL     1      32.584  -8.305 -23.830  0.00  0.00    -0.004 C 
ATOM     15  C   UNL     1      32.928 -13.988 -27.472  0.00  0.00    -0.101 C 
ATOM     16  C   UNL     1      32.899 -12.053 -21.197  0.00  0.00    -0.000 C 
ATOM     17  C   UNL     1      30.707 -10.598 -20.345  0.00  0.00    -0.004 C 
ATOM     18  C   UNL     1      32.959  -7.017 -24.219  0.00  0.00    -0.001 C 
ATOM     19  C   UNL     1      32.234 -12.424 -20.028  0.00  0.00    -0.000 C 
ATOM     20  C   UNL     1      31.134 -11.697 -19.603  0.00  0.00    -0.000 C 
ATOM     21  C   UNL     1      34.304  -6.696 -24.366  0.00  0.00    +0.020 C 
ATOM     22  C   UNL     1      35.237  -7.687 -24.118  0.00  0.00    +0.099 C 
ATOM     23  H   UNL     1      34.421 -13.840 -26.100  0.00  0.00    -0.080 HD
ENDROOT
TORSDOF 0
ENDMDL
