MODEL 1
REMARK VINA RESULT:      -9.5      0.000      0.000
REMARK  Name = 25163987
REMARK  9 active torsions:
REMARK  status: ('A' for Active; 'I' for Inactive)
REMARK    1  A    between atoms: C_3  and  N_21
REMARK    2  A    between atoms: C_4  and  C_11
REMARK    3  A    between atoms: N_10  and  O_13
REMARK    4  A    between atoms: O_13  and  C_14
REMARK    5  A    between atoms: C_14  and  C_15
REMARK    6  A    between atoms: C_15  and  O_16
REMARK    7  A    between atoms: C_15  and  C_18
REMARK    8  A    between atoms: C_18  and  O_19
REMARK    9  A    between atoms: N_21  and  C_25
REMARK                            x       y       z     vdW  Elec       q    Type
REMARK                         _______ _______ _______ _____ _____    ______ ____
ROOT
ATOM      1  F   UNL     1      33.037 -23.223 -12.728  0.00  0.00    -0.200 F 
ATOM      2  F   UNL     1      30.462 -24.115 -12.746  0.00  0.00    -0.202 F 
ATOM      3  C   UNL     1      33.069 -23.173 -15.103  0.00  0.00    +0.083 C 
ATOM      4  C   UNL     1      32.408 -23.383 -16.313  0.00  0.00    +0.071 C 
ATOM      5  C   UNL     1      32.412 -23.421 -13.898  0.00  0.00    +0.181 C 
ATOM      6  C   UNL     1      31.090 -23.840 -16.319  0.00  0.00    +0.008 C 
ATOM      7  C   UNL     1      31.093 -23.877 -13.903  0.00  0.00    +0.169 C 
ATOM      8  C   UNL     1      30.433 -24.086 -15.113  0.00  0.00    +0.032 C 
ENDROOT
BRANCH   4  11
ATOM      9  O   UNL     1      34.099 -23.750 -17.901  0.00  0.00    -0.268 OA
ATOM     10  N   UNL     1      32.472 -22.204 -18.430  0.00  0.00    -0.190 N 
ATOM     11  C   UNL     1      33.078 -23.130 -17.616  0.00  0.00    +0.269 C 
ATOM     12  H   UNL     1      31.646 -21.733 -18.174  0.00  0.00    +0.183 HD
BRANCH  10  13
ATOM     13  O   UNL     1      33.122 -21.978 -19.658  0.00  0.00    -0.263 OA
BRANCH  13  14
ATOM     14  C   UNL     1      33.116 -20.577 -19.916  0.00  0.00    +0.203 C 
BRANCH  14  15
ATOM     15  C   UNL     1      34.382 -20.185 -20.669  0.00  0.00    +0.172 C 
BRANCH  15  16
ATOM     16  O   UNL     1      35.506 -20.381 -19.807  0.00  0.00    -0.379 OA
ATOM     17  H   UNL     1      35.532 -21.306 -19.515  0.00  0.00    +0.211 HD
ENDBRANCH  15  16
BRANCH  15  18
ATOM     18  C   UNL     1      34.355 -18.718 -21.078  0.00  0.00    +0.169 C 
BRANCH  18  19
ATOM     19  O   UNL     1      35.587 -18.111 -20.703  0.00  0.00    -0.379 OA
ATOM     20  H   UNL     1      36.319 -18.718 -20.899  0.00  0.00    +0.211 HD
ENDBRANCH  18  19
ENDBRANCH  15  18
ENDBRANCH  14  15
ENDBRANCH  13  14
ENDBRANCH  10  13
ENDBRANCH   4  11
BRANCH   3  21
ATOM     21  N   UNL     1      34.403 -22.711 -15.079  0.00  0.00    -0.310 N 
ATOM     22  H   UNL     1      34.487 -21.737 -15.184  0.00  0.00    +0.152 HD
BRANCH  21  25
ATOM     23  I   UNL     1      39.856 -25.733 -14.362  0.00  0.00    -0.042 I 
ATOM     24 CL   UNL     1      36.731 -21.573 -16.670  0.00  0.00    -0.081 Cl
ATOM     25  C   UNL     1      35.637 -23.373 -14.935  0.00  0.00    +0.059 C 
ATOM     26  C   UNL     1      36.775 -22.940 -15.616  0.00  0.00    +0.071 C 
ATOM     27  C   UNL     1      35.708 -24.481 -14.091  0.00  0.00    +0.016 C 
ATOM     28  C   UNL     1      37.985 -23.616 -15.452  0.00  0.00    +0.018 C 
ATOM     29  C   UNL     1      36.917 -25.157 -13.927  0.00  0.00    +0.007 C 
ATOM     30  C   UNL     1      38.054 -24.725 -14.607  0.00  0.00    +0.031 C 
ENDBRANCH  21  25
ENDBRANCH   3  21
TORSDOF 9
ENDMDL
MODEL 2
REMARK VINA RESULT:      -8.9     10.096     13.822
REMARK  Name = 25163987
REMARK  9 active torsions:
REMARK  status: ('A' for Active; 'I' for Inactive)
REMARK    1  A    between atoms: C_3  and  N_21
REMARK    2  A    between atoms: C_4  and  C_11
REMARK    3  A    between atoms: N_10  and  O_13
REMARK    4  A    between atoms: O_13  and  C_14
REMARK    5  A    between atoms: C_14  and  C_15
REMARK    6  A    between atoms: C_15  and  O_16
REMARK    7  A    between atoms: C_15  and  C_18
REMARK    8  A    between atoms: C_18  and  O_19
REMARK    9  A    between atoms: N_21  and  C_25
REMARK                            x       y       z     vdW  Elec       q    Type
REMARK                         _______ _______ _______ _____ _____    ______ ____
ROOT
ATOM      1  F   UNL     1      33.462 -11.438 -26.197  0.00  0.00    -0.200 F 
ATOM      2  F   UNL     1      32.960 -13.425 -27.993  0.00  0.00    -0.202 F 
ATOM      3  C   UNL     1      33.686 -13.031 -24.449  0.00  0.00    +0.083 C 
ATOM      4  C   UNL     1      33.667 -14.363 -24.035  0.00  0.00    +0.071 C 
ATOM      5  C   UNL     1      33.447 -12.714 -25.786  0.00  0.00    +0.181 C 
ATOM      6  C   UNL     1      33.410 -15.378 -24.957  0.00  0.00    +0.008 C 
ATOM      7  C   UNL     1      33.190 -13.729 -26.709  0.00  0.00    +0.169 C 
ATOM      8  C   UNL     1      33.172 -15.060 -26.294  0.00  0.00    +0.032 C 
ENDROOT
BRANCH   4  11
ATOM      9  O   UNL     1      33.390 -14.087 -21.719  0.00  0.00    -0.268 OA
ATOM     10  N   UNL     1      34.733 -15.825 -22.421  0.00  0.00    -0.190 N 
ATOM     11  C   UNL     1      33.918 -14.736 -22.618  0.00  0.00    +0.269 C 
ATOM     12  H   UNL     1      35.131 -16.331 -23.167  0.00  0.00    +0.183 HD
BRANCH  10  13
ATOM     13  O   UNL     1      34.958 -16.161 -21.073  0.00  0.00    -0.263 OA
BRANCH  13  14
ATOM     14  C   UNL     1      35.357 -17.527 -21.013  0.00  0.00    +0.203 C 
BRANCH  14  15
ATOM     15  C   UNL     1      34.323 -18.398 -21.719  0.00  0.00    +0.172 C 
BRANCH  15  16
ATOM     16  O   UNL     1      33.913 -19.436 -20.825  0.00  0.00    -0.379 OA
ATOM     17  H   UNL     1      33.934 -20.288 -21.288  0.00  0.00    +0.211 HD
ENDBRANCH  15  16
BRANCH  15  18
ATOM     18  C   UNL     1      34.905 -19.055 -22.964  0.00  0.00    +0.169 C 
BRANCH  18  19
ATOM     19  O   UNL     1      35.982 -18.258 -23.445  0.00  0.00    -0.379 OA
ATOM     20  H   UNL     1      36.053 -18.358 -24.408  0.00  0.00    +0.211 HD
ENDBRANCH  18  19
ENDBRANCH  15  18
ENDBRANCH  14  15
ENDBRANCH  13  14
ENDBRANCH  10  13
ENDBRANCH   4  11
BRANCH   3  21
ATOM     21  N   UNL     1      33.945 -11.992 -23.530  0.00  0.00    -0.310 N 
ATOM     22  H   UNL     1      34.674 -12.191 -22.900  0.00  0.00    +0.152 HD
BRANCH  21  25
ATOM     23  I   UNL     1      31.258  -6.395 -22.616  0.00  0.00    -0.042 I 
ATOM     24 CL   UNL     1      35.464  -9.625 -24.684  0.00  0.00    -0.081 Cl
ATOM     25  C   UNL     1      33.362 -10.725 -23.336  0.00  0.00    +0.059 C 
ATOM     26  C   UNL     1      33.968  -9.567 -23.823  0.00  0.00    +0.071 C 
ATOM     27  C   UNL     1      32.154 -10.643 -22.645  0.00  0.00    +0.016 C 
ATOM     28  C   UNL     1      33.365  -8.325 -23.616  0.00  0.00    +0.018 C 
ATOM     29  C   UNL     1      31.551  -9.402 -22.438  0.00  0.00    +0.007 C 
ATOM     30  C   UNL     1      32.157  -8.244 -22.924  0.00  0.00    +0.031 C 
ENDBRANCH  21  25
ENDBRANCH   3  21
TORSDOF 9
ENDMDL
MODEL 3
REMARK VINA RESULT:      -8.8      9.700     13.891
REMARK  Name = 25163987
REMARK  9 active torsions:
REMARK  status: ('A' for Active; 'I' for Inactive)
REMARK    1  A    between atoms: C_3  and  N_21
REMARK    2  A    between atoms: C_4  and  C_11
REMARK    3  A    between atoms: N_10  and  O_13
REMARK    4  A    between atoms: O_13  and  C_14
REMARK    5  A    between atoms: C_14  and  C_15
REMARK    6  A    between atoms: C_15  and  O_16
REMARK    7  A    between atoms: C_15  and  C_18
REMARK    8  A    between atoms: C_18  and  O_19
REMARK    9  A    between atoms: N_21  and  C_25
REMARK                            x       y       z     vdW  Elec       q    Type
REMARK                         _______ _______ _______ _____ _____    ______ ____
ROOT
ATOM      1  F   UNL     1      33.508 -11.277 -26.199  0.00  0.00    -0.200 F 
ATOM      2  F   UNL     1      32.959 -13.218 -28.031  0.00  0.00    -0.202 F 
ATOM      3  C   UNL     1      33.734 -12.911 -24.489  0.00  0.00    +0.083 C 
ATOM      4  C   UNL     1      33.704 -14.251 -24.103  0.00  0.00    +0.071 C 
ATOM      5  C   UNL     1      33.482 -12.562 -25.816  0.00  0.00    +0.181 C 
ATOM      6  C   UNL     1      33.422 -15.242 -25.044  0.00  0.00    +0.008 C 
ATOM      7  C   UNL     1      33.201 -13.553 -26.757  0.00  0.00    +0.169 C 
ATOM      8  C   UNL     1      33.171 -14.893 -26.371  0.00  0.00    +0.032 C 
ENDROOT
BRANCH   4  11
ATOM      9  O   UNL     1      33.434 -14.041 -21.780  0.00  0.00    -0.268 OA
ATOM     10  N   UNL     1      34.801 -15.738 -22.534  0.00  0.00    -0.190 N 
ATOM     11  C   UNL     1      33.968 -14.658 -22.698  0.00  0.00    +0.269 C 
ATOM     12  H   UNL     1      35.202 -16.217 -23.295  0.00  0.00    +0.183 HD
BRANCH  10  13
ATOM     13  O   UNL     1      35.038 -16.107 -21.197  0.00  0.00    -0.263 OA
BRANCH  13  14
ATOM     14  C   UNL     1      34.673 -17.475 -21.039  0.00  0.00    +0.203 C 
BRANCH  14  15
ATOM     15  C   UNL     1      35.844 -18.369 -21.429  0.00  0.00    +0.172 C 
BRANCH  15  16
ATOM     16  O   UNL     1      35.852 -18.520 -22.850  0.00  0.00    -0.379 OA
ATOM     17  H   UNL     1      35.971 -19.456 -23.075  0.00  0.00    +0.211 HD
ENDBRANCH  15  16
BRANCH  15  18
ATOM     18  C   UNL     1      35.716 -19.756 -20.810  0.00  0.00    +0.169 C 
BRANCH  18  19
ATOM     19  O   UNL     1      36.724 -19.914 -19.818  0.00  0.00    -0.379 OA
ATOM     20  H   UNL     1      37.456 -20.439 -20.181  0.00  0.00    +0.211 HD
ENDBRANCH  18  19
ENDBRANCH  15  18
ENDBRANCH  14  15
ENDBRANCH  13  14
ENDBRANCH  10  13
ENDBRANCH   4  11
BRANCH   3  21
ATOM     21  N   UNL     1      34.017 -11.895 -23.550  0.00  0.00    -0.310 N 
ATOM     22  H   UNL     1      34.708 -12.142 -22.895  0.00  0.00    +0.152 HD
BRANCH  21  25
ATOM     23  I   UNL     1      31.822  -6.065 -22.791  0.00  0.00    -0.042 I 
ATOM     24 CL   UNL     1      31.336 -11.698 -22.130  0.00  0.00    -0.081 Cl
ATOM     25  C   UNL     1      33.504 -10.597 -23.369  0.00  0.00    +0.059 C 
ATOM     26  C   UNL     1      32.282 -10.384 -22.729  0.00  0.00    +0.071 C 
ATOM     27  C   UNL     1      34.242  -9.513 -23.842  0.00  0.00    +0.016 C 
ATOM     28  C   UNL     1      31.800  -9.085 -22.564  0.00  0.00    +0.018 C 
ATOM     29  C   UNL     1      33.760  -8.214 -23.676  0.00  0.00    +0.007 C 
ATOM     30  C   UNL     1      32.540  -8.001 -23.038  0.00  0.00    +0.031 C 
ENDBRANCH  21  25
ENDBRANCH   3  21
TORSDOF 9
ENDMDL
MODEL 4
REMARK VINA RESULT:      -8.6      6.764      9.919
REMARK  Name = 25163987
REMARK  9 active torsions:
REMARK  status: ('A' for Active; 'I' for Inactive)
REMARK    1  A    between atoms: C_3  and  N_21
REMARK    2  A    between atoms: C_4  and  C_11
REMARK    3  A    between atoms: N_10  and  O_13
REMARK    4  A    between atoms: O_13  and  C_14
REMARK    5  A    between atoms: C_14  and  C_15
REMARK    6  A    between atoms: C_15  and  O_16
REMARK    7  A    between atoms: C_15  and  C_18
REMARK    8  A    between atoms: C_18  and  O_19
REMARK    9  A    between atoms: N_21  and  C_25
REMARK                            x       y       z     vdW  Elec       q    Type
REMARK                         _______ _______ _______ _____ _____    ______ ____
ROOT
ATOM      1  F   UNL     1      35.313 -18.833 -23.815  0.00  0.00    -0.200 F 
ATOM      2  F   UNL     1      34.726 -17.805 -26.269  0.00  0.00    -0.202 F 
ATOM      3  C   UNL     1      34.561 -16.839 -22.765  0.00  0.00    +0.083 C 
ATOM      4  C   UNL     1      34.026 -15.556 -22.878  0.00  0.00    +0.071 C 
ATOM      5  C   UNL     1      34.798 -17.599 -23.910  0.00  0.00    +0.181 C 
ATOM      6  C   UNL     1      33.726 -15.033 -24.136  0.00  0.00    +0.008 C 
ATOM      7  C   UNL     1      34.498 -17.076 -25.169  0.00  0.00    +0.169 C 
ATOM      8  C   UNL     1      33.962 -15.793 -25.281  0.00  0.00    +0.032 C 
ENDROOT
BRANCH   4  11
ATOM      9  O   UNL     1      34.571 -14.712 -20.755  0.00  0.00    -0.268 OA
ATOM     10  N   UNL     1      32.601 -13.983 -21.706  0.00  0.00    -0.190 N 
ATOM     11  C   UNL     1      33.761 -14.720 -21.678  0.00  0.00    +0.269 C 
ATOM     12  H   UNL     1      31.979 -14.004 -22.469  0.00  0.00    +0.183 HD
BRANCH  10  13
ATOM     13  O   UNL     1      32.369 -13.199 -20.561  0.00  0.00    -0.263 OA
BRANCH  13  14
ATOM     14  C   UNL     1      31.583 -12.074 -20.941  0.00  0.00    +0.203 C 
BRANCH  14  15
ATOM     15  C   UNL     1      31.746 -10.959 -19.914  0.00  0.00    +0.172 C 
BRANCH  15  16
ATOM     16  O   UNL     1      30.529 -10.835 -19.175  0.00  0.00    -0.379 OA
ATOM     17  H   UNL     1      30.043 -11.673 -19.209  0.00  0.00    +0.211 HD
ENDBRANCH  15  16
BRANCH  15  18
ATOM     18  C   UNL     1      32.026  -9.620 -20.585  0.00  0.00    +0.169 C 
BRANCH  18  19
ATOM     19  O   UNL     1      32.715  -8.778 -19.668  0.00  0.00    -0.379 OA
ATOM     20  H   UNL     1      33.245  -8.130 -20.158  0.00  0.00    +0.211 HD
ENDBRANCH  18  19
ENDBRANCH  15  18
ENDBRANCH  14  15
ENDBRANCH  13  14
ENDBRANCH  10  13
ENDBRANCH   4  11
BRANCH   3  21
ATOM     21  N   UNL     1      34.871 -17.385 -21.500  0.00  0.00    -0.310 N 
ATOM     22  H   UNL     1      35.328 -16.755 -20.897  0.00  0.00    +0.152 HD
BRANCH  21  25
ATOM     23  I   UNL     1      33.790 -23.022 -18.964  0.00  0.00    -0.042 I 
ATOM     24 CL   UNL     1      37.353 -19.054 -20.955  0.00  0.00    -0.081 Cl
ATOM     25  C   UNL     1      34.654 -18.654 -20.932  0.00  0.00    +0.059 C 
ATOM     26  C   UNL     1      35.717 -19.507 -20.637  0.00  0.00    +0.071 C 
ATOM     27  C   UNL     1      33.345 -19.052 -20.662  0.00  0.00    +0.016 C 
ATOM     28  C   UNL     1      35.470 -20.760 -20.074  0.00  0.00    +0.018 C 
ATOM     29  C   UNL     1      33.097 -20.303 -20.099  0.00  0.00    +0.007 C 
ATOM     30  C   UNL     1      34.159 -21.157 -19.805  0.00  0.00    +0.031 C 
ENDBRANCH  21  25
ENDBRANCH   3  21
TORSDOF 9
ENDMDL
MODEL 5
REMARK VINA RESULT:      -8.6      3.931      6.528
REMARK  Name = 25163987
REMARK  9 active torsions:
REMARK  status: ('A' for Active; 'I' for Inactive)
REMARK    1  A    between atoms: C_3  and  N_21
REMARK    2  A    between atoms: C_4  and  C_11
REMARK    3  A    between atoms: N_10  and  O_13
REMARK    4  A    between atoms: O_13  and  C_14
REMARK    5  A    between atoms: C_14  and  C_15
REMARK    6  A    between atoms: C_15  and  O_16
REMARK    7  A    between atoms: C_15  and  C_18
REMARK    8  A    between atoms: C_18  and  O_19
REMARK    9  A    between atoms: N_21  and  C_25
REMARK                            x       y       z     vdW  Elec       q    Type
REMARK                         _______ _______ _______ _____ _____    ______ ____
ROOT
ATOM      1  F   UNL     1      37.455 -22.089 -17.451  0.00  0.00    -0.200 F 
ATOM      2  F   UNL     1      37.803 -22.412 -14.768  0.00  0.00    -0.202 F 
ATOM      3  C   UNL     1      35.160 -22.671 -17.255  0.00  0.00    +0.083 C 
ATOM      4  C   UNL     1      34.087 -23.051 -16.449  0.00  0.00    +0.071 C 
ATOM      5  C   UNL     1      36.415 -22.455 -16.687  0.00  0.00    +0.181 C 
ATOM      6  C   UNL     1      34.268 -23.215 -15.076  0.00  0.00    +0.008 C 
ATOM      7  C   UNL     1      36.598 -22.619 -15.313  0.00  0.00    +0.169 C 
ATOM      8  C   UNL     1      35.524 -22.998 -14.508  0.00  0.00    +0.032 C 
ENDROOT
BRANCH   4  11
ATOM      9  O   UNL     1      32.626 -23.907 -18.077  0.00  0.00    -0.268 OA
ATOM     10  N   UNL     1      31.681 -22.796 -16.290  0.00  0.00    -0.190 N 
ATOM     11  C   UNL     1      32.735 -23.288 -17.021  0.00  0.00    +0.269 C 
ATOM     12  H   UNL     1      31.805 -22.314 -15.441  0.00  0.00    +0.183 HD
BRANCH  10  13
ATOM     13  O   UNL     1      30.411 -23.031 -16.850  0.00  0.00    -0.263 OA
BRANCH  13  14
ATOM     14  C   UNL     1      29.748 -24.011 -16.056  0.00  0.00    +0.203 C 
BRANCH  14  15
ATOM     15  C   UNL     1      28.238 -23.841 -16.183  0.00  0.00    +0.172 C 
BRANCH  15  16
ATOM     16  O   UNL     1      27.858 -24.112 -17.534  0.00  0.00    -0.379 OA
ATOM     17  H   UNL     1      28.632 -24.422 -18.031  0.00  0.00    +0.211 HD
ENDBRANCH  15  16
BRANCH  15  18
ATOM     18  C   UNL     1      27.807 -22.418 -15.851  0.00  0.00    +0.169 C 
BRANCH  18  19
ATOM     19  O   UNL     1      27.709 -21.672 -17.059  0.00  0.00    -0.379 OA
ATOM     20  H   UNL     1      27.039 -20.977 -16.957  0.00  0.00    +0.211 HD
ENDBRANCH  18  19
ENDBRANCH  15  18
ENDBRANCH  14  15
ENDBRANCH  13  14
ENDBRANCH  10  13
ENDBRANCH   4  11
BRANCH   3  21
ATOM     21  N   UNL     1      34.994 -22.500 -18.647  0.00  0.00    -0.310 N 
ATOM     22  H   UNL     1      34.776 -23.332 -19.125  0.00  0.00    +0.152 HD
BRANCH  21  25
ATOM     23  I   UNL     1      35.495 -17.481 -22.379  0.00  0.00    -0.042 I 
ATOM     24 CL   UNL     1      32.361 -21.169 -19.383  0.00  0.00    -0.081 Cl
ATOM     25  C   UNL     1      35.081 -21.372 -19.484  0.00  0.00    +0.059 C 
ATOM     26  C   UNL     1      33.939 -20.679 -19.887  0.00  0.00    +0.071 C 
ATOM     27  C   UNL     1      36.340 -20.950 -19.910  0.00  0.00    +0.016 C 
ATOM     28  C   UNL     1      34.057 -19.564 -20.718  0.00  0.00    +0.018 C 
ATOM     29  C   UNL     1      36.458 -19.835 -20.740  0.00  0.00    +0.007 C 
ATOM     30  C   UNL     1      35.318 -19.143 -21.143  0.00  0.00    +0.031 C 
ENDBRANCH  21  25
ENDBRANCH   3  21
TORSDOF 9
ENDMDL
MODEL 6
REMARK VINA RESULT:      -8.5      4.474      7.399
REMARK  Name = 25163987
REMARK  9 active torsions:
REMARK  status: ('A' for Active; 'I' for Inactive)
REMARK    1  A    between atoms: C_3  and  N_21
REMARK    2  A    between atoms: C_4  and  C_11
REMARK    3  A    between atoms: N_10  and  O_13
REMARK    4  A    between atoms: O_13  and  C_14
REMARK    5  A    between atoms: C_14  and  C_15
REMARK    6  A    between atoms: C_15  and  O_16
REMARK    7  A    between atoms: C_15  and  C_18
REMARK    8  A    between atoms: C_18  and  O_19
REMARK    9  A    between atoms: N_21  and  C_25
REMARK                            x       y       z     vdW  Elec       q    Type
REMARK                         _______ _______ _______ _____ _____    ______ ____
ROOT
ATOM      1  F   UNL     1      33.678 -22.815 -18.936  0.00  0.00    -0.200 F 
ATOM      2  F   UNL     1      35.701 -21.332 -20.001  0.00  0.00    -0.202 F 
ATOM      3  C   UNL     1      34.861 -23.012 -16.884  0.00  0.00    +0.083 C 
ATOM      4  C   UNL     1      35.993 -22.721 -16.124  0.00  0.00    +0.071 C 
ATOM      5  C   UNL     1      34.762 -22.543 -18.194  0.00  0.00    +0.181 C 
ATOM      6  C   UNL     1      37.027 -21.962 -16.672  0.00  0.00    +0.008 C 
ATOM      7  C   UNL     1      35.796 -21.783 -18.743  0.00  0.00    +0.169 C 
ATOM      8  C   UNL     1      36.927 -21.492 -17.982  0.00  0.00    +0.032 C 
ENDROOT
BRANCH   4  11
ATOM      9  O   UNL     1      35.286 -22.892 -13.890  0.00  0.00    -0.268 OA
ATOM     10  N   UNL     1      37.220 -24.005 -14.473  0.00  0.00    -0.190 N 
ATOM     11  C   UNL     1      36.131 -23.205 -14.725  0.00  0.00    +0.269 C 
ATOM     12  H   UNL     1      37.872 -24.247 -15.170  0.00  0.00    +0.183 HD
BRANCH  10  13
ATOM     13  O   UNL     1      37.332 -24.452 -13.143  0.00  0.00    -0.263 OA
BRANCH  13  14
ATOM     14  C   UNL     1      38.448 -25.334 -13.061  0.00  0.00    +0.203 C 
BRANCH  14  15
ATOM     15  C   UNL     1      38.825 -25.822 -14.455  0.00  0.00    +0.172 C 
BRANCH  15  16
ATOM     16  O   UNL     1      38.252 -27.116 -14.658  0.00  0.00    -0.379 OA
ATOM     17  H   UNL     1      37.288 -27.059 -14.574  0.00  0.00    +0.211 HD
ENDBRANCH  15  16
BRANCH  15  18
ATOM     18  C   UNL     1      40.335 -25.947 -14.611  0.00  0.00    +0.169 C 
BRANCH  18  19
ATOM     19  O   UNL     1      40.647 -26.074 -15.994  0.00  0.00    -0.379 OA
ATOM     20  H   UNL     1      40.515 -25.219 -16.435  0.00  0.00    +0.211 HD
ENDBRANCH  18  19
ENDBRANCH  15  18
ENDBRANCH  14  15
ENDBRANCH  13  14
ENDBRANCH  10  13
ENDBRANCH   4  11
BRANCH   3  21
ATOM     21  N   UNL     1      33.805 -23.779 -16.345  0.00  0.00    -0.310 N 
ATOM     22  H   UNL     1      34.075 -24.683 -16.065  0.00  0.00    +0.152 HD
BRANCH  21  25
ATOM     23  I   UNL     1      27.723 -22.494 -15.489  0.00  0.00    -0.042 I 
ATOM     24 CL   UNL     1      32.610 -24.846 -13.761  0.00  0.00    -0.081 Cl
ATOM     25  C   UNL     1      32.441 -23.504 -16.131  0.00  0.00    +0.059 C 
ATOM     26  C   UNL     1      31.786 -23.943 -14.980  0.00  0.00    +0.071 C 
ATOM     27  C   UNL     1      31.746 -22.777 -17.096  0.00  0.00    +0.016 C 
ATOM     28  C   UNL     1      30.433 -23.654 -14.796  0.00  0.00    +0.018 C 
ATOM     29  C   UNL     1      30.394 -22.488 -16.913  0.00  0.00    +0.007 C 
ATOM     30  C   UNL     1      29.738 -22.926 -15.763  0.00  0.00    +0.031 C 
ENDBRANCH  21  25
ENDBRANCH   3  21
TORSDOF 9
ENDMDL
MODEL 7
REMARK VINA RESULT:      -8.4     11.809     15.066
REMARK  Name = 25163987
REMARK  9 active torsions:
REMARK  status: ('A' for Active; 'I' for Inactive)
REMARK    1  A    between atoms: C_3  and  N_21
REMARK    2  A    between atoms: C_4  and  C_11
REMARK    3  A    between atoms: N_10  and  O_13
REMARK    4  A    between atoms: O_13  and  C_14
REMARK    5  A    between atoms: C_14  and  C_15
REMARK    6  A    between atoms: C_15  and  O_16
REMARK    7  A    between atoms: C_15  and  C_18
REMARK    8  A    between atoms: C_18  and  O_19
REMARK    9  A    between atoms: N_21  and  C_25
REMARK                            x       y       z     vdW  Elec       q    Type
REMARK                         _______ _______ _______ _____ _____    ______ ____
ROOT
ATOM      1  F   UNL     1      31.447  -8.846 -21.300  0.00  0.00    -0.200 F 
ATOM      2  F   UNL     1      30.798 -10.554 -19.279  0.00  0.00    -0.202 F 
ATOM      3  C   UNL     1      32.328 -10.644 -22.579  0.00  0.00    +0.083 C 
ATOM      4  C   UNL     1      32.605 -12.007 -22.696  0.00  0.00    +0.071 C 
ATOM      5  C   UNL     1      31.719 -10.153 -21.425  0.00  0.00    +0.181 C 
ATOM      6  C   UNL     1      32.271 -12.878 -21.659  0.00  0.00    +0.008 C 
ATOM      7  C   UNL     1      31.384 -11.025 -20.387  0.00  0.00    +0.169 C 
ATOM      8  C   UNL     1      31.660 -12.387 -20.505  0.00  0.00    +0.032 C 
ENDROOT
BRANCH   4  11
ATOM      9  O   UNL     1      34.157 -11.935 -24.457  0.00  0.00    -0.268 OA
ATOM     10  N   UNL     1      32.787 -13.785 -24.332  0.00  0.00    -0.190 N 
ATOM     11  C   UNL     1      33.254 -12.563 -23.912  0.00  0.00    +0.269 C 
ATOM     12  H   UNL     1      32.068 -14.268 -23.864  0.00  0.00    +0.183 HD
BRANCH  10  13
ATOM     13  O   UNL     1      33.415 -14.294 -25.485  0.00  0.00    -0.263 OA
BRANCH  13  14
ATOM     14  C   UNL     1      33.257 -15.710 -25.492  0.00  0.00    +0.203 C 
BRANCH  14  15
ATOM     15  C   UNL     1      34.594 -16.379 -25.195  0.00  0.00    +0.172 C 
BRANCH  15  16
ATOM     16  O   UNL     1      34.609 -17.667 -25.815  0.00  0.00    -0.379 OA
ATOM     17  H   UNL     1      34.855 -18.339 -25.160  0.00  0.00    +0.211 HD
ENDBRANCH  15  16
BRANCH  15  18
ATOM     18  C   UNL     1      34.796 -16.578 -23.698  0.00  0.00    +0.169 C 
BRANCH  18  19
ATOM     19  O   UNL     1      35.099 -15.321 -23.102  0.00  0.00    -0.379 OA
ATOM     20  H   UNL     1      34.420 -15.104 -22.443  0.00  0.00    +0.211 HD
ENDBRANCH  18  19
ENDBRANCH  15  18
ENDBRANCH  14  15
ENDBRANCH  13  14
ENDBRANCH  10  13
ENDBRANCH   4  11
BRANCH   3  21
ATOM     21  N   UNL     1      32.659  -9.748 -23.619  0.00  0.00    -0.310 N 
ATOM     22  H   UNL     1      33.196 -10.154 -24.337  0.00  0.00    +0.152 HD
BRANCH  21  25
ATOM     23  I   UNL     1      31.271  -3.704 -24.574  0.00  0.00    -0.042 I 
ATOM     24 CL   UNL     1      35.014  -7.834 -23.420  0.00  0.00    -0.081 Cl
ATOM     25  C   UNL     1      32.373  -8.386 -23.828  0.00  0.00    +0.059 C 
ATOM     26  C   UNL     1      33.373  -7.416 -23.763  0.00  0.00    +0.071 C 
ATOM     27  C   UNL     1      31.058  -8.014 -24.107  0.00  0.00    +0.016 C 
ATOM     28  C   UNL     1      33.058  -6.074 -23.976  0.00  0.00    +0.018 C 
ATOM     29  C   UNL     1      30.742  -6.673 -24.320  0.00  0.00    +0.007 C 
ATOM     30  C   UNL     1      31.742  -5.703 -24.255  0.00  0.00    +0.031 C 
ENDBRANCH  21  25
ENDBRANCH   3  21
TORSDOF 9
ENDMDL
MODEL 8
REMARK VINA RESULT:      -8.3     11.529     14.408
REMARK  Name = 25163987
REMARK  9 active torsions:
REMARK  status: ('A' for Active; 'I' for Inactive)
REMARK    1  A    between atoms: C_3  and  N_21
REMARK    2  A    between atoms: C_4  and  C_11
REMARK    3  A    between atoms: N_10  and  O_13
REMARK    4  A    between atoms: O_13  and  C_14
REMARK    5  A    between atoms: C_14  and  C_15
REMARK    6  A    between atoms: C_15  and  O_16
REMARK    7  A    between atoms: C_15  and  C_18
REMARK    8  A    between atoms: C_18  and  O_19
REMARK    9  A    between atoms: N_21  and  C_25
REMARK                            x       y       z     vdW  Elec       q    Type
REMARK                         _______ _______ _______ _____ _____    ______ ____
ROOT
ATOM      1  F   UNL     1      34.791 -12.417 -26.526  0.00  0.00    -0.200 F 
ATOM      2  F   UNL     1      36.021 -10.013 -26.889  0.00  0.00    -0.202 F 
ATOM      3  C   UNL     1      33.691 -11.597 -24.585  0.00  0.00    +0.083 C 
ATOM      4  C   UNL     1      33.457 -10.547 -23.696  0.00  0.00    +0.071 C 
ATOM      5  C   UNL     1      34.557 -11.416 -25.663  0.00  0.00    +0.181 C 
ATOM      6  C   UNL     1      34.089  -9.318 -23.885  0.00  0.00    +0.008 C 
ATOM      7  C   UNL     1      35.189 -10.186 -25.854  0.00  0.00    +0.169 C 
ATOM      8  C   UNL     1      34.954  -9.138 -24.965  0.00  0.00    +0.032 C 
ENDROOT
BRANCH   4  11
ATOM      9  O   UNL     1      31.997 -11.789 -22.339  0.00  0.00    -0.268 OA
ATOM     10  N   UNL     1      32.383  -9.595 -21.743  0.00  0.00    -0.190 N 
ATOM     11  C   UNL     1      32.541 -10.705 -22.537  0.00  0.00    +0.269 C 
ATOM     12  H   UNL     1      32.845  -8.744 -21.925  0.00  0.00    +0.183 HD
BRANCH  10  13
ATOM     13  O   UNL     1      31.511  -9.765 -20.652  0.00  0.00    -0.263 OA
BRANCH  13  14
ATOM     14  C   UNL     1      31.691  -8.669 -19.760  0.00  0.00    +0.203 C 
BRANCH  14  15
ATOM     15  C   UNL     1      32.558  -7.603 -20.420  0.00  0.00    +0.172 C 
BRANCH  15  16
ATOM     16  O   UNL     1      33.385  -7.002 -19.422  0.00  0.00    -0.379 OA
ATOM     17  H   UNL     1      34.242  -6.767 -19.810  0.00  0.00    +0.211 HD
ENDBRANCH  15  16
BRANCH  15  18
ATOM     18  C   UNL     1      31.708  -6.506 -21.048  0.00  0.00    +0.169 C 
BRANCH  18  19
ATOM     19  O   UNL     1      31.125  -7.002 -22.248  0.00  0.00    -0.379 OA
ATOM     20  H   UNL     1      30.278  -6.557 -22.405  0.00  0.00    +0.211 HD
ENDBRANCH  18  19
ENDBRANCH  15  18
ENDBRANCH  14  15
ENDBRANCH  13  14
ENDBRANCH  10  13
ENDBRANCH   4  11
BRANCH   3  21
ATOM     21  N   UNL     1      33.061 -12.848 -24.409  0.00  0.00    -0.310 N 
ATOM     22  H   UNL     1      32.079 -12.810 -24.473  0.00  0.00    +0.152 HD
BRANCH  21  25
ATOM     23  I   UNL     1      35.330 -18.570 -23.192  0.00  0.00    -0.042 I 
ATOM     24 CL   UNL     1      32.768 -14.862 -26.668  0.00  0.00    -0.081 Cl
ATOM     25  C   UNL     1      33.562 -14.139 -24.159  0.00  0.00    +0.059 C 
ATOM     26  C   UNL     1      33.484 -15.145 -25.122  0.00  0.00    +0.071 C 
ATOM     27  C   UNL     1      34.146 -14.402 -22.921  0.00  0.00    +0.016 C 
ATOM     28  C   UNL     1      33.990 -16.416 -24.845  0.00  0.00    +0.018 C 
ATOM     29  C   UNL     1      34.652 -15.671 -22.643  0.00  0.00    +0.007 C 
ATOM     30  C   UNL     1      34.574 -16.678 -23.605  0.00  0.00    +0.031 C 
ENDBRANCH  21  25
ENDBRANCH   3  21
TORSDOF 9
ENDMDL
MODEL 9
REMARK VINA RESULT:      -8.3      4.370      6.684
REMARK  Name = 25163987
REMARK  9 active torsions:
REMARK  status: ('A' for Active; 'I' for Inactive)
REMARK    1  A    between atoms: C_3  and  N_21
REMARK    2  A    between atoms: C_4  and  C_11
REMARK    3  A    between atoms: N_10  and  O_13
REMARK    4  A    between atoms: O_13  and  C_14
REMARK    5  A    between atoms: C_14  and  C_15
REMARK    6  A    between atoms: C_15  and  O_16
REMARK    7  A    between atoms: C_15  and  C_18
REMARK    8  A    between atoms: C_18  and  O_19
REMARK    9  A    between atoms: N_21  and  C_25
REMARK                            x       y       z     vdW  Elec       q    Type
REMARK                         _______ _______ _______ _____ _____    ______ ____
ROOT
ATOM      1  F   UNL     1      38.850 -23.593 -15.905  0.00  0.00    -0.200 F 
ATOM      2  F   UNL     1      40.126 -25.795 -14.932  0.00  0.00    -0.202 F 
ATOM      3  C   UNL     1      37.017 -23.970 -14.442  0.00  0.00    +0.083 C 
ATOM      4  C   UNL     1      36.422 -24.741 -13.443  0.00  0.00    +0.071 C 
ATOM      5  C   UNL     1      38.268 -24.326 -14.945  0.00  0.00    +0.181 C 
ATOM      6  C   UNL     1      37.078 -25.868 -12.947  0.00  0.00    +0.008 C 
ATOM      7  C   UNL     1      38.925 -25.453 -14.449  0.00  0.00    +0.169 C 
ATOM      8  C   UNL     1      38.330 -26.223 -13.450  0.00  0.00    +0.032 C 
ENDROOT
BRANCH   4  11
ATOM      9  O   UNL     1      35.016 -23.600 -11.947  0.00  0.00    -0.268 OA
ATOM     10  N   UNL     1      34.011 -24.984 -13.493  0.00  0.00    -0.190 N 
ATOM     11  C   UNL     1      35.090 -24.390 -12.884  0.00  0.00    +0.269 C 
ATOM     12  H   UNL     1      34.106 -25.605 -14.251  0.00  0.00    +0.183 HD
BRANCH  10  13
ATOM     13  O   UNL     1      32.759 -24.639 -12.949  0.00  0.00    -0.263 OA
BRANCH  13  14
ATOM     14  C   UNL     1      31.743 -25.143 -13.810  0.00  0.00    +0.203 C 
BRANCH  14  15
ATOM     15  C   UNL     1      30.476 -24.309 -13.656  0.00  0.00    +0.172 C 
BRANCH  15  16
ATOM     16  O   UNL     1      29.375 -25.045 -14.196  0.00  0.00    -0.379 OA
ATOM     17  H   UNL     1      29.609 -25.376 -15.077  0.00  0.00    +0.211 HD
ENDBRANCH  15  16
BRANCH  15  18
ATOM     18  C   UNL     1      30.579 -22.994 -14.418  0.00  0.00    +0.169 C 
BRANCH  18  19
ATOM     19  O   UNL     1      31.851 -22.409 -14.159  0.00  0.00    -0.379 OA
ATOM     20  H   UNL     1      32.492 -22.723 -14.817  0.00  0.00    +0.211 HD
ENDBRANCH  18  19
ENDBRANCH  15  18
ENDBRANCH  14  15
ENDBRANCH  13  14
ENDBRANCH  10  13
ENDBRANCH   4  11
BRANCH   3  21
ATOM     21  N   UNL     1      36.367 -22.826 -14.955  0.00  0.00    -0.310 N 
ATOM     22  H   UNL     1      35.956 -22.259 -14.264  0.00  0.00    +0.152 HD
BRANCH  21  25
ATOM     23  I   UNL     1      35.680 -20.589 -20.777  0.00  0.00    -0.042 I 
ATOM     24 CL   UNL     1      33.877 -23.776 -16.419  0.00  0.00    -0.081 Cl
ATOM     25  C   UNL     1      36.191 -22.338 -16.264  0.00  0.00    +0.059 C 
ATOM     26  C   UNL     1      35.085 -22.705 -17.031  0.00  0.00    +0.071 C 
ATOM     27  C   UNL     1      37.149 -21.471 -16.789  0.00  0.00    +0.016 C 
ATOM     28  C   UNL     1      34.939 -22.204 -18.325  0.00  0.00    +0.018 C 
ATOM     29  C   UNL     1      37.003 -20.971 -18.082  0.00  0.00    +0.007 C 
ATOM     30  C   UNL     1      35.898 -21.337 -18.850  0.00  0.00    +0.031 C 
ENDBRANCH  21  25
ENDBRANCH   3  21
TORSDOF 9
ENDMDL
