MODEL 1
REMARK VINA RESULT:      -6.8      0.000      0.000
REMARK  Name = 5287488
REMARK  6 active torsions:
REMARK  status: ('A' for Active; 'I' for Inactive)
REMARK    1  A    between atoms: C_1  and  O_11
REMARK    2  A    between atoms: C_2  and  O_7
REMARK    3  A    between atoms: C_3  and  C_10
REMARK    4  A    between atoms: O_11  and  P_12
REMARK    5  A    between atoms: P_12  and  O_14
REMARK    6  A    between atoms: P_12  and  O_16
REMARK                            x       y       z     vdW  Elec       q    Type
REMARK                         _______ _______ _______ _____ _____    ______ ____
ROOT
ATOM      1  C   UNL     1      36.518 -23.972 -14.070  0.00  0.00    +0.186 C 
ATOM      2  C   UNL     1      36.057 -23.498 -15.298  0.00  0.00    +0.173 C 
ATOM      3  C   UNL     1      35.609 -24.315 -13.068  0.00  0.00    +0.080 C 
ATOM      4  C   UNL     1      34.687 -23.368 -15.525  0.00  0.00    +0.040 C 
ATOM      5  C   UNL     1      34.239 -24.185 -13.296  0.00  0.00    +0.007 C 
ATOM      6  C   UNL     1      33.778 -23.711 -14.523  0.00  0.00    +0.003 C 
ENDROOT
BRANCH   2   7
ATOM      7  O   UNL     1      36.933 -23.158 -16.284  0.00  0.00    -0.468 OA
ATOM      8  C   UNL     1      37.121 -21.766 -16.532  0.00  0.00    +0.253 C 
ENDBRANCH   2   7
BRANCH   3  10
ATOM      9  O   UNL     1      35.304 -25.077 -10.849  0.00  0.00    -0.283 OA
ATOM     10  C   UNL     1      36.069 -24.812 -11.779  0.00  0.00    +0.237 C 
ENDBRANCH   3  10
BRANCH   1  11
ATOM     11  O   UNL     1      37.860 -24.094 -13.854  0.00  0.00    -0.400 OA
BRANCH  11  12
ATOM     12  P   UNL     1      38.801 -25.249 -14.484  0.00  0.00    +0.528 P 
ATOM     13  O   UNL     1      39.610 -26.031 -13.491  0.00  0.00    -0.216 OA
BRANCH  12  14
ATOM     14  O   UNL     1      37.797 -26.116 -15.409  0.00  0.00    -0.293 OA
ATOM     15  H   UNL     1      38.301 -26.551 -16.115  0.00  0.00    +0.223 HD
ENDBRANCH  12  14
BRANCH  12  16
ATOM     16  O   UNL     1      39.681 -24.434 -15.572  0.00  0.00    -0.293 OA
ATOM     17  H   UNL     1      39.530 -23.483 -15.462  0.00  0.00    +0.223 HD
ENDBRANCH  12  16
ENDBRANCH  11  12
ENDBRANCH   1  11
TORSDOF 6
ENDMDL
MODEL 2
REMARK VINA RESULT:      -6.7      9.839     12.286
REMARK  Name = 5287488
REMARK  6 active torsions:
REMARK  status: ('A' for Active; 'I' for Inactive)
REMARK    1  A    between atoms: C_1  and  O_11
REMARK    2  A    between atoms: C_2  and  O_7
REMARK    3  A    between atoms: C_3  and  C_10
REMARK    4  A    between atoms: O_11  and  P_12
REMARK    5  A    between atoms: P_12  and  O_14
REMARK    6  A    between atoms: P_12  and  O_16
REMARK                            x       y       z     vdW  Elec       q    Type
REMARK                         _______ _______ _______ _____ _____    ______ ____
ROOT
ATOM      1  C   UNL     1      34.982 -16.769 -23.357  0.00  0.00    +0.186 C 
ATOM      2  C   UNL     1      34.288 -16.553 -24.547  0.00  0.00    +0.173 C 
ATOM      3  C   UNL     1      35.371 -18.060 -23.000  0.00  0.00    +0.080 C 
ATOM      4  C   UNL     1      33.983 -17.629 -25.381  0.00  0.00    +0.040 C 
ATOM      5  C   UNL     1      35.066 -19.136 -23.834  0.00  0.00    +0.007 C 
ATOM      6  C   UNL     1      34.371 -18.920 -25.023  0.00  0.00    +0.003 C 
ENDROOT
BRANCH   2   7
ATOM      7  O   UNL     1      33.901 -15.298 -24.907  0.00  0.00    -0.468 OA
ATOM      8  C   UNL     1      33.148 -15.172 -26.111  0.00  0.00    +0.253 C 
ENDBRANCH   2   7
BRANCH   3  10
ATOM      9  O   UNL     1      35.539 -18.449 -20.672  0.00  0.00    -0.283 OA
ATOM     10  C   UNL     1      36.097 -18.308 -21.762  0.00  0.00    +0.237 C 
ENDBRANCH   3  10
BRANCH   1  11
ATOM     11  O   UNL     1      35.276 -15.712 -22.545  0.00  0.00    -0.400 OA
BRANCH  11  12
ATOM     12  P   UNL     1      34.297 -15.118 -21.402  0.00  0.00    +0.528 P 
ATOM     13  O   UNL     1      34.982 -14.650 -20.151  0.00  0.00    -0.216 OA
BRANCH  12  14
ATOM     14  O   UNL     1      33.414 -14.006 -22.176  0.00  0.00    -0.293 OA
ATOM     15  H   UNL     1      32.515 -14.344 -22.312  0.00  0.00    +0.223 HD
ENDBRANCH  12  14
BRANCH  12  16
ATOM     16  O   UNL     1      33.242 -16.325 -21.176  0.00  0.00    -0.293 OA
ATOM     17  H   UNL     1      32.883 -16.604 -22.033  0.00  0.00    +0.223 HD
ENDBRANCH  12  16
ENDBRANCH  11  12
ENDBRANCH   1  11
TORSDOF 6
ENDMDL
MODEL 3
REMARK VINA RESULT:      -6.7      9.850     12.671
REMARK  Name = 5287488
REMARK  6 active torsions:
REMARK  status: ('A' for Active; 'I' for Inactive)
REMARK    1  A    between atoms: C_1  and  O_11
REMARK    2  A    between atoms: C_2  and  O_7
REMARK    3  A    between atoms: C_3  and  C_10
REMARK    4  A    between atoms: O_11  and  P_12
REMARK    5  A    between atoms: P_12  and  O_14
REMARK    6  A    between atoms: P_12  and  O_16
REMARK                            x       y       z     vdW  Elec       q    Type
REMARK                         _______ _______ _______ _____ _____    ______ ____
ROOT
ATOM      1  C   UNL     1      34.824 -16.664 -23.380  0.00  0.00    +0.186 C 
ATOM      2  C   UNL     1      35.258 -17.827 -22.743  0.00  0.00    +0.173 C 
ATOM      3  C   UNL     1      34.283 -16.732 -24.664  0.00  0.00    +0.080 C 
ATOM      4  C   UNL     1      35.148 -19.058 -23.389  0.00  0.00    +0.040 C 
ATOM      5  C   UNL     1      34.173 -17.964 -25.310  0.00  0.00    +0.007 C 
ATOM      6  C   UNL     1      34.607 -19.126 -24.673  0.00  0.00    +0.003 C 
ENDROOT
BRANCH   2   7
ATOM      7  O   UNL     1      35.790 -17.775 -21.490  0.00  0.00    -0.468 OA
ATOM      8  C   UNL     1      36.326 -18.986 -20.963  0.00  0.00    +0.253 C 
ENDBRANCH   2   7
BRANCH   3  10
ATOM      9  O   UNL     1      33.531 -15.509 -26.544  0.00  0.00    -0.283 OA
ATOM     10  C   UNL     1      33.824 -15.531 -25.347  0.00  0.00    +0.237 C 
ENDBRANCH   3  10
BRANCH   1  11
ATOM     11  O   UNL     1      34.936 -15.463 -22.742  0.00  0.00    -0.400 OA
BRANCH  11  12
ATOM     12  P   UNL     1      33.973 -14.952 -21.548  0.00  0.00    +0.528 P 
ATOM     13  O   UNL     1      33.250 -13.663 -21.813  0.00  0.00    -0.216 OA
BRANCH  12  14
ATOM     14  O   UNL     1      33.034 -16.228 -21.223  0.00  0.00    -0.293 OA
ATOM     15  H   UNL     1      33.404 -16.719 -20.472  0.00  0.00    +0.223 HD
ENDBRANCH  12  14
BRANCH  12  16
ATOM     16  O   UNL     1      34.976 -14.907 -20.277  0.00  0.00    -0.293 OA
ATOM     17  H   UNL     1      35.594 -14.167 -20.380  0.00  0.00    +0.223 HD
ENDBRANCH  12  16
ENDBRANCH  11  12
ENDBRANCH   1  11
TORSDOF 6
ENDMDL
MODEL 4
REMARK VINA RESULT:      -6.7      2.029      3.460
REMARK  Name = 5287488
REMARK  6 active torsions:
REMARK  status: ('A' for Active; 'I' for Inactive)
REMARK    1  A    between atoms: C_1  and  O_11
REMARK    2  A    between atoms: C_2  and  O_7
REMARK    3  A    between atoms: C_3  and  C_10
REMARK    4  A    between atoms: O_11  and  P_12
REMARK    5  A    between atoms: P_12  and  O_14
REMARK    6  A    between atoms: P_12  and  O_16
REMARK                            x       y       z     vdW  Elec       q    Type
REMARK                         _______ _______ _______ _____ _____    ______ ____
ROOT
ATOM      1  C   UNL     1      36.044 -24.201 -14.237  0.00  0.00    +0.186 C 
ATOM      2  C   UNL     1      37.237 -23.727 -14.782  0.00  0.00    +0.173 C 
ATOM      3  C   UNL     1      34.825 -23.866 -14.826  0.00  0.00    +0.080 C 
ATOM      4  C   UNL     1      37.211 -22.918 -15.918  0.00  0.00    +0.040 C 
ATOM      5  C   UNL     1      34.799 -23.057 -15.962  0.00  0.00    +0.007 C 
ATOM      6  C   UNL     1      35.991 -22.582 -16.508  0.00  0.00    +0.003 C 
ENDROOT
BRANCH   2   7
ATOM      7  O   UNL     1      38.434 -24.045 -14.216  0.00  0.00    -0.468 OA
ATOM      8  C   UNL     1      39.125 -25.171 -14.752  0.00  0.00    +0.253 C 
ENDBRANCH   2   7
BRANCH   3  10
ATOM      9  O   UNL     1      33.017 -23.832 -13.300  0.00  0.00    -0.283 OA
ATOM     10  C   UNL     1      33.568 -24.351 -14.274  0.00  0.00    +0.237 C 
ENDBRANCH   3  10
BRANCH   1  11
ATOM     11  O   UNL     1      36.078 -24.991 -13.125  0.00  0.00    -0.400 OA
BRANCH  11  12
ATOM     12  P   UNL     1      36.247 -24.454 -11.609  0.00  0.00    +0.528 P 
ATOM     13  O   UNL     1      35.309 -25.059 -10.604  0.00  0.00    -0.216 OA
BRANCH  12  14
ATOM     14  O   UNL     1      37.823 -24.640 -11.297  0.00  0.00    -0.293 OA
ATOM     15  H   UNL     1      38.254 -23.771 -11.276  0.00  0.00    +0.223 HD
ENDBRANCH  12  14
BRANCH  12  16
ATOM     16  O   UNL     1      36.099 -22.851 -11.781  0.00  0.00    -0.293 OA
ATOM     17  H   UNL     1      36.920 -22.489 -12.149  0.00  0.00    +0.223 HD
ENDBRANCH  12  16
ENDBRANCH  11  12
ENDBRANCH   1  11
TORSDOF 6
ENDMDL
MODEL 5
REMARK VINA RESULT:      -6.6      1.012      3.452
REMARK  Name = 5287488
REMARK  6 active torsions:
REMARK  status: ('A' for Active; 'I' for Inactive)
REMARK    1  A    between atoms: C_1  and  O_11
REMARK    2  A    between atoms: C_2  and  O_7
REMARK    3  A    between atoms: C_3  and  C_10
REMARK    4  A    between atoms: O_11  and  P_12
REMARK    5  A    between atoms: P_12  and  O_14
REMARK    6  A    between atoms: P_12  and  O_16
REMARK                            x       y       z     vdW  Elec       q    Type
REMARK                         _______ _______ _______ _____ _____    ______ ____
ROOT
ATOM      1  C   UNL     1      36.822 -23.791 -14.434  0.00  0.00    +0.186 C 
ATOM      2  C   UNL     1      35.820 -24.429 -13.703  0.00  0.00    +0.173 C 
ATOM      3  C   UNL     1      36.495 -23.065 -15.580  0.00  0.00    +0.080 C 
ATOM      4  C   UNL     1      34.491 -24.341 -14.117  0.00  0.00    +0.040 C 
ATOM      5  C   UNL     1      35.166 -22.977 -15.994  0.00  0.00    +0.007 C 
ATOM      6  C   UNL     1      34.165 -23.616 -15.263  0.00  0.00    +0.003 C 
ENDROOT
BRANCH   2   7
ATOM      7  O   UNL     1      36.125 -25.142 -12.583  0.00  0.00    -0.468 OA
ATOM      8  C   UNL     1      35.778 -24.559 -11.329  0.00  0.00    +0.253 C 
ENDBRANCH   2   7
BRANCH   3  10
ATOM      9  O   UNL     1      37.359 -21.286 -16.879  0.00  0.00    -0.283 OA
ATOM     10  C   UNL     1      37.525 -22.391 -16.358  0.00  0.00    +0.237 C 
ENDBRANCH   3  10
BRANCH   1  11
ATOM     11  O   UNL     1      38.120 -23.883 -14.023  0.00  0.00    -0.400 OA
BRANCH  11  12
ATOM     12  P   UNL     1      39.081 -25.162 -14.258  0.00  0.00    +0.528 P 
ATOM     13  O   UNL     1      40.529 -24.844 -14.493  0.00  0.00    -0.216 OA
BRANCH  12  14
ATOM     14  O   UNL     1      38.770 -26.127 -12.998  0.00  0.00    -0.293 OA
ATOM     15  H   UNL     1      37.947 -25.845 -12.569  0.00  0.00    +0.223 HD
ENDBRANCH  12  14
BRANCH  12  16
ATOM     16  O   UNL     1      38.357 -25.928 -15.488  0.00  0.00    -0.293 OA
ATOM     17  H   UNL     1      38.821 -25.723 -16.314  0.00  0.00    +0.223 HD
ENDBRANCH  12  16
ENDBRANCH  11  12
ENDBRANCH   1  11
TORSDOF 6
ENDMDL
MODEL 6
REMARK VINA RESULT:      -6.6     10.841     12.964
REMARK  Name = 5287488
REMARK  6 active torsions:
REMARK  status: ('A' for Active; 'I' for Inactive)
REMARK    1  A    between atoms: C_1  and  O_11
REMARK    2  A    between atoms: C_2  and  O_7
REMARK    3  A    between atoms: C_3  and  C_10
REMARK    4  A    between atoms: O_11  and  P_12
REMARK    5  A    between atoms: P_12  and  O_14
REMARK    6  A    between atoms: P_12  and  O_16
REMARK                            x       y       z     vdW  Elec       q    Type
REMARK                         _______ _______ _______ _____ _____    ______ ____
ROOT
ATOM      1  C   UNL     1      34.867 -16.462 -23.011  0.00  0.00    +0.186 C 
ATOM      2  C   UNL     1      34.919 -16.662 -21.632  0.00  0.00    +0.173 C 
ATOM      3  C   UNL     1      34.782 -17.557 -23.872  0.00  0.00    +0.080 C 
ATOM      4  C   UNL     1      34.884 -17.956 -21.113  0.00  0.00    +0.040 C 
ATOM      5  C   UNL     1      34.747 -18.851 -23.353  0.00  0.00    +0.007 C 
ATOM      6  C   UNL     1      34.798 -19.051 -21.973  0.00  0.00    +0.003 C 
ENDROOT
BRANCH   2   7
ATOM      7  O   UNL     1      35.004 -15.602 -20.780  0.00  0.00    -0.468 OA
ATOM      8  C   UNL     1      33.802 -15.195 -20.130  0.00  0.00    +0.253 C 
ENDBRANCH   2   7
BRANCH   3  10
ATOM      9  O   UNL     1      33.672 -17.214 -25.933  0.00  0.00    -0.283 OA
ATOM     10  C   UNL     1      34.727 -17.371 -25.315  0.00  0.00    +0.237 C 
ENDBRANCH   3  10
BRANCH   1  11
ATOM     11  O   UNL     1      34.904 -15.193 -23.511  0.00  0.00    -0.400 OA
BRANCH  11  12
ATOM     12  P   UNL     1      33.613 -14.248 -23.742  0.00  0.00    +0.528 P 
ATOM     13  O   UNL     1      32.404 -14.600 -22.924  0.00  0.00    -0.216 OA
BRANCH  12  14
ATOM     14  O   UNL     1      34.180 -12.747 -23.543  0.00  0.00    -0.293 OA
ATOM     15  H   UNL     1      35.117 -12.719 -23.793  0.00  0.00    +0.223 HD
ENDBRANCH  12  14
BRANCH  12  16
ATOM     16  O   UNL     1      33.387 -14.340 -25.343  0.00  0.00    -0.293 OA
ATOM     17  H   UNL     1      32.513 -13.984 -25.567  0.00  0.00    +0.223 HD
ENDBRANCH  12  16
ENDBRANCH  11  12
ENDBRANCH   1  11
TORSDOF 6
ENDMDL
MODEL 7
REMARK VINA RESULT:      -6.5      1.998      3.997
REMARK  Name = 5287488
REMARK  6 active torsions:
REMARK  status: ('A' for Active; 'I' for Inactive)
REMARK    1  A    between atoms: C_1  and  O_11
REMARK    2  A    between atoms: C_2  and  O_7
REMARK    3  A    between atoms: C_3  and  C_10
REMARK    4  A    between atoms: O_11  and  P_12
REMARK    5  A    between atoms: P_12  and  O_14
REMARK    6  A    between atoms: P_12  and  O_16
REMARK                            x       y       z     vdW  Elec       q    Type
REMARK                         _______ _______ _______ _____ _____    ______ ____
ROOT
ATOM      1  C   UNL     1      35.218 -24.422 -13.877  0.00  0.00    +0.186 C 
ATOM      2  C   UNL     1      33.868 -24.113 -14.042  0.00  0.00    +0.173 C 
ATOM      3  C   UNL     1      36.136 -24.088 -14.873  0.00  0.00    +0.080 C 
ATOM      4  C   UNL     1      33.436 -23.469 -15.202  0.00  0.00    +0.040 C 
ATOM      5  C   UNL     1      35.704 -23.445 -16.033  0.00  0.00    +0.007 C 
ATOM      6  C   UNL     1      34.354 -23.136 -16.197  0.00  0.00    +0.003 C 
ENDROOT
BRANCH   2   7
ATOM      7  O   UNL     1      32.960 -24.434 -13.078  0.00  0.00    -0.468 OA
ATOM      8  C   UNL     1      31.728 -25.004 -13.512  0.00  0.00    +0.253 C 
ENDBRANCH   2   7
BRANCH   3  10
ATOM      9  O   UNL     1      38.329 -23.699 -14.074  0.00  0.00    -0.283 OA
ATOM     10  C   UNL     1      37.550 -24.401 -14.723  0.00  0.00    +0.237 C 
ENDBRANCH   3  10
BRANCH   1  11
ATOM     11  O   UNL     1      35.633 -25.053 -12.741  0.00  0.00    -0.400 OA
BRANCH  11  12
ATOM     12  P   UNL     1      36.156 -24.309 -11.403  0.00  0.00    +0.528 P 
ATOM     13  O   UNL     1      35.313 -24.522 -10.179  0.00  0.00    -0.216 OA
BRANCH  12  14
ATOM     14  O   UNL     1      37.703 -24.763 -11.277  0.00  0.00    -0.293 OA
ATOM     15  H   UNL     1      37.771 -25.515 -10.668  0.00  0.00    +0.223 HD
ENDBRANCH  12  14
BRANCH  12  16
ATOM     16  O   UNL     1      36.269 -22.765 -11.877  0.00  0.00    -0.293 OA
ATOM     17  H   UNL     1      36.436 -22.202 -11.105  0.00  0.00    +0.223 HD
ENDBRANCH  12  16
ENDBRANCH  11  12
ENDBRANCH   1  11
TORSDOF 6
ENDMDL
MODEL 8
REMARK VINA RESULT:      -6.4     11.418     13.349
REMARK  Name = 5287488
REMARK  6 active torsions:
REMARK  status: ('A' for Active; 'I' for Inactive)
REMARK    1  A    between atoms: C_1  and  O_11
REMARK    2  A    between atoms: C_2  and  O_7
REMARK    3  A    between atoms: C_3  and  C_10
REMARK    4  A    between atoms: O_11  and  P_12
REMARK    5  A    between atoms: P_12  and  O_14
REMARK    6  A    between atoms: P_12  and  O_16
REMARK                            x       y       z     vdW  Elec       q    Type
REMARK                         _______ _______ _______ _____ _____    ______ ____
ROOT
ATOM      1  C   UNL     1      34.400 -15.412 -23.773  0.00  0.00    +0.186 C 
ATOM      2  C   UNL     1      33.775 -14.208 -24.096  0.00  0.00    +0.173 C 
ATOM      3  C   UNL     1      34.320 -16.497 -24.645  0.00  0.00    +0.080 C 
ATOM      4  C   UNL     1      33.070 -14.089 -25.294  0.00  0.00    +0.040 C 
ATOM      5  C   UNL     1      33.615 -16.378 -25.843  0.00  0.00    +0.007 C 
ATOM      6  C   UNL     1      32.990 -15.174 -26.167  0.00  0.00    +0.003 C 
ENDROOT
BRANCH   2   7
ATOM      7  O   UNL     1      33.844 -13.141 -23.252  0.00  0.00    -0.468 OA
ATOM      8  C   UNL     1      33.643 -11.850 -23.822  0.00  0.00    +0.253 C 
ENDBRANCH   2   7
BRANCH   3  10
ATOM      9  O   UNL     1      34.507 -18.856 -24.670  0.00  0.00    -0.283 OA
ATOM     10  C   UNL     1      34.965 -17.763 -24.327  0.00  0.00    +0.237 C 
ENDBRANCH   3  10
BRANCH   1  11
ATOM     11  O   UNL     1      35.087 -15.522 -22.598  0.00  0.00    -0.400 OA
BRANCH  11  12
ATOM     12  P   UNL     1      34.431 -15.911 -21.172  0.00  0.00    +0.528 P 
ATOM     13  O   UNL     1      32.936 -16.048 -21.168  0.00  0.00    -0.216 OA
BRANCH  12  14
ATOM     14  O   UNL     1      35.256 -17.221 -20.702  0.00  0.00    -0.293 OA
ATOM     15  H   UNL     1      35.114 -17.939 -21.338  0.00  0.00    +0.223 HD
ENDBRANCH  12  14
BRANCH  12  16
ATOM     16  O   UNL     1      35.000 -14.754 -20.192  0.00  0.00    -0.293 OA
ATOM     17  H   UNL     1      35.347 -15.159 -19.382  0.00  0.00    +0.223 HD
ENDBRANCH  12  16
ENDBRANCH  11  12
ENDBRANCH   1  11
TORSDOF 6
ENDMDL
MODEL 9
REMARK VINA RESULT:      -6.4      2.153      3.874
REMARK  Name = 5287488
REMARK  6 active torsions:
REMARK  status: ('A' for Active; 'I' for Inactive)
REMARK    1  A    between atoms: C_1  and  O_11
REMARK    2  A    between atoms: C_2  and  O_7
REMARK    3  A    between atoms: C_3  and  C_10
REMARK    4  A    between atoms: O_11  and  P_12
REMARK    5  A    between atoms: P_12  and  O_14
REMARK    6  A    between atoms: P_12  and  O_16
REMARK                            x       y       z     vdW  Elec       q    Type
REMARK                         _______ _______ _______ _____ _____    ______ ____
ROOT
ATOM      1  C   UNL     1      36.310 -23.932 -14.566  0.00  0.00    +0.186 C 
ATOM      2  C   UNL     1      35.462 -23.077 -15.272  0.00  0.00    +0.173 C 
ATOM      3  C   UNL     1      37.667 -23.986 -14.883  0.00  0.00    +0.080 C 
ATOM      4  C   UNL     1      35.973 -22.276 -16.293  0.00  0.00    +0.040 C 
ATOM      5  C   UNL     1      38.177 -23.185 -15.905  0.00  0.00    +0.007 C 
ATOM      6  C   UNL     1      37.330 -22.330 -16.610  0.00  0.00    +0.003 C 
ENDROOT
BRANCH   2   7
ATOM      7  O   UNL     1      34.135 -23.015 -14.973  0.00  0.00    -0.468 OA
ATOM      8  C   UNL     1      33.224 -23.468 -15.973  0.00  0.00    +0.253 C 
ENDBRANCH   2   7
BRANCH   3  10
ATOM      9  O   UNL     1      39.141 -24.543 -13.118  0.00  0.00    -0.283 OA
ATOM     10  C   UNL     1      38.570 -24.871 -14.160  0.00  0.00    +0.237 C 
ENDBRANCH   3  10
BRANCH   1  11
ATOM     11  O   UNL     1      35.803 -24.714 -13.570  0.00  0.00    -0.400 OA
BRANCH  11  12
ATOM     12  P   UNL     1      35.598 -24.246 -12.035  0.00  0.00    +0.528 P 
ATOM     13  O   UNL     1      35.691 -25.341 -11.012  0.00  0.00    -0.216 OA
BRANCH  12  14
ATOM     14  O   UNL     1      36.640 -23.024 -11.851  0.00  0.00    -0.293 OA
ATOM     15  H   UNL     1      37.428 -23.186 -12.393  0.00  0.00    +0.223 HD
ENDBRANCH  12  14
BRANCH  12  16
ATOM     16  O   UNL     1      34.164 -23.495 -12.082  0.00  0.00    -0.293 OA
ATOM     17  H   UNL     1      33.901 -23.245 -11.183  0.00  0.00    +0.223 HD
ENDBRANCH  12  16
ENDBRANCH  11  12
ENDBRANCH   1  11
TORSDOF 6
ENDMDL
