MODEL 1
REMARK VINA RESULT:     -11.7      0.000      0.000
REMARK  Name = 3081361
REMARK  5 active torsions:
REMARK  status: ('A' for Active; 'I' for Inactive)
REMARK    1  A    between atoms: N_2  and  C_15
REMARK    2  A    between atoms: C_4  and  O_23
REMARK    3  A    between atoms: C_5  and  O_21
REMARK    4  A    between atoms: O_23  and  C_24
REMARK    5  A    between atoms: C_24  and  C_26
REMARK                            x       y       z     vdW  Elec       q    Type
REMARK                         _______ _______ _______ _____ _____    ______ ____
ROOT
ATOM      1  N   UNL     1      33.430 -15.072 -26.447  0.00  0.00    -0.248 NA
ATOM      2  N   UNL     1      34.045 -12.008 -23.735  0.00  0.00    -0.296 N 
ATOM      3  N   UNL     1      33.409 -12.730 -25.882  0.00  0.00    -0.230 NA
ATOM      4  C   UNL     1      34.538 -17.023 -23.561  0.00  0.00    +0.156 C 
ATOM      5  C   UNL     1      34.759 -16.036 -22.615  0.00  0.00    +0.169 C 
ATOM      6  C   UNL     1      34.093 -16.698 -24.841  0.00  0.00    +0.112 C 
ATOM      7  C   UNL     1      33.859 -15.376 -25.208  0.00  0.00    +0.066 C 
ATOM      8  C   UNL     1      34.085 -14.378 -24.247  0.00  0.00    +0.048 C 
ATOM      9  C   UNL     1      34.533 -14.706 -22.956  0.00  0.00    +0.044 C 
ATOM     10  C   UNL     1      33.839 -13.068 -24.651  0.00  0.00    +0.131 C 
ATOM     11  C   UNL     1      33.228 -13.766 -26.716  0.00  0.00    +0.252 C 
ATOM     12  H   UNL     1      34.752 -12.186 -23.073  0.00  0.00    +0.154 HD
ENDROOT
BRANCH   2  15
ATOM     13 BR   UNL     1      31.392  -6.563 -23.094  0.00  0.00    -0.049 Br
ATOM     14  F   UNL     1      35.332  -9.668 -24.521  0.00  0.00    -0.203 F 
ATOM     15  C   UNL     1      33.435 -10.751 -23.587  0.00  0.00    +0.077 C 
ATOM     16  C   UNL     1      34.103  -9.591 -23.990  0.00  0.00    +0.154 C 
ATOM     17  C   UNL     1      32.154 -10.654 -23.037  0.00  0.00    +0.017 C 
ATOM     18  C   UNL     1      33.494  -8.344 -23.843  0.00  0.00    +0.038 C 
ATOM     19  C   UNL     1      31.546  -9.407 -22.890  0.00  0.00    +0.008 C 
ATOM     20  C   UNL     1      32.216  -8.252 -23.293  0.00  0.00    +0.037 C 
ENDBRANCH   2  15
BRANCH   5  21
ATOM     21  O   UNL     1      35.195 -16.347 -21.364  0.00  0.00    -0.469 OA
ATOM     22  C   UNL     1      34.573 -15.670 -20.273  0.00  0.00    +0.253 C 
ENDBRANCH   5  21
BRANCH   4  23
ATOM     23  O   UNL     1      34.755 -18.342 -23.247  0.00  0.00    -0.476 OA
BRANCH  23  24
ATOM     24  C   UNL     1      33.906 -18.917 -22.272  0.00  0.00    +0.205 C 
BRANCH  24  26
ATOM     25  N   UNL     1      35.932 -20.874 -18.996  0.00  0.00    +0.386 N 
ATOM     26  C   UNL     1      34.699 -19.966 -21.497  0.00  0.00    +0.040 C 
ATOM     27  C   UNL     1      33.878 -20.528 -20.330  0.00  0.00    -0.019 C 
ATOM     28  C   UNL     1      36.015 -19.385 -20.970  0.00  0.00    -0.019 C 
ATOM     29  C   UNL     1      34.701 -21.506 -19.490  0.00  0.00    -0.077 C 
ATOM     30  C   UNL     1      36.767 -20.400 -20.108  0.00  0.00    -0.077 C 
ATOM     31  C   UNL     1      36.681 -21.804 -18.152  0.00  0.00    -0.101 C 
ATOM     32  H   UNL     1      35.667 -20.065 -18.435  0.00  0.00    -0.080 HD
ENDBRANCH  24  26
ENDBRANCH  23  24
ENDBRANCH   4  23
TORSDOF 5
ENDMDL
MODEL 2
REMARK VINA RESULT:     -10.7      1.941      3.175
REMARK  Name = 3081361
REMARK  5 active torsions:
REMARK  status: ('A' for Active; 'I' for Inactive)
REMARK    1  A    between atoms: N_2  and  C_15
REMARK    2  A    between atoms: C_4  and  O_23
REMARK    3  A    between atoms: C_5  and  O_21
REMARK    4  A    between atoms: O_23  and  C_24
REMARK    5  A    between atoms: C_24  and  C_26
REMARK                            x       y       z     vdW  Elec       q    Type
REMARK                         _______ _______ _______ _____ _____    ______ ____
ROOT
ATOM      1  N   UNL     1      32.312 -13.365 -20.184  0.00  0.00    -0.248 NA
ATOM      2  N   UNL     1      31.926 -10.738 -23.358  0.00  0.00    -0.296 N 
ATOM      3  N   UNL     1      31.657 -11.223 -21.071  0.00  0.00    -0.230 NA
ATOM      4  C   UNL     1      33.659 -15.447 -22.869  0.00  0.00    +0.156 C 
ATOM      5  C   UNL     1      33.552 -14.608 -23.965  0.00  0.00    +0.169 C 
ATOM      6  C   UNL     1      33.244 -15.029 -21.606  0.00  0.00    +0.112 C 
ATOM      7  C   UNL     1      32.711 -13.759 -21.407  0.00  0.00    +0.066 C 
ATOM      8  C   UNL     1      32.603 -12.911 -22.521  0.00  0.00    +0.048 C 
ATOM      9  C   UNL     1      33.022 -13.333 -23.794  0.00  0.00    +0.044 C 
ATOM     10  C   UNL     1      32.065 -11.648 -22.282  0.00  0.00    +0.131 C 
ATOM     11  C   UNL     1      31.808 -12.118 -20.083  0.00  0.00    +0.252 C 
ATOM     12  H   UNL     1      31.776 -11.172 -24.229  0.00  0.00    +0.154 HD
ENDROOT
BRANCH   2  15
ATOM     13 BR   UNL     1      32.066  -4.656 -23.643  0.00  0.00    -0.049 Br
ATOM     14  F   UNL     1      34.322  -9.358 -23.674  0.00  0.00    -0.203 F 
ATOM     15  C   UNL     1      31.960  -9.335 -23.423  0.00  0.00    +0.077 C 
ATOM     16  C   UNL     1      33.178  -8.666 -23.583  0.00  0.00    +0.154 C 
ATOM     17  C   UNL     1      30.775  -8.600 -23.331  0.00  0.00    +0.017 C 
ATOM     18  C   UNL     1      33.209  -7.272 -23.648  0.00  0.00    +0.038 C 
ATOM     19  C   UNL     1      30.807  -7.207 -23.396  0.00  0.00    +0.008 C 
ATOM     20  C   UNL     1      32.024  -6.543 -23.555  0.00  0.00    +0.037 C 
ENDBRANCH   2  15
BRANCH   5  21
ATOM     21  O   UNL     1      33.955 -15.012 -25.201  0.00  0.00    -0.469 OA
ATOM     22  C   UNL     1      32.975 -15.005 -26.238  0.00  0.00    +0.253 C 
ENDBRANCH   5  21
BRANCH   4  23
ATOM     23  O   UNL     1      34.179 -16.710 -23.014  0.00  0.00    -0.476 OA
BRANCH  23  24
ATOM     24  C   UNL     1      35.225 -17.079 -22.135  0.00  0.00    +0.205 C 
BRANCH  24  26
ATOM     25  N   UNL     1      34.782 -20.655 -19.752  0.00  0.00    +0.386 N 
ATOM     26  C   UNL     1      35.062 -18.554 -21.778  0.00  0.00    +0.040 C 
ATOM     27  C   UNL     1      33.752 -18.795 -21.018  0.00  0.00    -0.019 C 
ATOM     28  C   UNL     1      36.244 -19.053 -20.942  0.00  0.00    -0.019 C 
ATOM     29  C   UNL     1      33.629 -20.253 -20.570  0.00  0.00    -0.077 C 
ATOM     30  C   UNL     1      36.039 -20.502 -20.496  0.00  0.00    -0.077 C 
ATOM     31  C   UNL     1      34.624 -22.033 -19.288  0.00  0.00    -0.101 C 
ATOM     32  H   UNL     1      34.821 -20.039 -18.939  0.00  0.00    -0.080 HD
ENDBRANCH  24  26
ENDBRANCH  23  24
ENDBRANCH   4  23
TORSDOF 5
ENDMDL
MODEL 3
REMARK VINA RESULT:     -10.7      1.713      2.807
REMARK  Name = 3081361
REMARK  5 active torsions:
REMARK  status: ('A' for Active; 'I' for Inactive)
REMARK    1  A    between atoms: N_2  and  C_15
REMARK    2  A    between atoms: C_4  and  O_23
REMARK    3  A    between atoms: C_5  and  O_21
REMARK    4  A    between atoms: O_23  and  C_24
REMARK    5  A    between atoms: C_24  and  C_26
REMARK                            x       y       z     vdW  Elec       q    Type
REMARK                         _______ _______ _______ _____ _____    ______ ____
ROOT
ATOM      1  N   UNL     1      32.787 -14.925 -20.065  0.00  0.00    -0.248 NA
ATOM      2  N   UNL     1      32.802 -12.348 -23.304  0.00  0.00    -0.296 N 
ATOM      3  N   UNL     1      32.215 -12.812 -21.073  0.00  0.00    -0.230 NA
ATOM      4  C   UNL     1      34.564 -17.002 -22.491  0.00  0.00    +0.156 C 
ATOM      5  C   UNL     1      34.597 -16.180 -23.604  0.00  0.00    +0.169 C 
ATOM      6  C   UNL     1      33.959 -16.580 -21.309  0.00  0.00    +0.112 C 
ATOM      7  C   UNL     1      33.370 -15.323 -21.211  0.00  0.00    +0.066 C 
ATOM      8  C   UNL     1      33.405 -14.492 -22.342  0.00  0.00    +0.048 C 
ATOM      9  C   UNL     1      34.015 -14.918 -23.534  0.00  0.00    +0.044 C 
ATOM     10  C   UNL     1      32.805 -13.242 -22.204  0.00  0.00    +0.131 C 
ATOM     11  C   UNL     1      32.242 -13.691 -20.059  0.00  0.00    +0.252 C 
ATOM     12  H   UNL     1      32.792 -12.797 -24.180  0.00  0.00    +0.154 HD
ENDROOT
BRANCH   2  15
ATOM     13 BR   UNL     1      32.826  -6.269 -23.658  0.00  0.00    -0.049 Br
ATOM     14  F   UNL     1      34.879 -10.979 -24.552  0.00  0.00    -0.203 F 
ATOM     15  C   UNL     1      32.810 -10.947 -23.385  0.00  0.00    +0.077 C 
ATOM     16  C   UNL     1      33.865 -10.283 -24.018  0.00  0.00    +0.154 C 
ATOM     17  C   UNL     1      31.759 -10.206 -22.836  0.00  0.00    +0.017 C 
ATOM     18  C   UNL     1      33.869  -8.889 -24.099  0.00  0.00    +0.038 C 
ATOM     19  C   UNL     1      31.765  -8.814 -22.916  0.00  0.00    +0.008 C 
ATOM     20  C   UNL     1      32.820  -8.156 -23.548  0.00  0.00    +0.037 C 
ENDBRANCH   2  15
BRANCH   5  21
ATOM     21  O   UNL     1      35.186 -16.587 -24.762  0.00  0.00    -0.469 OA
ATOM     22  C   UNL     1      34.491 -17.564 -25.536  0.00  0.00    +0.253 C 
ENDBRANCH   5  21
BRANCH   4  23
ATOM     23  O   UNL     1      35.131 -18.252 -22.539  0.00  0.00    -0.476 OA
BRANCH  23  24
ATOM     24  C   UNL     1      35.835 -18.682 -21.388  0.00  0.00    +0.205 C 
BRANCH  24  26
ATOM     25  N   UNL     1      34.169 -21.783 -18.884  0.00  0.00    +0.386 N 
ATOM     26  C   UNL     1      35.283 -20.040 -20.962  0.00  0.00    +0.040 C 
ATOM     27  C   UNL     1      33.835 -19.917 -20.473  0.00  0.00    -0.019 C 
ATOM     28  C   UNL     1      36.148 -20.666 -19.863  0.00  0.00    -0.019 C 
ATOM     29  C   UNL     1      33.308 -21.255 -19.951  0.00  0.00    -0.077 C 
ATOM     30  C   UNL     1      35.545 -21.979 -19.361  0.00  0.00    -0.077 C 
ATOM     31  C   UNL     1      33.624 -23.034 -18.359  0.00  0.00    -0.101 C 
ATOM     32  H   UNL     1      34.193 -21.096 -18.130  0.00  0.00    -0.080 HD
ENDBRANCH  24  26
ENDBRANCH  23  24
ENDBRANCH   4  23
TORSDOF 5
ENDMDL
MODEL 4
REMARK VINA RESULT:     -10.6      4.810     10.834
REMARK  Name = 3081361
REMARK  5 active torsions:
REMARK  status: ('A' for Active; 'I' for Inactive)
REMARK    1  A    between atoms: N_2  and  C_15
REMARK    2  A    between atoms: C_4  and  O_23
REMARK    3  A    between atoms: C_5  and  O_21
REMARK    4  A    between atoms: O_23  and  C_24
REMARK    5  A    between atoms: C_24  and  C_26
REMARK                            x       y       z     vdW  Elec       q    Type
REMARK                         _______ _______ _______ _____ _____    ______ ____
ROOT
ATOM      1  N   UNL     1      34.981  -9.231 -25.043  0.00  0.00    -0.248 NA
ATOM      2  N   UNL     1      33.191 -12.787 -23.915  0.00  0.00    -0.296 N 
ATOM      3  N   UNL     1      34.650 -11.600 -25.328  0.00  0.00    -0.230 NA
ATOM      4  C   UNL     1      32.950  -8.034 -22.249  0.00  0.00    +0.156 C 
ATOM      5  C   UNL     1      32.324  -9.196 -21.830  0.00  0.00    +0.169 C 
ATOM      6  C   UNL     1      33.838  -8.049 -23.322  0.00  0.00    +0.112 C 
ATOM      7  C   UNL     1      34.123  -9.228 -24.006  0.00  0.00    +0.066 C 
ATOM      8  C   UNL     1      33.485 -10.404 -23.579  0.00  0.00    +0.048 C 
ATOM      9  C   UNL     1      32.590 -10.388 -22.496  0.00  0.00    +0.044 C 
ATOM     10  C   UNL     1      33.796 -11.562 -24.288  0.00  0.00    +0.131 C 
ATOM     11  C   UNL     1      35.198 -10.417 -25.646  0.00  0.00    +0.252 C 
ATOM     12  H   UNL     1      32.294 -12.685 -23.523  0.00  0.00    +0.154 HD
ENDROOT
BRANCH   2  15
ATOM     13 BR   UNL     1      35.076 -18.568 -24.256  0.00  0.00    -0.049 Br
ATOM     14  F   UNL     1      32.774 -14.314 -26.204  0.00  0.00    -0.203 F 
ATOM     15  C   UNL     1      33.624 -14.121 -23.995  0.00  0.00    +0.077 C 
ATOM     16  C   UNL     1      33.402 -14.866 -25.157  0.00  0.00    +0.154 C 
ATOM     17  C   UNL     1      34.283 -14.711 -22.912  0.00  0.00    +0.017 C 
ATOM     18  C   UNL     1      33.835 -16.191 -25.234  0.00  0.00    +0.038 C 
ATOM     19  C   UNL     1      34.714 -16.035 -22.990  0.00  0.00    +0.008 C 
ATOM     20  C   UNL     1      34.490 -16.775 -24.151  0.00  0.00    +0.037 C 
ENDBRANCH   2  15
BRANCH   5  21
ATOM     21  O   UNL     1      31.455  -9.188 -20.783  0.00  0.00    -0.469 OA
ATOM     22  C   UNL     1      31.921  -9.730 -19.548  0.00  0.00    +0.253 C 
ENDBRANCH   5  21
BRANCH   4  23
ATOM     23  O   UNL     1      32.702  -6.846 -21.606  0.00  0.00    -0.476 OA
BRANCH  23  24
ATOM     24  C   UNL     1      31.456  -6.226 -21.862  0.00  0.00    +0.205 C 
BRANCH  24  26
ATOM     25  N   UNL     1      30.594  -3.198 -24.821  0.00  0.00    +0.386 N 
ATOM     26  C   UNL     1      31.675  -5.092 -22.861  0.00  0.00    +0.040 C 
ATOM     27  C   UNL     1      30.896  -3.837 -22.450  0.00  0.00    -0.019 C 
ATOM     28  C   UNL     1      31.264  -5.516 -24.275  0.00  0.00    -0.019 C 
ATOM     29  C   UNL     1      31.030  -2.731 -23.498  0.00  0.00    -0.077 C 
ATOM     30  C   UNL     1      31.386  -4.354 -25.262  0.00  0.00    -0.077 C 
ATOM     31  C   UNL     1      30.679  -2.115 -25.800  0.00  0.00    -0.101 C 
ATOM     32  H   UNL     1      29.621  -3.494 -24.745  0.00  0.00    -0.080 HD
ENDBRANCH  24  26
ENDBRANCH  23  24
ENDBRANCH   4  23
TORSDOF 5
ENDMDL
MODEL 5
REMARK VINA RESULT:     -10.4      4.355      9.440
REMARK  Name = 3081361
REMARK  5 active torsions:
REMARK  status: ('A' for Active; 'I' for Inactive)
REMARK    1  A    between atoms: N_2  and  C_15
REMARK    2  A    between atoms: C_4  and  O_23
REMARK    3  A    between atoms: C_5  and  O_21
REMARK    4  A    between atoms: O_23  and  C_24
REMARK    5  A    between atoms: C_24  and  C_26
REMARK                            x       y       z     vdW  Elec       q    Type
REMARK                         _______ _______ _______ _____ _____    ______ ____
ROOT
ATOM      1  N   UNL     1      34.549 -16.426 -25.866  0.00  0.00    -0.248 NA
ATOM      2  N   UNL     1      33.949 -17.725 -21.983  0.00  0.00    -0.296 N 
ATOM      3  N   UNL     1      34.607 -18.165 -24.199  0.00  0.00    -0.230 NA
ATOM      4  C   UNL     1      33.351 -13.318 -24.360  0.00  0.00    +0.156 C 
ATOM      5  C   UNL     1      33.134 -13.700 -23.047  0.00  0.00    +0.169 C 
ATOM      6  C   UNL     1      33.825 -14.231 -25.300  0.00  0.00    +0.112 C 
ATOM      7  C   UNL     1      34.093 -15.552 -24.950  0.00  0.00    +0.066 C 
ATOM      8  C   UNL     1      33.870 -15.936 -23.618  0.00  0.00    +0.048 C 
ATOM      9  C   UNL     1      33.392 -15.015 -22.671  0.00  0.00    +0.044 C 
ATOM     10  C   UNL     1      34.149 -17.265 -23.308  0.00  0.00    +0.131 C 
ATOM     11  C   UNL     1      34.782 -17.684 -25.440  0.00  0.00    +0.252 C 
ATOM     12  H   UNL     1      33.227 -17.257 -21.505  0.00  0.00    +0.154 HD
ENDROOT
BRANCH   2  15
ATOM     13 BR   UNL     1      36.699 -22.039 -18.678  0.00  0.00    -0.049 Br
ATOM     14  F   UNL     1      32.510 -19.826 -20.860  0.00  0.00    -0.203 F 
ATOM     15  C   UNL     1      34.581 -18.720 -21.220  0.00  0.00    +0.077 C 
ATOM     16  C   UNL     1      33.835 -19.766 -20.667  0.00  0.00    +0.154 C 
ATOM     17  C   UNL     1      35.962 -18.672 -21.011  0.00  0.00    +0.017 C 
ATOM     18  C   UNL     1      34.467 -20.754 -19.910  0.00  0.00    +0.038 C 
ATOM     19  C   UNL     1      36.592 -19.660 -20.254  0.00  0.00    +0.008 C 
ATOM     20  C   UNL     1      35.844 -20.700 -19.703  0.00  0.00    +0.037 C 
ENDBRANCH   2  15
BRANCH   5  21
ATOM     21  O   UNL     1      32.670 -12.813 -22.124  0.00  0.00    -0.469 OA
ATOM     22  C   UNL     1      32.323 -13.333 -20.841  0.00  0.00    +0.253 C 
ENDBRANCH   5  21
BRANCH   4  23
ATOM     23  O   UNL     1      33.102 -12.026 -24.753  0.00  0.00    -0.476 OA
BRANCH  23  24
ATOM     24  C   UNL     1      34.194 -11.126 -24.729  0.00  0.00    +0.205 C 
BRANCH  24  26
ATOM     25  N   UNL     1      32.802  -7.339 -23.186  0.00  0.00    +0.386 N 
ATOM     26  C   UNL     1      33.880 -10.009 -23.737  0.00  0.00    +0.040 C 
ATOM     27  C   UNL     1      32.375  -9.724 -23.688  0.00  0.00    -0.019 C 
ATOM     28  C   UNL     1      34.638  -8.726 -24.093  0.00  0.00    -0.019 C 
ATOM     29  C   UNL     1      32.062  -8.539 -22.771  0.00  0.00    -0.077 C 
ATOM     30  C   UNL     1      34.251  -7.575 -23.163  0.00  0.00    -0.077 C 
ATOM     31  C   UNL     1      32.453  -6.203 -22.334  0.00  0.00    -0.101 C 
ATOM     32  H   UNL     1      32.534  -7.121 -24.146  0.00  0.00    -0.080 HD
ENDBRANCH  24  26
ENDBRANCH  23  24
ENDBRANCH   4  23
TORSDOF 5
ENDMDL
MODEL 6
REMARK VINA RESULT:     -10.3      2.673      4.559
REMARK  Name = 3081361
REMARK  5 active torsions:
REMARK  status: ('A' for Active; 'I' for Inactive)
REMARK    1  A    between atoms: N_2  and  C_15
REMARK    2  A    between atoms: C_4  and  O_23
REMARK    3  A    between atoms: C_5  and  O_21
REMARK    4  A    between atoms: O_23  and  C_24
REMARK    5  A    between atoms: C_24  and  C_26
REMARK                            x       y       z     vdW  Elec       q    Type
REMARK                         _______ _______ _______ _____ _____    ______ ____
ROOT
ATOM      1  N   UNL     1      31.810 -11.362 -19.301  0.00  0.00    -0.248 NA
ATOM      2  N   UNL     1      31.528  -9.740 -23.097  0.00  0.00    -0.296 N 
ATOM      3  N   UNL     1      31.372  -9.497 -20.762  0.00  0.00    -0.230 NA
ATOM      4  C   UNL     1      32.670 -14.306 -21.290  0.00  0.00    +0.156 C 
ATOM      5  C   UNL     1      32.590 -13.814 -22.581  0.00  0.00    +0.169 C 
ATOM      6  C   UNL     1      32.409 -13.485 -20.195  0.00  0.00    +0.112 C 
ATOM      7  C   UNL     1      32.061 -12.148 -20.364  0.00  0.00    +0.066 C 
ATOM      8  C   UNL     1      31.980 -11.652 -21.676  0.00  0.00    +0.048 C 
ATOM      9  C   UNL     1      32.243 -12.481 -22.779  0.00  0.00    +0.044 C 
ATOM     10  C   UNL     1      31.629 -10.310 -21.804  0.00  0.00    +0.131 C 
ATOM     11  C   UNL     1      31.480 -10.081 -19.558  0.00  0.00    +0.252 C 
ATOM     12  H   UNL     1      31.258 -10.380 -23.794  0.00  0.00    +0.154 HD
ENDROOT
BRANCH   2  15
ATOM     13 BR   UNL     1      32.431  -4.090 -25.183  0.00  0.00    -0.049 Br
ATOM     14  F   UNL     1      34.092  -8.707 -23.419  0.00  0.00    -0.203 F 
ATOM     15  C   UNL     1      31.738  -8.437 -23.577  0.00  0.00    +0.077 C 
ATOM     16  C   UNL     1      33.037  -7.942 -23.730  0.00  0.00    +0.154 C 
ATOM     17  C   UNL     1      30.648  -7.627 -23.907  0.00  0.00    +0.017 C 
ATOM     18  C   UNL     1      33.243  -6.647 -24.209  0.00  0.00    +0.038 C 
ATOM     19  C   UNL     1      30.854  -6.333 -24.385  0.00  0.00    +0.008 C 
ATOM     20  C   UNL     1      32.151  -5.843 -24.535  0.00  0.00    +0.037 C 
ENDBRANCH   2  15
BRANCH   5  21
ATOM     21  O   UNL     1      32.843 -14.612 -23.655  0.00  0.00    -0.469 OA
ATOM     22  C   UNL     1      33.114 -13.964 -24.896  0.00  0.00    +0.253 C 
ENDBRANCH   5  21
BRANCH   4  23
ATOM     23  O   UNL     1      33.010 -15.619 -21.071  0.00  0.00    -0.476 OA
BRANCH  23  24
ATOM     24  C   UNL     1      34.340 -15.877 -20.661  0.00  0.00    +0.205 C 
BRANCH  24  26
ATOM     25  N   UNL     1      34.586 -18.904 -23.734  0.00  0.00    +0.386 N 
ATOM     26  C   UNL     1      34.899 -17.011 -21.517  0.00  0.00    +0.040 C 
ATOM     27  C   UNL     1      35.017 -16.586 -22.985  0.00  0.00    -0.019 C 
ATOM     28  C   UNL     1      34.027 -18.265 -21.410  0.00  0.00    -0.019 C 
ATOM     29  C   UNL     1      35.482 -17.747 -23.866  0.00  0.00    -0.077 C 
ATOM     30  C   UNL     1      34.524 -19.371 -22.342  0.00  0.00    -0.077 C 
ATOM     31  C   UNL     1      35.013 -19.986 -24.619  0.00  0.00    -0.101 C 
ATOM     32  H   UNL     1      33.648 -18.609 -24.008  0.00  0.00    -0.080 HD
ENDBRANCH  24  26
ENDBRANCH  23  24
ENDBRANCH   4  23
TORSDOF 5
ENDMDL
MODEL 7
REMARK VINA RESULT:     -10.0      4.462      9.828
REMARK  Name = 3081361
REMARK  5 active torsions:
REMARK  status: ('A' for Active; 'I' for Inactive)
REMARK    1  A    between atoms: N_2  and  C_15
REMARK    2  A    between atoms: C_4  and  O_23
REMARK    3  A    between atoms: C_5  and  O_21
REMARK    4  A    between atoms: O_23  and  C_24
REMARK    5  A    between atoms: C_24  and  C_26
REMARK                            x       y       z     vdW  Elec       q    Type
REMARK                         _______ _______ _______ _____ _____    ______ ____
ROOT
ATOM      1  N   UNL     1      33.871 -14.549 -25.160  0.00  0.00    -0.248 NA
ATOM      2  N   UNL     1      33.508 -16.851 -21.740  0.00  0.00    -0.296 N 
ATOM      3  N   UNL     1      34.077 -16.659 -24.015  0.00  0.00    -0.230 NA
ATOM      4  C   UNL     1      32.622 -12.011 -22.845  0.00  0.00    +0.156 C 
ATOM      5  C   UNL     1      32.482 -12.735 -21.673  0.00  0.00    +0.169 C 
ATOM      6  C   UNL     1      33.088 -12.620 -24.008  0.00  0.00    +0.112 C 
ATOM      7  C   UNL     1      33.424 -13.970 -24.030  0.00  0.00    +0.066 C 
ATOM      8  C   UNL     1      33.280 -14.702 -22.840  0.00  0.00    +0.048 C 
ATOM      9  C   UNL     1      32.811 -14.087 -21.667  0.00  0.00    +0.044 C 
ATOM     10  C   UNL     1      33.627 -16.049 -22.902  0.00  0.00    +0.131 C 
ATOM     11  C   UNL     1      34.174 -15.861 -25.090  0.00  0.00    +0.252 C 
ATOM     12  H   UNL     1      32.791 -16.562 -21.130  0.00  0.00    +0.154 HD
ENDROOT
BRANCH   2  15
ATOM     13 BR   UNL     1      36.580 -21.735 -19.793  0.00  0.00    -0.049 Br
ATOM     14  F   UNL     1      32.186 -19.108 -20.787  0.00  0.00    -0.203 F 
ATOM     15  C   UNL     1      34.214 -17.978 -21.289  0.00  0.00    +0.077 C 
ATOM     16  C   UNL     1      33.527 -19.099 -20.816  0.00  0.00    +0.154 C 
ATOM     17  C   UNL     1      35.612 -17.985 -21.315  0.00  0.00    +0.017 C 
ATOM     18  C   UNL     1      34.232 -20.218 -20.370  0.00  0.00    +0.038 C 
ATOM     19  C   UNL     1      36.316 -19.103 -20.869  0.00  0.00    +0.008 C 
ATOM     20  C   UNL     1      35.626 -20.219 -20.396  0.00  0.00    +0.037 C 
ENDBRANCH   2  15
BRANCH   5  21
ATOM     21  O   UNL     1      32.028 -12.146 -20.533  0.00  0.00    -0.469 OA
ATOM     22  C   UNL     1      30.782 -11.454 -20.611  0.00  0.00    +0.253 C 
ENDBRANCH   5  21
BRANCH   4  23
ATOM     23  O   UNL     1      32.303 -10.676 -22.874  0.00  0.00    -0.476 OA
BRANCH  23  24
ATOM     24  C   UNL     1      33.194  -9.818 -23.562  0.00  0.00    +0.205 C 
BRANCH  24  26
ATOM     25  N   UNL     1      30.917  -6.429 -22.149  0.00  0.00    +0.386 N 
ATOM     26  C   UNL     1      32.823  -8.373 -23.238  0.00  0.00    +0.040 C 
ATOM     27  C   UNL     1      32.612  -8.183 -21.732  0.00  0.00    -0.019 C 
ATOM     28  C   UNL     1      31.562  -7.944 -23.995  0.00  0.00    -0.019 C 
ATOM     29  C   UNL     1      32.143  -6.763 -21.410  0.00  0.00    -0.077 C 
ATOM     30  C   UNL     1      31.127  -6.532 -23.599  0.00  0.00    -0.077 C 
ATOM     31  C   UNL     1      30.453  -5.090 -21.791  0.00  0.00    -0.101 C 
ATOM     32  H   UNL     1      30.199  -7.105 -21.887  0.00  0.00    -0.080 HD
ENDBRANCH  24  26
ENDBRANCH  23  24
ENDBRANCH   4  23
TORSDOF 5
ENDMDL
MODEL 8
REMARK VINA RESULT:     -10.0      3.127      5.033
REMARK  Name = 3081361
REMARK  5 active torsions:
REMARK  status: ('A' for Active; 'I' for Inactive)
REMARK    1  A    between atoms: N_2  and  C_15
REMARK    2  A    between atoms: C_4  and  O_23
REMARK    3  A    between atoms: C_5  and  O_21
REMARK    4  A    between atoms: O_23  and  C_24
REMARK    5  A    between atoms: C_24  and  C_26
REMARK                            x       y       z     vdW  Elec       q    Type
REMARK                         _______ _______ _______ _____ _____    ______ ____
ROOT
ATOM      1  N   UNL     1      34.980 -10.303 -24.905  0.00  0.00    -0.248 NA
ATOM      2  N   UNL     1      32.631  -7.432 -23.069  0.00  0.00    -0.296 N 
ATOM      3  N   UNL     1      34.394  -7.997 -24.521  0.00  0.00    -0.230 NA
ATOM      4  C   UNL     1      32.775 -12.471 -22.957  0.00  0.00    +0.156 C 
ATOM      5  C   UNL     1      31.960 -11.553 -22.317  0.00  0.00    +0.169 C 
ATOM      6  C   UNL     1      33.783 -12.051 -23.822  0.00  0.00    +0.112 C 
ATOM      7  C   UNL     1      34.003 -10.699 -24.069  0.00  0.00    +0.066 C 
ATOM      8  C   UNL     1      33.175  -9.770 -23.417  0.00  0.00    +0.048 C 
ATOM      9  C   UNL     1      32.159 -10.195 -22.545  0.00  0.00    +0.044 C 
ATOM     10  C   UNL     1      33.426  -8.427 -23.689  0.00  0.00    +0.131 C 
ATOM     11  C   UNL     1      35.122  -8.974 -25.086  0.00  0.00    +0.252 C 
ATOM     12  H   UNL     1      32.291  -7.692 -22.182  0.00  0.00    +0.154 HD
ENDROOT
BRANCH   2  15
ATOM     13 BR   UNL     1      30.917  -1.861 -24.830  0.00  0.00    -0.049 Br
ATOM     14  F   UNL     1      31.456  -5.647 -21.285  0.00  0.00    -0.203 F 
ATOM     15  C   UNL     1      32.235  -6.148 -23.473  0.00  0.00    +0.077 C 
ATOM     16  C   UNL     1      31.647  -5.269 -22.557  0.00  0.00    +0.154 C 
ATOM     17  C   UNL     1      32.428  -5.738 -24.795  0.00  0.00    +0.017 C 
ATOM     18  C   UNL     1      31.255  -3.992 -22.962  0.00  0.00    +0.038 C 
ATOM     19  C   UNL     1      32.035  -4.462 -25.200  0.00  0.00    +0.008 C 
ATOM     20  C   UNL     1      31.449  -3.590 -24.283  0.00  0.00    +0.037 C 
ENDBRANCH   2  15
BRANCH   5  21
ATOM     21  O   UNL     1      30.974 -11.958 -21.470  0.00  0.00    -0.469 OA
ATOM     22  C   UNL     1      30.795 -11.202 -20.274  0.00  0.00    +0.253 C 
ENDBRANCH   5  21
BRANCH   4  23
ATOM     23  O   UNL     1      32.597 -13.817 -22.746  0.00  0.00    -0.476 OA
BRANCH  23  24
ATOM     24  C   UNL     1      33.163 -14.696 -23.700  0.00  0.00    +0.205 C 
BRANCH  24  26
ATOM     25  N   UNL     1      35.149 -17.979 -21.713  0.00  0.00    +0.386 N 
ATOM     26  C   UNL     1      34.262 -15.507 -23.018  0.00  0.00    +0.040 C 
ATOM     27  C   UNL     1      34.569 -16.788 -23.803  0.00  0.00    -0.019 C 
ATOM     28  C   UNL     1      33.874 -15.863 -21.580  0.00  0.00    -0.019 C 
ATOM     29  C   UNL     1      35.598 -17.655 -23.074  0.00  0.00    -0.077 C 
ATOM     30  C   UNL     1      34.925 -16.760 -20.924  0.00  0.00    -0.077 C 
ATOM     31  C   UNL     1      36.117 -18.850 -21.049  0.00  0.00    -0.101 C 
ATOM     32  H   UNL     1      34.260 -18.474 -21.785  0.00  0.00    -0.080 HD
ENDBRANCH  24  26
ENDBRANCH  23  24
ENDBRANCH   4  23
TORSDOF 5
ENDMDL
MODEL 9
REMARK VINA RESULT:     -10.0      4.569     10.669
REMARK  Name = 3081361
REMARK  5 active torsions:
REMARK  status: ('A' for Active; 'I' for Inactive)
REMARK    1  A    between atoms: N_2  and  C_15
REMARK    2  A    between atoms: C_4  and  O_23
REMARK    3  A    between atoms: C_5  and  O_21
REMARK    4  A    between atoms: O_23  and  C_24
REMARK    5  A    between atoms: C_24  and  C_26
REMARK                            x       y       z     vdW  Elec       q    Type
REMARK                         _______ _______ _______ _____ _____    ______ ____
ROOT
ATOM      1  N   UNL     1      31.572 -12.117 -21.502  0.00  0.00    -0.248 NA
ATOM      2  N   UNL     1      34.514 -14.296 -23.431  0.00  0.00    -0.296 N 
ATOM      3  N   UNL     1      32.751 -14.185 -21.878  0.00  0.00    -0.230 NA
ATOM      4  C   UNL     1      32.973  -9.499 -23.635  0.00  0.00    +0.156 C 
ATOM      5  C   UNL     1      33.971 -10.182 -24.309  0.00  0.00    +0.169 C 
ATOM      6  C   UNL     1      32.172 -10.149 -22.698  0.00  0.00    +0.112 C 
ATOM      7  C   UNL     1      32.350 -11.499 -22.410  0.00  0.00    +0.066 C 
ATOM      8  C   UNL     1      33.364 -12.187 -23.095  0.00  0.00    +0.048 C 
ATOM      9  C   UNL     1      34.172 -11.532 -24.040  0.00  0.00    +0.044 C 
ATOM     10  C   UNL     1      33.512 -13.536 -22.780  0.00  0.00    +0.131 C 
ATOM     11  C   UNL     1      31.814 -13.426 -21.287  0.00  0.00    +0.252 C 
ATOM     12  H   UNL     1      35.305 -13.770 -23.692  0.00  0.00    +0.154 HD
ENDROOT
BRANCH   2  15
ATOM     13 BR   UNL     1      34.891 -20.188 -24.923  0.00  0.00    -0.049 Br
ATOM     14  F   UNL     1      33.525 -15.242 -25.855  0.00  0.00    -0.203 F 
ATOM     15  C   UNL     1      34.599 -15.655 -23.777  0.00  0.00    +0.077 C 
ATOM     16  C   UNL     1      34.095 -16.104 -25.001  0.00  0.00    +0.154 C 
ATOM     17  C   UNL     1      35.192 -16.566 -22.898  0.00  0.00    +0.017 C 
ATOM     18  C   UNL     1      34.182 -17.455 -25.342  0.00  0.00    +0.038 C 
ATOM     19  C   UNL     1      35.278 -17.915 -23.239  0.00  0.00    +0.008 C 
ATOM     20  C   UNL     1      34.773 -18.360 -24.461  0.00  0.00    +0.037 C 
ENDBRANCH   2  15
BRANCH   5  21
ATOM     21  O   UNL     1      34.758  -9.552 -25.225  0.00  0.00    -0.469 OA
ATOM     22  C   UNL     1      35.564 -10.377 -26.065  0.00  0.00    +0.253 C 
ENDBRANCH   5  21
BRANCH   4  23
ATOM     23  O   UNL     1      32.758  -8.166 -23.884  0.00  0.00    -0.476 OA
BRANCH  23  24
ATOM     24  C   UNL     1      32.438  -7.349 -22.774  0.00  0.00    +0.205 C 
BRANCH  24  26
ATOM     25  N   UNL     1      30.764  -3.756 -24.492  0.00  0.00    +0.386 N 
ATOM     26  C   UNL     1      32.329  -5.903 -23.251  0.00  0.00    +0.040 C 
ATOM     27  C   UNL     1      31.216  -5.159 -22.505  0.00  0.00    -0.019 C 
ATOM     28  C   UNL     1      32.072  -5.839 -24.760  0.00  0.00    -0.019 C 
ATOM     29  C   UNL     1      31.033  -3.740 -23.048  0.00  0.00    -0.077 C 
ATOM     30  C   UNL     1      31.861  -4.398 -25.229  0.00  0.00    -0.077 C 
ATOM     31  C   UNL     1      30.541  -2.397 -24.985  0.00  0.00    -0.101 C 
ATOM     32  H   UNL     1      29.918  -4.303 -24.648  0.00  0.00    -0.080 HD
ENDBRANCH  24  26
ENDBRANCH  23  24
ENDBRANCH   4  23
TORSDOF 5
ENDMDL
