MODEL 1
REMARK VINA RESULT:      -7.9      0.000      0.000
REMARK  Name = 6305
REMARK  5 active torsions:
REMARK  status: ('A' for Active; 'I' for Inactive)
REMARK    1  A    between atoms: CG_2  and  CB_11
REMARK    2  A    between atoms: CB_11  and  CA_12
REMARK    3  A    between atoms: CA_12  and  N_13
REMARK    4  A    between atoms: CA_12  and  C_18
REMARK    5  A    between atoms: C_18  and  O_19
REMARK                            x       y       z     vdW  Elec       q    Type
REMARK                         _______ _______ _______ _____ _____    ______ ____
ROOT
ATOM      1  NE1 TRP A   1      36.733 -19.752 -20.476  0.00  0.00    -0.312 N 
ATOM      2  CG  TRP A   1      35.061 -18.661 -21.445  0.00  0.00    -0.008 C 
ATOM      3  CD2 TRP A   1      34.517 -19.764 -20.730  0.00  0.00    +0.011 C 
ATOM      4  CE2 TRP A   1      35.587 -20.432 -20.131  0.00  0.00    +0.048 C 
ATOM      5  CD1 TRP A   1      36.425 -18.681 -21.271  0.00  0.00    +0.058 C 
ATOM      6  CE3 TRP A   1      33.213 -20.259 -20.533  0.00  0.00    +0.001 C 
ATOM      7  CZ2 TRP A   1      35.417 -21.575 -19.342  0.00  0.00    +0.015 C 
ATOM      8  CZ3 TRP A   1      33.028 -21.402 -19.746  0.00  0.00    +0.000 C 
ATOM      9  CH2 TRP A   1      34.114 -22.048 -19.161  0.00  0.00    +0.001 C 
ATOM     10  HE1 TRP A   1      37.642 -20.001 -20.192  0.00  0.00    +0.152 HD
ENDROOT
BRANCH   2  11
ATOM     11  CB  TRP A   1      34.308 -17.668 -22.238  0.00  0.00    +0.017 C 
BRANCH  11  12
ATOM     12  CA  TRP A   1      35.111 -17.060 -23.417  0.00  0.00    +0.040 C 
BRANCH  12  13
ATOM     13  N   TRP A   1      34.868 -15.624 -23.529  0.00  0.00    +0.389 N 
ATOM     14  H1  TRP A   1      35.268 -15.279 -24.401  0.00  0.00    -0.088 HD
ATOM     15  H2  TRP A   1      35.303 -15.142 -22.742  0.00  0.00    -0.088 HD
ATOM     16  H3  TRP A   1      33.864 -15.447 -23.524  0.00  0.00    -0.088 HD
ENDBRANCH  12  13
BRANCH  12  18
ATOM     17  OXT TRP A   1      34.296 -18.818 -24.892  0.00  0.00    -0.253 OA
ATOM     18  C   TRP A   1      34.708 -17.674 -24.746  0.00  0.00    +0.293 C 
BRANCH  18  19
ATOM     19  O   TRP A   1      34.820 -16.796 -25.776  0.00  0.00    -0.482 OA
ATOM     20  H   TRP A   1      34.719 -15.877 -25.622  0.00  0.00    +0.295 HD
ENDBRANCH  18  19
ENDBRANCH  12  18
ENDBRANCH  11  12
ENDBRANCH   2  11
TORSDOF 5
ENDMDL
MODEL 2
REMARK VINA RESULT:      -7.8      1.790      2.440
REMARK  Name = 6305
REMARK  5 active torsions:
REMARK  status: ('A' for Active; 'I' for Inactive)
REMARK    1  A    between atoms: CG_2  and  CB_11
REMARK    2  A    between atoms: CB_11  and  CA_12
REMARK    3  A    between atoms: CA_12  and  N_13
REMARK    4  A    between atoms: CA_12  and  C_18
REMARK    5  A    between atoms: C_18  and  O_19
REMARK                            x       y       z     vdW  Elec       q    Type
REMARK                         _______ _______ _______ _____ _____    ______ ____
ROOT
ATOM      1  NE1 TRP A   1      32.647 -20.484 -20.389  0.00  0.00    -0.312 N 
ATOM      2  CG  TRP A   1      34.198 -19.246 -21.381  0.00  0.00    -0.008 C 
ATOM      3  CD2 TRP A   1      34.850 -20.159 -20.506  0.00  0.00    +0.011 C 
ATOM      4  CE2 TRP A   1      33.854 -20.923 -19.896  0.00  0.00    +0.048 C 
ATOM      5  CD1 TRP A   1      32.844 -19.470 -21.287  0.00  0.00    +0.058 C 
ATOM      6  CE3 TRP A   1      36.196 -20.408 -20.174  0.00  0.00    +0.001 C 
ATOM      7  CZ2 TRP A   1      34.138 -21.930 -18.965  0.00  0.00    +0.015 C 
ATOM      8  CZ3 TRP A   1      36.495 -21.412 -19.246  0.00  0.00    +0.000 C 
ATOM      9  CH2 TRP A   1      35.481 -22.159 -18.652  0.00  0.00    +0.001 C 
ATOM     10  HE1 TRP A   1      31.768 -20.847 -20.132  0.00  0.00    +0.152 HD
ENDROOT
BRANCH   2  11
ATOM     11  CB  TRP A   1      34.846 -18.235 -22.241  0.00  0.00    +0.017 C 
BRANCH  11  12
ATOM     12  CA  TRP A   1      34.425 -18.309 -23.731  0.00  0.00    +0.040 C 
BRANCH  12  13
ATOM     13  N   TRP A   1      34.946 -19.519 -24.363  0.00  0.00    +0.389 N 
ATOM     14  H1  TRP A   1      35.245 -19.304 -25.314  0.00  0.00    -0.088 HD
ATOM     15  H2  TRP A   1      34.216 -20.231 -24.388  0.00  0.00    -0.088 HD
ATOM     16  H3  TRP A   1      35.743 -19.866 -23.828  0.00  0.00    -0.088 HD
ENDBRANCH  12  13
BRANCH  12  18
ATOM     17  OXT TRP A   1      34.777 -16.950 -25.722  0.00  0.00    -0.253 OA
ATOM     18  C   TRP A   1      34.970 -17.135 -24.527  0.00  0.00    +0.293 C 
BRANCH  18  19
ATOM     19  O   TRP A   1      35.681 -16.273 -23.755  0.00  0.00    -0.482 OA
ATOM     20  H   TRP A   1      36.342 -16.598 -23.177  0.00  0.00    +0.295 HD
ENDBRANCH  18  19
ENDBRANCH  12  18
ENDBRANCH  11  12
ENDBRANCH   2  11
TORSDOF 5
ENDMDL
MODEL 3
REMARK VINA RESULT:      -7.7      2.246      2.877
REMARK  Name = 6305
REMARK  5 active torsions:
REMARK  status: ('A' for Active; 'I' for Inactive)
REMARK    1  A    between atoms: CG_2  and  CB_11
REMARK    2  A    between atoms: CB_11  and  CA_12
REMARK    3  A    between atoms: CA_12  and  N_13
REMARK    4  A    between atoms: CA_12  and  C_18
REMARK    5  A    between atoms: C_18  and  O_19
REMARK                            x       y       z     vdW  Elec       q    Type
REMARK                         _______ _______ _______ _____ _____    ______ ____
ROOT
ATOM      1  NE1 TRP A   1      32.660 -20.445 -20.565  0.00  0.00    -0.312 N 
ATOM      2  CG  TRP A   1      34.541 -19.441 -21.179  0.00  0.00    -0.008 C 
ATOM      3  CD2 TRP A   1      34.861 -20.429 -20.207  0.00  0.00    +0.011 C 
ATOM      4  CE2 TRP A   1      33.663 -21.044 -19.838  0.00  0.00    +0.048 C 
ATOM      5  CD1 TRP A   1      33.180 -19.474 -21.378  0.00  0.00    +0.058 C 
ATOM      6  CE3 TRP A   1      36.059 -20.860 -19.604  0.00  0.00    +0.001 C 
ATOM      7  CZ2 TRP A   1      33.604 -22.074 -18.892  0.00  0.00    +0.015 C 
ATOM      8  CZ3 TRP A   1      36.015 -21.889 -18.657  0.00  0.00    +0.000 C 
ATOM      9  CH2 TRP A   1      34.806 -22.485 -18.307  0.00  0.00    +0.001 C 
ATOM     10  HE1 TRP A   1      31.705 -20.682 -20.507  0.00  0.00    +0.152 HD
ENDROOT
BRANCH   2  11
ATOM     11  CB  TRP A   1      35.488 -18.534 -21.859  0.00  0.00    +0.017 C 
BRANCH  11  12
ATOM     12  CA  TRP A   1      34.832 -17.256 -22.442  0.00  0.00    +0.040 C 
BRANCH  12  13
ATOM     13  N   TRP A   1      35.566 -16.778 -23.611  0.00  0.00    +0.389 N 
ATOM     14  H1  TRP A   1      35.025 -16.970 -24.454  0.00  0.00    -0.088 HD
ATOM     15  H2  TRP A   1      36.465 -17.256 -23.668  0.00  0.00    -0.088 HD
ATOM     16  H3  TRP A   1      35.720 -15.773 -23.529  0.00  0.00    -0.088 HD
ENDBRANCH  12  13
BRANCH  12  18
ATOM     17  OXT TRP A   1      35.028 -16.247 -20.234  0.00  0.00    -0.253 OA
ATOM     18  C   TRP A   1      34.829 -16.118 -21.435  0.00  0.00    +0.293 C 
BRANCH  18  19
ATOM     19  O   TRP A   1      34.613 -14.911 -22.020  0.00  0.00    -0.482 OA
ATOM     20  H   TRP A   1      33.857 -14.408 -21.790  0.00  0.00    +0.295 HD
ENDBRANCH  18  19
ENDBRANCH  12  18
ENDBRANCH  11  12
ENDBRANCH   2  11
TORSDOF 5
ENDMDL
MODEL 4
REMARK VINA RESULT:      -7.5      3.224      5.571
REMARK  Name = 6305
REMARK  5 active torsions:
REMARK  status: ('A' for Active; 'I' for Inactive)
REMARK    1  A    between atoms: CG_2  and  CB_11
REMARK    2  A    between atoms: CB_11  and  CA_12
REMARK    3  A    between atoms: CA_12  and  N_13
REMARK    4  A    between atoms: CA_12  and  C_18
REMARK    5  A    between atoms: C_18  and  O_19
REMARK                            x       y       z     vdW  Elec       q    Type
REMARK                         _______ _______ _______ _____ _____    ______ ____
ROOT
ATOM      1  NE1 TRP A   1      34.870 -18.205 -23.904  0.00  0.00    -0.312 N 
ATOM      2  CG  TRP A   1      34.868 -18.940 -21.811  0.00  0.00    -0.008 C 
ATOM      3  CD2 TRP A   1      34.747 -17.523 -21.784  0.00  0.00    +0.011 C 
ATOM      4  CE2 TRP A   1      34.751 -17.087 -23.111  0.00  0.00    +0.048 C 
ATOM      5  CD1 TRP A   1      34.943 -19.330 -23.128  0.00  0.00    +0.058 C 
ATOM      6  CE3 TRP A   1      34.633 -16.567 -20.756  0.00  0.00    +0.001 C 
ATOM      7  CZ2 TRP A   1      34.646 -15.735 -23.461  0.00  0.00    +0.015 C 
ATOM      8  CZ3 TRP A   1      34.528 -15.212 -21.092  0.00  0.00    +0.000 C 
ATOM      9  CH2 TRP A   1      34.535 -14.805 -22.424  0.00  0.00    +0.001 C 
ATOM     10  HE1 TRP A   1      34.900 -18.196 -24.889  0.00  0.00    +0.152 HD
ENDROOT
BRANCH   2  11
ATOM     11  CB  TRP A   1      34.910 -19.842 -20.642  0.00  0.00    +0.017 C 
BRANCH  11  12
ATOM     12  CA  TRP A   1      33.699 -20.806 -20.544  0.00  0.00    +0.040 C 
BRANCH  12  13
ATOM     13  N   TRP A   1      32.486 -20.085 -20.164  0.00  0.00    +0.389 N 
ATOM     14  H1  TRP A   1      32.637 -19.613 -19.272  0.00  0.00    -0.088 HD
ATOM     15  H2  TRP A   1      31.713 -20.744 -20.073  0.00  0.00    -0.088 HD
ATOM     16  H3  TRP A   1      32.262 -19.394 -20.879  0.00  0.00    -0.088 HD
ENDBRANCH  12  13
BRANCH  12  18
ATOM     17  OXT TRP A   1      34.987 -22.429 -19.264  0.00  0.00    -0.253 OA
ATOM     18  C   TRP A   1      33.917 -21.875 -19.488  0.00  0.00    +0.293 C 
BRANCH  18  19
ATOM     19  O   TRP A   1      32.790 -22.137 -18.777  0.00  0.00    -0.482 OA
ATOM     20  H   TRP A   1      32.255 -21.432 -18.471  0.00  0.00    +0.295 HD
ENDBRANCH  18  19
ENDBRANCH  12  18
ENDBRANCH  11  12
ENDBRANCH   2  11
TORSDOF 5
ENDMDL
MODEL 5
REMARK VINA RESULT:      -7.3      3.158      5.417
REMARK  Name = 6305
REMARK  5 active torsions:
REMARK  status: ('A' for Active; 'I' for Inactive)
REMARK    1  A    between atoms: CG_2  and  CB_11
REMARK    2  A    between atoms: CB_11  and  CA_12
REMARK    3  A    between atoms: CA_12  and  N_13
REMARK    4  A    between atoms: CA_12  and  C_18
REMARK    5  A    between atoms: C_18  and  O_19
REMARK                            x       y       z     vdW  Elec       q    Type
REMARK                         _______ _______ _______ _____ _____    ______ ____
ROOT
ATOM      1  NE1 TRP A   1      34.928 -16.428 -21.803  0.00  0.00    -0.312 N 
ATOM      2  CG  TRP A   1      35.033 -18.592 -21.324  0.00  0.00    -0.008 C 
ATOM      3  CD2 TRP A   1      34.832 -18.456 -22.726  0.00  0.00    +0.011 C 
ATOM      4  CE2 TRP A   1      34.770 -17.088 -23.000  0.00  0.00    +0.048 C 
ATOM      5  CD1 TRP A   1      35.088 -17.328 -20.784  0.00  0.00    +0.058 C 
ATOM      6  CE3 TRP A   1      34.696 -19.368 -23.791  0.00  0.00    +0.001 C 
ATOM      7  CZ2 TRP A   1      34.578 -16.585 -24.292  0.00  0.00    +0.015 C 
ATOM      8  CZ3 TRP A   1      34.505 -18.879 -25.089  0.00  0.00    +0.000 C 
ATOM      9  CH2 TRP A   1      34.446 -17.509 -25.333  0.00  0.00    +0.001 C 
ATOM     10  HE1 TRP A   1      34.927 -15.449 -21.695  0.00  0.00    +0.152 HD
ENDROOT
BRANCH   2  11
ATOM     11  CB  TRP A   1      35.160 -19.857 -20.572  0.00  0.00    +0.017 C 
BRANCH  11  12
ATOM     12  CA  TRP A   1      33.876 -20.726 -20.575  0.00  0.00    +0.040 C 
BRANCH  12  13
ATOM     13  N   TRP A   1      32.698 -19.920 -20.263  0.00  0.00    +0.389 N 
ATOM     14  H1  TRP A   1      31.856 -20.442 -20.505  0.00  0.00    -0.088 HD
ATOM     15  H2  TRP A   1      32.727 -19.053 -20.800  0.00  0.00    -0.088 HD
ATOM     16  H3  TRP A   1      32.688 -19.703 -19.266  0.00  0.00    -0.088 HD
ENDBRANCH  12  13
BRANCH  12  18
ATOM     17  OXT TRP A   1      34.959 -22.422 -19.202  0.00  0.00    -0.253 OA
ATOM     18  C   TRP A   1      33.941 -21.825 -19.528  0.00  0.00    +0.293 C 
BRANCH  18  19
ATOM     19  O   TRP A   1      32.734 -22.061 -18.952  0.00  0.00    -0.482 OA
ATOM     20  H   TRP A   1      32.083 -22.553 -19.412  0.00  0.00    +0.295 HD
ENDBRANCH  18  19
ENDBRANCH  12  18
ENDBRANCH  11  12
ENDBRANCH   2  11
TORSDOF 5
ENDMDL
MODEL 6
REMARK VINA RESULT:      -7.3      3.687      4.741
REMARK  Name = 6305
REMARK  5 active torsions:
REMARK  status: ('A' for Active; 'I' for Inactive)
REMARK    1  A    between atoms: CG_2  and  CB_11
REMARK    2  A    between atoms: CB_11  and  CA_12
REMARK    3  A    between atoms: CA_12  and  N_13
REMARK    4  A    between atoms: CA_12  and  C_18
REMARK    5  A    between atoms: C_18  and  O_19
REMARK                            x       y       z     vdW  Elec       q    Type
REMARK                         _______ _______ _______ _____ _____    ______ ____
ROOT
ATOM      1  NE1 TRP A   1      34.986 -17.695 -20.984  0.00  0.00    -0.312 N 
ATOM      2  CG  TRP A   1      34.620 -15.803 -22.084  0.00  0.00    -0.008 C 
ATOM      3  CD2 TRP A   1      34.641 -16.868 -23.026  0.00  0.00    +0.011 C 
ATOM      4  CE2 TRP A   1      34.872 -18.045 -22.310  0.00  0.00    +0.048 C 
ATOM      5  CD1 TRP A   1      34.836 -16.343 -20.836  0.00  0.00    +0.058 C 
ATOM      6  CE3 TRP A   1      34.485 -16.944 -24.424  0.00  0.00    +0.001 C 
ATOM      7  CZ2 TRP A   1      34.955 -19.299 -22.926  0.00  0.00    +0.015 C 
ATOM      8  CZ3 TRP A   1      34.565 -18.192 -25.053  0.00  0.00    +0.000 C 
ATOM      9  CH2 TRP A   1      34.797 -19.350 -24.314  0.00  0.00    +0.001 C 
ATOM     10  HE1 TRP A   1      35.151 -18.328 -20.248  0.00  0.00    +0.152 HD
ENDROOT
BRANCH   2  11
ATOM     11  CB  TRP A   1      34.409 -14.371 -22.377  0.00  0.00    +0.017 C 
BRANCH  11  12
ATOM     12  CA  TRP A   1      32.960 -14.021 -22.804  0.00  0.00    +0.040 C 
BRANCH  12  13
ATOM     13  N   TRP A   1      32.954 -13.204 -24.015  0.00  0.00    +0.389 N 
ATOM     14  H1  TRP A   1      33.433 -12.322 -23.832  0.00  0.00    -0.088 HD
ATOM     15  H2  TRP A   1      31.991 -13.016 -24.295  0.00  0.00    -0.088 HD
ATOM     16  H3  TRP A   1      33.436 -13.702 -24.764  0.00  0.00    -0.088 HD
ENDBRANCH  12  13
BRANCH  12  18
ATOM     17  OXT TRP A   1      32.426 -13.331 -20.530  0.00  0.00    -0.253 OA
ATOM     18  C   TRP A   1      32.239 -13.218 -21.735  0.00  0.00    +0.293 C 
BRANCH  18  19
ATOM     19  O   TRP A   1      31.372 -12.316 -22.263  0.00  0.00    -0.482 OA
ATOM     20  H   TRP A   1      31.221 -12.297 -23.188  0.00  0.00    +0.295 HD
ENDBRANCH  18  19
ENDBRANCH  12  18
ENDBRANCH  11  12
ENDBRANCH   2  11
TORSDOF 5
ENDMDL
MODEL 7
REMARK VINA RESULT:      -7.3      7.384      9.224
REMARK  Name = 6305
REMARK  5 active torsions:
REMARK  status: ('A' for Active; 'I' for Inactive)
REMARK    1  A    between atoms: CG_2  and  CB_11
REMARK    2  A    between atoms: CB_11  and  CA_12
REMARK    3  A    between atoms: CA_12  and  N_13
REMARK    4  A    between atoms: CA_12  and  C_18
REMARK    5  A    between atoms: C_18  and  O_19
REMARK                            x       y       z     vdW  Elec       q    Type
REMARK                         _______ _______ _______ _____ _____    ______ ____
ROOT
ATOM      1  NE1 TRP A   1      32.362 -22.917 -17.733  0.00  0.00    -0.312 N 
ATOM      2  CG  TRP A   1      33.791 -23.314 -16.083  0.00  0.00    -0.008 C 
ATOM      3  CD2 TRP A   1      32.481 -23.255 -15.532  0.00  0.00    +0.011 C 
ATOM      4  CE2 TRP A   1      31.603 -23.005 -16.588  0.00  0.00    +0.048 C 
ATOM      5  CD1 TRP A   1      33.686 -23.102 -17.438  0.00  0.00    +0.058 C 
ATOM      6  CE3 TRP A   1      31.957 -23.391 -14.232  0.00  0.00    +0.001 C 
ATOM      7  CZ2 TRP A   1      30.220 -22.883 -16.408  0.00  0.00    +0.015 C 
ATOM      8  CZ3 TRP A   1      30.575 -23.272 -14.036  0.00  0.00    +0.000 C 
ATOM      9  CH2 TRP A   1      29.723 -23.022 -15.109  0.00  0.00    +0.001 C 
ATOM     10  HE1 TRP A   1      32.003 -22.746 -18.634  0.00  0.00    +0.152 HD
ENDROOT
BRANCH   2  11
ATOM     11  CB  TRP A   1      35.047 -23.557 -15.345  0.00  0.00    +0.017 C 
BRANCH  11  12
ATOM     12  CA  TRP A   1      35.168 -24.986 -14.756  0.00  0.00    +0.040 C 
BRANCH  12  13
ATOM     13  N   TRP A   1      35.423 -24.939 -13.318  0.00  0.00    +0.389 N 
ATOM     14  H1  TRP A   1      36.374 -25.258 -13.131  0.00  0.00    -0.088 HD
ATOM     15  H2  TRP A   1      34.761 -25.545 -12.834  0.00  0.00    -0.088 HD
ATOM     16  H3  TRP A   1      35.316 -23.981 -12.984  0.00  0.00    -0.088 HD
ENDBRANCH  12  13
BRANCH  12  18
ATOM     17  OXT TRP A   1      36.258 -26.908 -15.779  0.00  0.00    -0.253 OA
ATOM     18  C   TRP A   1      36.322 -25.753 -15.377  0.00  0.00    +0.293 C 
BRANCH  18  19
ATOM     19  O   TRP A   1      37.449 -25.002 -15.476  0.00  0.00    -0.482 OA
ATOM     20  H   TRP A   1      38.186 -25.324 -15.955  0.00  0.00    +0.295 HD
ENDBRANCH  18  19
ENDBRANCH  12  18
ENDBRANCH  11  12
ENDBRANCH   2  11
TORSDOF 5
ENDMDL
MODEL 8
REMARK VINA RESULT:      -7.3      8.290      9.764
REMARK  Name = 6305
REMARK  5 active torsions:
REMARK  status: ('A' for Active; 'I' for Inactive)
REMARK    1  A    between atoms: CG_2  and  CB_11
REMARK    2  A    between atoms: CB_11  and  CA_12
REMARK    3  A    between atoms: CA_12  and  N_13
REMARK    4  A    between atoms: CA_12  and  C_18
REMARK    5  A    between atoms: C_18  and  O_19
REMARK                            x       y       z     vdW  Elec       q    Type
REMARK                         _______ _______ _______ _____ _____    ______ ____
ROOT
ATOM      1  NE1 TRP A   1      33.795 -23.722 -13.212  0.00  0.00    -0.312 N 
ATOM      2  CG  TRP A   1      35.387 -23.891 -14.749  0.00  0.00    -0.008 C 
ATOM      3  CD2 TRP A   1      34.161 -23.601 -15.409  0.00  0.00    +0.011 C 
ATOM      4  CE2 TRP A   1      33.178 -23.501 -14.422  0.00  0.00    +0.048 C 
ATOM      5  CD1 TRP A   1      35.131 -23.959 -13.399  0.00  0.00    +0.058 C 
ATOM      6  CE3 TRP A   1      33.792 -23.415 -16.756  0.00  0.00    +0.001 C 
ATOM      7  CZ2 TRP A   1      31.838 -23.221 -14.717  0.00  0.00    +0.015 C 
ATOM      8  CZ3 TRP A   1      32.456 -23.135 -17.065  0.00  0.00    +0.000 C 
ATOM      9  CH2 TRP A   1      31.496 -23.041 -16.060  0.00  0.00    +0.001 C 
ATOM     10  HE1 TRP A   1      33.341 -23.711 -12.338  0.00  0.00    +0.152 HD
ENDROOT
BRANCH   2  11
ATOM     11  CB  TRP A   1      36.705 -24.086 -15.386  0.00  0.00    +0.017 C 
BRANCH  11  12
ATOM     12  CA  TRP A   1      37.575 -25.180 -14.714  0.00  0.00    +0.040 C 
BRANCH  12  13
ATOM     13  N   TRP A   1      38.920 -25.203 -15.286  0.00  0.00    +0.389 N 
ATOM     14  H1  TRP A   1      39.605 -25.031 -14.550  0.00  0.00    -0.088 HD
ATOM     15  H2  TRP A   1      38.999 -24.478 -16.000  0.00  0.00    -0.088 HD
ATOM     16  H3  TRP A   1      39.096 -26.115 -15.707  0.00  0.00    -0.088 HD
ENDBRANCH  12  13
BRANCH  12  18
ATOM     17  OXT TRP A   1      36.769 -27.076 -16.013  0.00  0.00    -0.253 OA
ATOM     18  C   TRP A   1      36.991 -26.567 -14.922  0.00  0.00    +0.293 C 
BRANCH  18  19
ATOM     19  O   TRP A   1      36.768 -27.215 -13.749  0.00  0.00    -0.482 OA
ATOM     20  H   TRP A   1      35.969 -27.073 -13.281  0.00  0.00    +0.295 HD
ENDBRANCH  18  19
ENDBRANCH  12  18
ENDBRANCH  11  12
ENDBRANCH   2  11
TORSDOF 5
ENDMDL
MODEL 9
REMARK VINA RESULT:      -7.3      6.812      9.326
REMARK  Name = 6305
REMARK  5 active torsions:
REMARK  status: ('A' for Active; 'I' for Inactive)
REMARK    1  A    between atoms: CG_2  and  CB_11
REMARK    2  A    between atoms: CB_11  and  CA_12
REMARK    3  A    between atoms: CA_12  and  N_13
REMARK    4  A    between atoms: CA_12  and  C_18
REMARK    5  A    between atoms: C_18  and  O_19
REMARK                            x       y       z     vdW  Elec       q    Type
REMARK                         _______ _______ _______ _____ _____    ______ ____
ROOT
ATOM      1  NE1 TRP A   1      37.340 -21.978 -16.730  0.00  0.00    -0.312 N 
ATOM      2  CG  TRP A   1      35.785 -23.112 -15.624  0.00  0.00    -0.008 C 
ATOM      3  CD2 TRP A   1      35.250 -22.741 -16.888  0.00  0.00    +0.011 C 
ATOM      4  CE2 TRP A   1      36.245 -22.030 -17.562  0.00  0.00    +0.048 C 
ATOM      5  CD1 TRP A   1      37.072 -22.629 -15.555  0.00  0.00    +0.058 C 
ATOM      6  CE3 TRP A   1      34.010 -22.941 -17.525  0.00  0.00    +0.001 C 
ATOM      7  CZ2 TRP A   1      36.061 -21.509 -18.848  0.00  0.00    +0.015 C 
ATOM      8  CZ3 TRP A   1      33.811 -22.426 -18.812  0.00  0.00    +0.000 C 
ATOM      9  CH2 TRP A   1      34.822 -21.721 -19.461  0.00  0.00    +0.001 C 
ATOM     10  HE1 TRP A   1      38.193 -21.537 -16.948  0.00  0.00    +0.152 HD
ENDROOT
BRANCH   2  11
ATOM     11  CB  TRP A   1      35.096 -23.876 -14.565  0.00  0.00    +0.017 C 
BRANCH  11  12
ATOM     12  CA  TRP A   1      36.051 -24.539 -13.539  0.00  0.00    +0.040 C 
BRANCH  12  13
ATOM     13  N   TRP A   1      36.306 -25.935 -13.889  0.00  0.00    +0.389 N 
ATOM     14  H1  TRP A   1      35.920 -26.130 -14.813  0.00  0.00    -0.088 HD
ATOM     15  H2  TRP A   1      35.863 -26.544 -13.201  0.00  0.00    -0.088 HD
ATOM     16  H3  TRP A   1      37.311 -26.106 -13.898  0.00  0.00    -0.088 HD
ENDBRANCH  12  13
BRANCH  12  18
ATOM     17  OXT TRP A   1      35.832 -25.265 -11.225  0.00  0.00    -0.253 OA
ATOM     18  C   TRP A   1      35.458 -24.543 -12.141  0.00  0.00    +0.293 C 
BRANCH  18  19
ATOM     19  O   TRP A   1      34.473 -23.619 -11.995  0.00  0.00    -0.482 OA
ATOM     20  H   TRP A   1      33.693 -23.682 -12.510  0.00  0.00    +0.295 HD
ENDBRANCH  18  19
ENDBRANCH  12  18
ENDBRANCH  11  12
ENDBRANCH   2  11
TORSDOF 5
ENDMDL
