MODEL 1
REMARK VINA RESULT:      -8.2      0.000      0.000
REMARK  Name = 165138
REMARK  4 active torsions:
REMARK  status: ('A' for Active; 'I' for Inactive)
REMARK    1  A    between atoms: N_2  and  C_16
REMARK    2  A    between atoms: C_17  and  O_20
REMARK    3  A    between atoms: C_19  and  C_22
REMARK    4  A    between atoms: C_22  and  O_23
REMARK                            x       y       z     vdW  Elec       q    Type
REMARK                         _______ _______ _______ _____ _____    ______ ____
ROOT
ATOM      1  O   UNL     1      29.334 -22.502 -17.151  0.00  0.00    -0.208 OA
ATOM      2  N   UNL     1      33.706 -23.411 -16.459  0.00  0.00    -0.207 NA
ATOM      3  N   UNL     1      32.171 -24.013 -14.671  0.00  0.00    -0.279 N 
ATOM      4  N   UNL     1      32.190 -22.562 -17.878  0.00  0.00    -0.241 NA
ATOM      5  N   UNL     1      29.870 -23.494 -15.126  0.00  0.00    -0.301 NA
ATOM      6  N   UNL     1      30.542 -24.503 -13.105  0.00  0.00    -0.320 N 
ATOM      7  C   UNL     1      32.494 -23.515 -15.868  0.00  0.00    +0.191 C 
ATOM      8  C   UNL     1      33.471 -22.824 -17.682  0.00  0.00    +0.205 C 
ATOM      9  C   UNL     1      31.578 -22.997 -16.736  0.00  0.00    +0.183 C 
ATOM     10  C   UNL     1      30.173 -22.963 -16.386  0.00  0.00    +0.224 C 
ATOM     11  C   UNL     1      30.817 -23.977 -14.342  0.00  0.00    +0.245 C 
ATOM     12  H   UNL     1      32.847 -24.382 -14.059  0.00  0.00    +0.152 HD
ATOM     13  H   UNL     1      31.274 -24.855 -12.547  0.00  0.00    +0.146 HD
ATOM     14  H   UNL     1      29.616 -24.527 -12.775  0.00  0.00    +0.146 HD
ENDROOT
BRANCH   2  16
ATOM     15  O   UNL     1      34.812 -24.796 -14.888  0.00  0.00    -0.338 OA
ATOM     16  C   UNL     1      35.004 -23.827 -15.933  0.00  0.00    +0.206 C 
ATOM     17  C   UNL     1      35.819 -22.694 -15.330  0.00  0.00    +0.156 C 
ATOM     18  C   UNL     1      36.694 -23.445 -14.351  0.00  0.00    +0.065 C 
ATOM     19  C   UNL     1      35.774 -24.544 -13.845  0.00  0.00    +0.149 C 
BRANCH  17  20
ATOM     20  O   UNL     1      36.582 -22.028 -16.316  0.00  0.00    -0.380 OA
ATOM     21  H   UNL     1      36.011 -21.419 -16.810  0.00  0.00    +0.211 HD
ENDBRANCH  17  20
BRANCH  19  22
ATOM     22  C   UNL     1      35.028 -24.156 -12.577  0.00  0.00    +0.167 C 
BRANCH  22  23
ATOM     23  O   UNL     1      33.788 -24.843 -12.543  0.00  0.00    -0.379 OA
ATOM     24  H   UNL     1      33.717 -25.344 -11.715  0.00  0.00    +0.211 HD
ENDBRANCH  22  23
ENDBRANCH  19  22
ENDBRANCH   2  16
TORSDOF 4
ENDMDL
MODEL 2
REMARK VINA RESULT:      -8.1      2.042      2.478
REMARK  Name = 165138
REMARK  4 active torsions:
REMARK  status: ('A' for Active; 'I' for Inactive)
REMARK    1  A    between atoms: N_2  and  C_16
REMARK    2  A    between atoms: C_17  and  O_20
REMARK    3  A    between atoms: C_19  and  C_22
REMARK    4  A    between atoms: C_22  and  O_23
REMARK                            x       y       z     vdW  Elec       q    Type
REMARK                         _______ _______ _______ _____ _____    ______ ____
ROOT
ATOM      1  O   UNL     1      31.460 -22.605 -17.088  0.00  0.00    -0.208 OA
ATOM      2  N   UNL     1      35.064 -24.312 -14.962  0.00  0.00    -0.207 NA
ATOM      3  N   UNL     1      32.889 -24.811 -13.994  0.00  0.00    -0.279 N 
ATOM      4  N   UNL     1      34.342 -23.084 -16.695  0.00  0.00    -0.241 NA
ATOM      5  N   UNL     1      31.033 -23.864 -15.189  0.00  0.00    -0.301 NA
ATOM      6  N   UNL     1      30.730 -25.162 -13.246  0.00  0.00    -0.320 N 
ATOM      7  C   UNL     1      33.714 -24.264 -14.890  0.00  0.00    +0.191 C 
ATOM      8  C   UNL     1      35.401 -23.580 -16.078  0.00  0.00    +0.205 C 
ATOM      9  C   UNL     1      33.283 -23.515 -15.946  0.00  0.00    +0.183 C 
ATOM     10  C   UNL     1      31.868 -23.275 -16.147  0.00  0.00    +0.224 C 
ATOM     11  C   UNL     1      31.529 -24.576 -14.193  0.00  0.00    +0.245 C 
ATOM     12  H   UNL     1      33.220 -25.348 -13.238  0.00  0.00    +0.152 HD
ATOM     13  H   UNL     1      31.134 -25.687 -12.516  0.00  0.00    +0.146 HD
ATOM     14  H   UNL     1      29.752 -25.059 -13.294  0.00  0.00    +0.146 HD
ENDROOT
BRANCH   2  16
ATOM     15  O   UNL     1      35.717 -24.602 -12.704  0.00  0.00    -0.338 OA
ATOM     16  C   UNL     1      35.990 -24.994 -14.061  0.00  0.00    +0.206 C 
ATOM     17  C   UNL     1      37.453 -24.673 -14.319  0.00  0.00    +0.156 C 
ATOM     18  C   UNL     1      38.059 -24.929 -12.957  0.00  0.00    +0.065 C 
ATOM     19  C   UNL     1      36.969 -24.460 -12.006  0.00  0.00    +0.149 C 
BRANCH  17  20
ATOM     20  O   UNL     1      37.999 -25.524 -15.308  0.00  0.00    -0.380 OA
ATOM     21  H   UNL     1      37.292 -25.828 -15.899  0.00  0.00    +0.211 HD
ENDBRANCH  17  20
BRANCH  19  22
ATOM     22  C   UNL     1      37.133 -23.006 -11.587  0.00  0.00    +0.167 C 
BRANCH  22  23
ATOM     23  O   UNL     1      38.513 -22.679 -11.590  0.00  0.00    -0.379 OA
ATOM     24  H   UNL     1      38.638 -21.804 -11.992  0.00  0.00    +0.211 HD
ENDBRANCH  22  23
ENDBRANCH  19  22
ENDBRANCH   2  16
TORSDOF 4
ENDMDL
MODEL 3
REMARK VINA RESULT:      -8.0      1.821      3.349
REMARK  Name = 165138
REMARK  4 active torsions:
REMARK  status: ('A' for Active; 'I' for Inactive)
REMARK    1  A    between atoms: N_2  and  C_16
REMARK    2  A    between atoms: C_17  and  O_20
REMARK    3  A    between atoms: C_19  and  C_22
REMARK    4  A    between atoms: C_22  and  O_23
REMARK                            x       y       z     vdW  Elec       q    Type
REMARK                         _______ _______ _______ _____ _____    ______ ____
ROOT
ATOM      1  O   UNL     1      29.999 -23.401 -15.429  0.00  0.00    -0.208 OA
ATOM      2  N   UNL     1      34.399 -23.718 -14.448  0.00  0.00    -0.207 NA
ATOM      3  N   UNL     1      33.833 -23.058 -16.720  0.00  0.00    -0.279 N 
ATOM      4  N   UNL     1      32.306 -23.925 -13.670  0.00  0.00    -0.241 NA
ATOM      5  N   UNL     1      31.474 -22.916 -17.150  0.00  0.00    -0.301 NA
ATOM      6  N   UNL     1      33.073 -22.448 -18.816  0.00  0.00    -0.320 N 
ATOM      7  C   UNL     1      33.557 -23.418 -15.464  0.00  0.00    +0.191 C 
ATOM      8  C   UNL     1      33.591 -24.021 -13.376  0.00  0.00    +0.205 C 
ATOM      9  C   UNL     1      32.287 -23.547 -14.982  0.00  0.00    +0.183 C 
ATOM     10  C   UNL     1      31.148 -23.291 -15.840  0.00  0.00    +0.224 C 
ATOM     11  C   UNL     1      32.732 -22.814 -17.540  0.00  0.00    +0.245 C 
ATOM     12  H   UNL     1      34.757 -22.972 -17.048  0.00  0.00    +0.152 HD
ATOM     13  H   UNL     1      34.022 -22.382 -19.072  0.00  0.00    +0.146 HD
ATOM     14  H   UNL     1      32.371 -22.251 -19.477  0.00  0.00    +0.146 HD
ENDROOT
BRANCH   2  16
ATOM     15  O   UNL     1      36.329 -24.608 -15.495  0.00  0.00    -0.338 OA
ATOM     16  C   UNL     1      35.860 -23.724 -14.462  0.00  0.00    +0.206 C 
ATOM     17  C   UNL     1      36.488 -24.204 -13.163  0.00  0.00    +0.156 C 
ATOM     18  C   UNL     1      37.825 -24.715 -13.650  0.00  0.00    +0.065 C 
ATOM     19  C   UNL     1      37.488 -25.310 -15.008  0.00  0.00    +0.149 C 
BRANCH  17  20
ATOM     20  O   UNL     1      36.634 -23.142 -12.240  0.00  0.00    -0.380 OA
ATOM     21  H   UNL     1      36.513 -22.296 -12.699  0.00  0.00    +0.211 HD
ENDBRANCH  17  20
BRANCH  19  22
ATOM     22  C   UNL     1      37.166 -26.796 -14.941  0.00  0.00    +0.167 C 
BRANCH  22  23
ATOM     23  O   UNL     1      36.804 -27.248 -16.236  0.00  0.00    -0.379 OA
ATOM     24  H   UNL     1      36.444 -28.147 -16.177  0.00  0.00    +0.211 HD
ENDBRANCH  22  23
ENDBRANCH  19  22
ENDBRANCH   2  16
TORSDOF 4
ENDMDL
MODEL 4
REMARK VINA RESULT:      -8.0      2.295      3.348
REMARK  Name = 165138
REMARK  4 active torsions:
REMARK  status: ('A' for Active; 'I' for Inactive)
REMARK    1  A    between atoms: N_2  and  C_16
REMARK    2  A    between atoms: C_17  and  O_20
REMARK    3  A    between atoms: C_19  and  C_22
REMARK    4  A    between atoms: C_22  and  O_23
REMARK                            x       y       z     vdW  Elec       q    Type
REMARK                         _______ _______ _______ _____ _____    ______ ____
ROOT
ATOM      1  O   UNL     1      32.604 -22.885 -18.007  0.00  0.00    -0.208 OA
ATOM      2  N   UNL     1      35.626 -23.378 -14.683  0.00  0.00    -0.207 NA
ATOM      3  N   UNL     1      33.281 -23.458 -14.044  0.00  0.00    -0.279 N 
ATOM      4  N   UNL     1      35.324 -23.062 -16.883  0.00  0.00    -0.241 NA
ATOM      5  N   UNL     1      31.748 -23.188 -15.874  0.00  0.00    -0.301 NA
ATOM      6  N   UNL     1      31.001 -23.502 -13.661  0.00  0.00    -0.320 N 
ATOM      7  C   UNL     1      34.293 -23.340 -14.908  0.00  0.00    +0.191 C 
ATOM      8  C   UNL     1      36.214 -23.204 -15.915  0.00  0.00    +0.205 C 
ATOM      9  C   UNL     1      34.118 -23.147 -16.247  0.00  0.00    +0.183 C 
ATOM     10  C   UNL     1      32.784 -23.059 -16.807  0.00  0.00    +0.224 C 
ATOM     11  C   UNL     1      32.001 -23.373 -14.591  0.00  0.00    +0.245 C 
ATOM     12  H   UNL     1      33.429 -23.596 -13.081  0.00  0.00    +0.152 HD
ATOM     13  H   UNL     1      31.227 -23.639 -12.711  0.00  0.00    +0.146 HD
ATOM     14  H   UNL     1      30.059 -23.458 -13.941  0.00  0.00    +0.146 HD
ENDROOT
BRANCH   2  16
ATOM     15  O   UNL     1      37.736 -23.410 -13.607  0.00  0.00    -0.338 OA
ATOM     16  C   UNL     1      36.320 -23.565 -13.411  0.00  0.00    +0.206 C 
ATOM     17  C   UNL     1      36.117 -24.939 -12.792  0.00  0.00    +0.156 C 
ATOM     18  C   UNL     1      37.365 -25.073 -11.949  0.00  0.00    +0.065 C 
ATOM     19  C   UNL     1      38.423 -24.381 -12.794  0.00  0.00    +0.149 C 
BRANCH  17  20
ATOM     20  O   UNL     1      34.943 -24.979 -12.005  0.00  0.00    -0.380 OA
ATOM     21  H   UNL     1      34.438 -24.160 -12.135  0.00  0.00    +0.211 HD
ENDBRANCH  17  20
BRANCH  19  22
ATOM     22  C   UNL     1      39.173 -25.339 -13.707  0.00  0.00    +0.167 C 
BRANCH  22  23
ATOM     23  O   UNL     1      40.473 -24.823 -13.948  0.00  0.00    -0.379 OA
ATOM     24  H   UNL     1      40.953 -25.419 -14.545  0.00  0.00    +0.211 HD
ENDBRANCH  22  23
ENDBRANCH  19  22
ENDBRANCH   2  16
TORSDOF 4
ENDMDL
MODEL 5
REMARK VINA RESULT:      -7.8      2.159      5.327
REMARK  Name = 165138
REMARK  4 active torsions:
REMARK  status: ('A' for Active; 'I' for Inactive)
REMARK    1  A    between atoms: N_2  and  C_16
REMARK    2  A    between atoms: C_17  and  O_20
REMARK    3  A    between atoms: C_19  and  C_22
REMARK    4  A    between atoms: C_22  and  O_23
REMARK                            x       y       z     vdW  Elec       q    Type
REMARK                         _______ _______ _______ _____ _____    ______ ____
ROOT
ATOM      1  O   UNL     1      37.784 -22.325 -16.541  0.00  0.00    -0.208 OA
ATOM      2  N   UNL     1      33.537 -23.533 -15.578  0.00  0.00    -0.207 NA
ATOM      3  N   UNL     1      35.104 -23.483 -13.719  0.00  0.00    -0.279 N 
ATOM      4  N   UNL     1      34.966 -22.896 -17.187  0.00  0.00    -0.241 NA
ATOM      5  N   UNL     1      37.336 -22.830 -14.323  0.00  0.00    -0.301 NA
ATOM      6  N   UNL     1      36.754 -23.368 -12.103  0.00  0.00    -0.320 N 
ATOM      7  C   UNL     1      34.743 -23.342 -14.997  0.00  0.00    +0.191 C 
ATOM      8  C   UNL     1      33.721 -23.250 -16.913  0.00  0.00    +0.205 C 
ATOM      9  C   UNL     1      35.606 -22.955 -15.981  0.00  0.00    +0.183 C 
ATOM     10  C   UNL     1      36.993 -22.673 -15.672  0.00  0.00    +0.224 C 
ATOM     11  C   UNL     1      36.440 -23.209 -13.429  0.00  0.00    +0.245 C 
ATOM     12  H   UNL     1      34.466 -23.763 -13.024  0.00  0.00    +0.152 HD
ATOM     13  H   UNL     1      36.060 -23.652 -11.464  0.00  0.00    +0.146 HD
ATOM     14  H   UNL     1      37.671 -23.199 -11.791  0.00  0.00    +0.146 HD
ENDROOT
BRANCH   2  16
ATOM     15  O   UNL     1      31.317 -24.267 -15.957  0.00  0.00    -0.338 OA
ATOM     16  C   UNL     1      32.288 -23.950 -14.945  0.00  0.00    +0.206 C 
ATOM     17  C   UNL     1      31.659 -22.887 -14.059  0.00  0.00    +0.156 C 
ATOM     18  C   UNL     1      30.203 -23.291 -14.098  0.00  0.00    +0.065 C 
ATOM     19  C   UNL     1      30.027 -23.798 -15.520  0.00  0.00    +0.149 C 
BRANCH  17  20
ATOM     20  O   UNL     1      32.185 -22.934 -12.747  0.00  0.00    -0.380 OA
ATOM     21  H   UNL     1      32.083 -23.831 -12.390  0.00  0.00    +0.211 HD
ENDBRANCH  17  20
BRANCH  19  22
ATOM     22  C   UNL     1      29.550 -22.718 -16.480  0.00  0.00    +0.167 C 
BRANCH  22  23
ATOM     23  O   UNL     1      28.478 -22.009 -15.879  0.00  0.00    -0.379 OA
ATOM     24  H   UNL     1      28.027 -22.583 -15.241  0.00  0.00    +0.211 HD
ENDBRANCH  22  23
ENDBRANCH  19  22
ENDBRANCH   2  16
TORSDOF 4
ENDMDL
MODEL 6
REMARK VINA RESULT:      -7.8      2.712      4.464
REMARK  Name = 165138
REMARK  4 active torsions:
REMARK  status: ('A' for Active; 'I' for Inactive)
REMARK    1  A    between atoms: N_2  and  C_16
REMARK    2  A    between atoms: C_17  and  O_20
REMARK    3  A    between atoms: C_19  and  C_22
REMARK    4  A    between atoms: C_22  and  O_23
REMARK                            x       y       z     vdW  Elec       q    Type
REMARK                         _______ _______ _______ _____ _____    ______ ____
ROOT
ATOM      1  O   UNL     1      32.454 -20.647 -20.732  0.00  0.00    -0.208 OA
ATOM      2  N   UNL     1      34.685 -22.844 -17.474  0.00  0.00    -0.207 NA
ATOM      3  N   UNL     1      35.988 -21.320 -18.851  0.00  0.00    -0.279 N 
ATOM      4  N   UNL     1      32.701 -22.518 -18.468  0.00  0.00    -0.241 NA
ATOM      5  N   UNL     1      34.721 -20.198 -20.555  0.00  0.00    -0.301 NA
ATOM      6  N   UNL     1      37.032 -19.826 -20.273  0.00  0.00    -0.320 N 
ATOM      7  C   UNL     1      34.872 -21.944 -18.466  0.00  0.00    +0.191 C 
ATOM      8  C   UNL     1      33.347 -23.165 -17.513  0.00  0.00    +0.205 C 
ATOM      9  C   UNL     1      33.661 -21.752 -19.066  0.00  0.00    +0.183 C 
ATOM     10  C   UNL     1      33.532 -20.834 -20.179  0.00  0.00    +0.224 C 
ATOM     11  C   UNL     1      35.856 -20.439 -19.923  0.00  0.00    +0.245 C 
ATOM     12  H   UNL     1      36.852 -21.474 -18.405  0.00  0.00    +0.152 HD
ATOM     13  H   UNL     1      37.859 -20.030 -19.779  0.00  0.00    +0.146 HD
ATOM     14  H   UNL     1      37.049 -19.183 -21.018  0.00  0.00    +0.146 HD
ENDROOT
BRANCH   2  16
ATOM     15  O   UNL     1      35.118 -24.491 -15.828  0.00  0.00    -0.338 OA
ATOM     16  C   UNL     1      35.677 -23.377 -16.543  0.00  0.00    +0.206 C 
ATOM     17  C   UNL     1      36.140 -22.378 -15.495  0.00  0.00    +0.156 C 
ATOM     18  C   UNL     1      36.577 -23.299 -14.378  0.00  0.00    +0.065 C 
ATOM     19  C   UNL     1      35.571 -24.436 -14.461  0.00  0.00    +0.149 C 
BRANCH  17  20
ATOM     20  O   UNL     1      37.211 -21.588 -15.975  0.00  0.00    -0.380 OA
ATOM     21  H   UNL     1      37.009 -20.650 -15.832  0.00  0.00    +0.211 HD
ENDBRANCH  17  20
BRANCH  19  22
ATOM     22  C   UNL     1      34.366 -24.230 -13.555  0.00  0.00    +0.167 C 
BRANCH  22  23
ATOM     23  O   UNL     1      34.620 -24.847 -12.303  0.00  0.00    -0.379 OA
ATOM     24  H   UNL     1      35.349 -24.387 -11.857  0.00  0.00    +0.211 HD
ENDBRANCH  22  23
ENDBRANCH  19  22
ENDBRANCH   2  16
TORSDOF 4
ENDMDL
MODEL 7
REMARK VINA RESULT:      -7.8      1.513      3.586
REMARK  Name = 165138
REMARK  4 active torsions:
REMARK  status: ('A' for Active; 'I' for Inactive)
REMARK    1  A    between atoms: N_2  and  C_16
REMARK    2  A    between atoms: C_17  and  O_20
REMARK    3  A    between atoms: C_19  and  C_22
REMARK    4  A    between atoms: C_22  and  O_23
REMARK                            x       y       z     vdW  Elec       q    Type
REMARK                         _______ _______ _______ _____ _____    ______ ____
ROOT
ATOM      1  O   UNL     1      30.279 -22.778 -16.862  0.00  0.00    -0.208 OA
ATOM      2  N   UNL     1      34.032 -24.036 -14.682  0.00  0.00    -0.207 NA
ATOM      3  N   UNL     1      34.320 -23.162 -16.934  0.00  0.00    -0.279 N 
ATOM      4  N   UNL     1      31.799 -23.849 -14.576  0.00  0.00    -0.241 NA
ATOM      5  N   UNL     1      32.273 -22.519 -18.015  0.00  0.00    -0.301 NA
ATOM      6  N   UNL     1      34.365 -22.305 -19.081  0.00  0.00    -0.320 N 
ATOM      7  C   UNL     1      33.612 -23.520 -15.860  0.00  0.00    +0.191 C 
ATOM      8  C   UNL     1      32.893 -24.220 -13.932  0.00  0.00    +0.205 C 
ATOM      9  C   UNL     1      32.254 -23.410 -15.787  0.00  0.00    +0.183 C 
ATOM     10  C   UNL     1      31.499 -22.884 -16.907  0.00  0.00    +0.224 C 
ATOM     11  C   UNL     1      33.587 -22.658 -18.007  0.00  0.00    +0.245 C 
ATOM     12  H   UNL     1      35.300 -23.250 -16.967  0.00  0.00    +0.152 HD
ATOM     13  H   UNL     1      35.342 -22.422 -19.040  0.00  0.00    +0.146 HD
ATOM     14  H   UNL     1      33.947 -21.936 -19.892  0.00  0.00    +0.146 HD
ENDROOT
BRANCH   2  16
ATOM     15  O   UNL     1      36.183 -23.135 -14.269  0.00  0.00    -0.338 OA
ATOM     16  C   UNL     1      35.400 -24.341 -14.270  0.00  0.00    +0.206 C 
ATOM     17  C   UNL     1      36.118 -25.322 -15.183  0.00  0.00    +0.156 C 
ATOM     18  C   UNL     1      37.563 -24.949 -14.944  0.00  0.00    +0.065 C 
ATOM     19  C   UNL     1      37.501 -23.441 -14.764  0.00  0.00    +0.149 C 
BRANCH  17  20
ATOM     20  O   UNL     1      35.849 -26.660 -14.811  0.00  0.00    -0.380 OA
ATOM     21  H   UNL     1      34.990 -26.930 -15.172  0.00  0.00    +0.211 HD
ENDBRANCH  17  20
BRANCH  19  22
ATOM     22  C   UNL     1      37.725 -22.679 -16.062  0.00  0.00    +0.167 C 
BRANCH  22  23
ATOM     23  O   UNL     1      36.848 -21.565 -16.099  0.00  0.00    -0.379 OA
ATOM     24  H   UNL     1      37.361 -20.746 -16.016  0.00  0.00    +0.211 HD
ENDBRANCH  22  23
ENDBRANCH  19  22
ENDBRANCH   2  16
TORSDOF 4
ENDMDL
MODEL 8
REMARK VINA RESULT:      -7.7      9.179     11.524
REMARK  Name = 165138
REMARK  4 active torsions:
REMARK  status: ('A' for Active; 'I' for Inactive)
REMARK    1  A    between atoms: N_2  and  C_16
REMARK    2  A    between atoms: C_17  and  O_20
REMARK    3  A    between atoms: C_19  and  C_22
REMARK    4  A    between atoms: C_22  and  O_23
REMARK                            x       y       z     vdW  Elec       q    Type
REMARK                         _______ _______ _______ _____ _____    ______ ____
ROOT
ATOM      1  O   UNL     1      31.950 -12.163 -21.982  0.00  0.00    -0.208 OA
ATOM      2  N   UNL     1      34.344 -15.991 -21.766  0.00  0.00    -0.207 NA
ATOM      3  N   UNL     1      33.654 -15.260 -23.981  0.00  0.00    -0.279 N 
ATOM      4  N   UNL     1      33.428 -14.307 -20.600  0.00  0.00    -0.241 NA
ATOM      5  N   UNL     1      32.388 -13.218 -23.999  0.00  0.00    -0.301 NA
ATOM      6  N   UNL     1      32.898 -14.385 -25.983  0.00  0.00    -0.320 N 
ATOM      7  C   UNL     1      33.739 -15.166 -22.651  0.00  0.00    +0.191 C 
ATOM      8  C   UNL     1      34.128 -15.427 -20.529  0.00  0.00    +0.205 C 
ATOM      9  C   UNL     1      33.185 -14.146 -21.934  0.00  0.00    +0.183 C 
ATOM     10  C   UNL     1      32.457 -13.088 -22.606  0.00  0.00    +0.224 C 
ATOM     11  C   UNL     1      32.952 -14.239 -24.620  0.00  0.00    +0.245 C 
ATOM     12  H   UNL     1      34.061 -16.005 -24.479  0.00  0.00    +0.152 HD
ATOM     13  H   UNL     1      33.330 -15.158 -26.412  0.00  0.00    +0.146 HD
ATOM     14  H   UNL     1      32.427 -13.717 -26.531  0.00  0.00    +0.146 HD
ENDROOT
BRANCH   2  16
ATOM     15  O   UNL     1      35.566 -17.203 -23.393  0.00  0.00    -0.338 OA
ATOM     16  C   UNL     1      35.079 -17.223 -22.040  0.00  0.00    +0.206 C 
ATOM     17  C   UNL     1      34.244 -18.486 -21.898  0.00  0.00    +0.156 C 
ATOM     18  C   UNL     1      34.981 -19.435 -22.816  0.00  0.00    +0.065 C 
ATOM     19  C   UNL     1      35.441 -18.528 -23.946  0.00  0.00    +0.149 C 
BRANCH  17  20
ATOM     20  O   UNL     1      34.233 -18.947 -20.561  0.00  0.00    -0.380 OA
ATOM     21  H   UNL     1      35.125 -18.871 -20.186  0.00  0.00    +0.211 HD
ENDBRANCH  17  20
BRANCH  19  22
ATOM     22  C   UNL     1      34.458 -18.481 -25.106  0.00  0.00    +0.167 C 
BRANCH  22  23
ATOM     23  O   UNL     1      34.633 -17.262 -25.810  0.00  0.00    -0.379 OA
ATOM     24  H   UNL     1      33.766 -16.896 -26.045  0.00  0.00    +0.211 HD
ENDBRANCH  22  23
ENDBRANCH  19  22
ENDBRANCH   2  16
TORSDOF 4
ENDMDL
MODEL 9
REMARK VINA RESULT:      -7.7      1.836      3.038
REMARK  Name = 165138
REMARK  4 active torsions:
REMARK  status: ('A' for Active; 'I' for Inactive)
REMARK    1  A    between atoms: N_2  and  C_16
REMARK    2  A    between atoms: C_17  and  O_20
REMARK    3  A    between atoms: C_19  and  C_22
REMARK    4  A    between atoms: C_22  and  O_23
REMARK                            x       y       z     vdW  Elec       q    Type
REMARK                         _______ _______ _______ _____ _____    ______ ____
ROOT
ATOM      1  O   UNL     1      30.011 -22.773 -15.377  0.00  0.00    -0.208 OA
ATOM      2  N   UNL     1      34.233 -24.170 -14.572  0.00  0.00    -0.207 NA
ATOM      3  N   UNL     1      33.759 -23.372 -16.820  0.00  0.00    -0.279 N 
ATOM      4  N   UNL     1      32.185 -23.863 -13.710  0.00  0.00    -0.241 NA
ATOM      5  N   UNL     1      31.492 -22.651 -17.156  0.00  0.00    -0.301 NA
ATOM      6  N   UNL     1      33.092 -22.576 -18.885  0.00  0.00    -0.320 N 
ATOM      7  C   UNL     1      33.452 -23.663 -15.553  0.00  0.00    +0.191 C 
ATOM      8  C   UNL     1      33.418 -24.274 -13.468  0.00  0.00    +0.205 C 
ATOM      9  C   UNL     1      32.209 -23.480 -15.022  0.00  0.00    +0.183 C 
ATOM     10  C   UNL     1      31.135 -22.945 -15.834  0.00  0.00    +0.224 C 
ATOM     11  C   UNL     1      32.721 -22.858 -17.596  0.00  0.00    +0.245 C 
ATOM     12  H   UNL     1      34.662 -23.513 -17.185  0.00  0.00    +0.152 HD
ATOM     13  H   UNL     1      34.017 -22.743 -19.179  0.00  0.00    +0.146 HD
ATOM     14  H   UNL     1      32.434 -22.207 -19.518  0.00  0.00    +0.146 HD
ENDROOT
BRANCH   2  16
ATOM     15  O   UNL     1      36.088 -25.006 -13.359  0.00  0.00    -0.338 OA
ATOM     16  C   UNL     1      35.646 -24.535 -14.644  0.00  0.00    +0.206 C 
ATOM     17  C   UNL     1      36.564 -23.384 -15.022  0.00  0.00    +0.156 C 
ATOM     18  C   UNL     1      37.870 -23.828 -14.403  0.00  0.00    +0.065 C 
ATOM     19  C   UNL     1      37.423 -24.519 -13.125  0.00  0.00    +0.149 C 
BRANCH  17  20
ATOM     20  O   UNL     1      36.665 -23.248 -16.426  0.00  0.00    -0.380 OA
ATOM     21  H   UNL     1      35.952 -22.673 -16.747  0.00  0.00    +0.211 HD
ENDBRANCH  17  20
BRANCH  19  22
ATOM     22  C   UNL     1      37.399 -23.586 -11.924  0.00  0.00    +0.167 C 
BRANCH  22  23
ATOM     23  O   UNL     1      38.721 -23.148 -11.653  0.00  0.00    -0.379 OA
ATOM     24  H   UNL     1      39.179 -22.965 -12.489  0.00  0.00    +0.211 HD
ENDBRANCH  22  23
ENDBRANCH  19  22
ENDBRANCH   2  16
TORSDOF 4
ENDMDL
