MODEL 1
REMARK VINA RESULT:      -9.8      0.000      0.000
REMARK  Name = 31401
REMARK  7 active torsions:
REMARK  status: ('A' for Active; 'I' for Inactive)
REMARK    1  A    between atoms: C_6  and  C_24
REMARK    2  A    between atoms: C_10  and  O_20
REMARK    3  A    between atoms: C_19  and  O_22
REMARK    4  A    between atoms: C_24  and  C_26
REMARK    5  A    between atoms: C_26  and  C_27
REMARK    6  A    between atoms: C_27  and  C_29
REMARK    7  A    between atoms: C_29  and  O_30
REMARK                            x       y       z     vdW  Elec       q    Type
REMARK                         _______ _______ _______ _____ _____    ______ ____
ROOT
ATOM      1  C   UNL     1      33.387 -23.655 -15.746  0.00  0.00    +0.002 C 
ATOM      2  C   UNL     1      32.230 -23.773 -14.727  0.00  0.00    +0.000 C 
ATOM      3  C   UNL     1      34.731 -23.277 -15.091  0.00  0.00    +0.027 C 
ATOM      4  C   UNL     1      35.092 -24.383 -14.041  0.00  0.00    +0.002 C 
ATOM      5  C   UNL     1      36.479 -24.118 -13.343  0.00  0.00    +0.000 C 
ATOM      6  C   UNL     1      31.072 -24.112 -15.696  0.00  0.00    +0.000 C 
ATOM      7  C   UNL     1      37.586 -23.958 -14.435  0.00  0.00    +0.005 C 
ATOM      8  C   UNL     1      32.578 -24.894 -13.740  0.00  0.00    +0.000 C 
ATOM      9  C   UNL     1      33.927 -24.643 -13.048  0.00  0.00    +0.000 C 
ATOM     10  C   UNL     1      35.859 -23.102 -16.126  0.00  0.00    +0.110 C 
ATOM     11  C   UNL     1      32.796 -22.774 -16.845  0.00  0.00    +0.000 C 
ATOM     12  C   UNL     1      31.308 -23.166 -16.893  0.00  0.00    +0.000 C 
ATOM     13  C   UNL     1      37.223 -22.887 -15.469  0.00  0.00    +0.029 C 
ATOM     14  C   UNL     1      36.899 -25.275 -12.389  0.00  0.00    +0.002 C 
ATOM     15  C   UNL     1      31.941 -22.465 -13.948  0.00  0.00    +0.000 C 
ATOM     16  C   UNL     1      37.931 -25.287 -15.139  0.00  0.00    +0.029 C 
ATOM     17  C   UNL     1      36.424 -22.837 -12.471  0.00  0.00    +0.000 C 
ATOM     18  C   UNL     1      37.209 -26.584 -13.105  0.00  0.00    +0.029 C 
ATOM     19  C   UNL     1      38.299 -26.389 -14.150  0.00  0.00    +0.111 C 
ENDROOT
BRANCH  10  20
ATOM     20  O   UNL     1      35.591 -21.963 -16.942  0.00  0.00    -0.384 OA
ATOM     21  H   UNL     1      34.690 -21.648 -16.772  0.00  0.00    +0.210 HD
ENDBRANCH  10  20
BRANCH  19  22
ATOM     22  O   UNL     1      38.484 -27.616 -14.847  0.00  0.00    -0.384 OA
ATOM     23  H   UNL     1      37.748 -27.752 -15.463  0.00  0.00    +0.210 HD
ENDBRANCH  19  22
BRANCH   6  24
ATOM     24  C   UNL     1      29.660 -24.015 -15.134  0.00  0.00    +0.001 C 
ATOM     25  C   UNL     1      29.195 -25.389 -14.641  0.00  0.00    +0.000 C 
BRANCH  24  26
ATOM     26  C   UNL     1      28.705 -23.426 -16.193  0.00  0.00    +0.012 C 
BRANCH  26  27
ATOM     27  C   UNL     1      27.933 -22.197 -15.709  0.00  0.00    +0.109 C 
BRANCH  27  29
ATOM     28  O   UNL     1      26.611 -21.800 -17.715  0.00  0.00    -0.250 OA
ATOM     29  C   UNL     1      26.667 -21.978 -16.507  0.00  0.00    +0.314 C 
BRANCH  29  30
ATOM     30  O   UNL     1      25.569 -21.992 -15.708  0.00  0.00    -0.480 OA
ATOM     31  H   UNL     1      25.563 -22.513 -14.928  0.00  0.00    +0.295 HD
ENDBRANCH  29  30
ENDBRANCH  27  29
ENDBRANCH  26  27
ENDBRANCH  24  26
ENDBRANCH   6  24
TORSDOF 7
ENDMDL
MODEL 2
REMARK VINA RESULT:      -8.7     10.345     13.382
REMARK  Name = 31401
REMARK  7 active torsions:
REMARK  status: ('A' for Active; 'I' for Inactive)
REMARK    1  A    between atoms: C_6  and  C_24
REMARK    2  A    between atoms: C_10  and  O_20
REMARK    3  A    between atoms: C_19  and  O_22
REMARK    4  A    between atoms: C_24  and  C_26
REMARK    5  A    between atoms: C_26  and  C_27
REMARK    6  A    between atoms: C_27  and  C_29
REMARK    7  A    between atoms: C_29  and  O_30
REMARK                            x       y       z     vdW  Elec       q    Type
REMARK                         _______ _______ _______ _____ _____    ______ ____
ROOT
ATOM      1  C   UNL     1      34.547 -16.392 -24.043  0.00  0.00    +0.002 C 
ATOM      2  C   UNL     1      34.606 -16.640 -22.518  0.00  0.00    +0.000 C 
ATOM      3  C   UNL     1      33.554 -15.279 -24.434  0.00  0.00    +0.027 C 
ATOM      4  C   UNL     1      33.998 -13.955 -23.721  0.00  0.00    +0.002 C 
ATOM      5  C   UNL     1      33.073 -12.735 -24.093  0.00  0.00    +0.000 C 
ATOM      6  C   UNL     1      35.631 -17.800 -22.489  0.00  0.00    +0.000 C 
ATOM      7  C   UNL     1      33.021 -12.579 -25.647  0.00  0.00    +0.005 C 
ATOM      8  C   UNL     1      35.092 -15.351 -21.844  0.00  0.00    +0.000 C 
ATOM      9  C   UNL     1      34.193 -14.154 -22.195  0.00  0.00    +0.000 C 
ATOM     10  C   UNL     1      33.460 -15.086 -25.960  0.00  0.00    +0.110 C 
ATOM     11  C   UNL     1      34.388 -17.797 -24.619  0.00  0.00    +0.000 C 
ATOM     12  C   UNL     1      35.201 -18.697 -23.671  0.00  0.00    +0.000 C 
ATOM     13  C   UNL     1      32.601 -13.880 -26.342  0.00  0.00    +0.029 C 
ATOM     14  C   UNL     1      33.580 -11.394 -23.486  0.00  0.00    +0.002 C 
ATOM     15  C   UNL     1      33.255 -17.075 -21.897  0.00  0.00    +0.000 C 
ATOM     16  C   UNL     1      34.344 -12.057 -26.243  0.00  0.00    +0.029 C 
ATOM     17  C   UNL     1      31.637 -12.941 -23.545  0.00  0.00    +0.000 C 
ATOM     18  C   UNL     1      34.902 -10.911 -24.071  0.00  0.00    +0.029 C 
ATOM     19  C   UNL     1      34.806 -10.761 -25.583  0.00  0.00    +0.111 C 
ENDROOT
BRANCH  10  20
ATOM     20  O   UNL     1      32.868 -16.240 -26.555  0.00  0.00    -0.384 OA
ATOM     21  H   UNL     1      31.927 -16.073 -26.717  0.00  0.00    +0.210 HD
ENDBRANCH  10  20
BRANCH  19  22
ATOM     22  O   UNL     1      36.088 -10.398 -26.085  0.00  0.00    -0.384 OA
ATOM     23  H   UNL     1      36.068  -9.475 -26.382  0.00  0.00    +0.210 HD
ENDBRANCH  19  22
BRANCH   6  24
ATOM     24  C   UNL     1      35.758 -18.568 -21.180  0.00  0.00    +0.001 C 
ATOM     25  C   UNL     1      37.172 -19.143 -21.045  0.00  0.00    +0.000 C 
BRANCH  24  26
ATOM     26  C   UNL     1      34.676 -19.664 -21.099  0.00  0.00    +0.012 C 
BRANCH  26  27
ATOM     27  C   UNL     1      34.954 -20.723 -20.031  0.00  0.00    +0.109 C 
BRANCH  27  29
ATOM     28  O   UNL     1      33.622 -22.685 -19.475  0.00  0.00    -0.250 OA
ATOM     29  C   UNL     1      33.701 -21.477 -19.645  0.00  0.00    +0.314 C 
BRANCH  29  30
ATOM     30  O   UNL     1      32.640 -20.639 -19.514  0.00  0.00    -0.480 OA
ATOM     31  H   UNL     1      32.707 -19.878 -18.969  0.00  0.00    +0.295 HD
ENDBRANCH  29  30
ENDBRANCH  27  29
ENDBRANCH  26  27
ENDBRANCH  24  26
ENDBRANCH   6  24
TORSDOF 7
ENDMDL
MODEL 3
REMARK VINA RESULT:      -7.3     14.240     17.150
REMARK  Name = 31401
REMARK  7 active torsions:
REMARK  status: ('A' for Active; 'I' for Inactive)
REMARK    1  A    between atoms: C_6  and  C_24
REMARK    2  A    between atoms: C_10  and  O_20
REMARK    3  A    between atoms: C_19  and  O_22
REMARK    4  A    between atoms: C_24  and  C_26
REMARK    5  A    between atoms: C_26  and  C_27
REMARK    6  A    between atoms: C_27  and  C_29
REMARK    7  A    between atoms: C_29  and  O_30
REMARK                            x       y       z     vdW  Elec       q    Type
REMARK                         _______ _______ _______ _____ _____    ______ ____
ROOT
ATOM      1  C   UNL     1      32.403 -11.128 -22.991  0.00  0.00    +0.002 C 
ATOM      2  C   UNL     1      33.407 -11.838 -23.929  0.00  0.00    +0.000 C 
ATOM      3  C   UNL     1      32.913  -9.764 -22.483  0.00  0.00    +0.027 C 
ATOM      4  C   UNL     1      33.179  -8.848 -23.727  0.00  0.00    +0.002 C 
ATOM      5  C   UNL     1      33.660  -7.405 -23.317  0.00  0.00    +0.000 C 
ATOM      6  C   UNL     1      32.618 -13.141 -24.205  0.00  0.00    +0.000 C 
ATOM      7  C   UNL     1      32.626  -6.774 -22.331  0.00  0.00    +0.005 C 
ATOM      8  C   UNL     1      33.614 -10.951 -25.163  0.00  0.00    +0.000 C 
ATOM      9  C   UNL     1      34.090  -9.541 -24.775  0.00  0.00    +0.000 C 
ATOM     10  C   UNL     1      31.930  -9.098 -21.502  0.00  0.00    +0.110 C 
ATOM     11  C   UNL     1      32.022 -12.222 -21.995  0.00  0.00    +0.000 C 
ATOM     12  C   UNL     1      32.043 -13.520 -22.823  0.00  0.00    +0.000 C 
ATOM     13  C   UNL     1      32.356  -7.680 -21.124  0.00  0.00    +0.029 C 
ATOM     14  C   UNL     1      33.810  -6.455 -24.542  0.00  0.00    +0.002 C 
ATOM     15  C   UNL     1      34.776 -12.143 -23.271  0.00  0.00    +0.000 C 
ATOM     16  C   UNL     1      31.299  -6.389 -23.018  0.00  0.00    +0.029 C 
ATOM     17  C   UNL     1      35.055  -7.459 -22.640  0.00  0.00    +0.000 C 
ATOM     18  C   UNL     1      32.489  -6.109 -25.220  0.00  0.00    +0.029 C 
ATOM     19  C   UNL     1      31.514  -5.487 -24.230  0.00  0.00    +0.111 C 
ENDROOT
BRANCH  10  20
ATOM     20  O   UNL     1      31.862  -9.861 -20.298  0.00  0.00    -0.384 OA
ATOM     21  H   UNL     1      32.002 -10.799 -20.500  0.00  0.00    +0.210 HD
ENDBRANCH  10  20
BRANCH  19  22
ATOM     22  O   UNL     1      30.273  -5.269 -24.892  0.00  0.00    -0.384 OA
ATOM     23  H   UNL     1      29.588  -5.068 -24.236  0.00  0.00    +0.210 HD
ENDBRANCH  19  22
BRANCH   6  24
ATOM     24  C   UNL     1      33.389 -14.280 -24.858  0.00  0.00    +0.001 C 
ATOM     25  C   UNL     1      32.714 -14.684 -26.173  0.00  0.00    +0.000 C 
BRANCH  24  26
ATOM     26  C   UNL     1      33.511 -15.468 -23.881  0.00  0.00    +0.012 C 
BRANCH  26  27
ATOM     27  C   UNL     1      34.921 -16.055 -23.800  0.00  0.00    +0.109 C 
BRANCH  27  29
ATOM     28  O   UNL     1      34.466 -17.707 -25.531  0.00  0.00    -0.250 OA
ATOM     29  C   UNL     1      35.010 -17.404 -24.479  0.00  0.00    +0.314 C 
BRANCH  29  30
ATOM     30  O   UNL     1      35.775 -18.269 -23.764  0.00  0.00    -0.480 OA
ATOM     31  H   UNL     1      36.626 -18.512 -24.077  0.00  0.00    +0.295 HD
ENDBRANCH  29  30
ENDBRANCH  27  29
ENDBRANCH  26  27
ENDBRANCH  24  26
ENDBRANCH   6  24
TORSDOF 7
ENDMDL
