MODEL 1
REMARK VINA RESULT:      -5.4      0.000      0.000
REMARK  Name = 3226
REMARK  3 active torsions:
REMARK  status: ('A' for Active; 'I' for Inactive)
REMARK    1  A    between atoms: C_3  and  C_6
REMARK    2  A    between atoms: C_3  and  O_7
REMARK    3  A    between atoms: O_7  and  C_10
REMARK                            x       y       z     vdW  Elec       q    Type
REMARK                         _______ _______ _______ _____ _____    ______ ____
ROOT
ATOM      1  F   UNL     1      37.047 -19.027 -21.047  0.00  0.00    -0.170 F 
ATOM      2  F   UNL     1      36.233 -17.780 -22.650  0.00  0.00    -0.170 F 
ATOM      3  C   UNL     1      35.904 -18.491 -21.546  0.00  0.00    +0.414 C 
ENDROOT
BRANCH   3   6
ATOM      4 CL   UNL     1      33.715 -19.834 -20.639  0.00  0.00    -0.068 Cl
ATOM      5  F   UNL     1      34.325 -19.296 -23.066  0.00  0.00    -0.210 F 
ATOM      6  C   UNL     1      34.948 -19.609 -21.899  0.00  0.00    +0.329 C 
ENDBRANCH   3   6
BRANCH   3   7
ATOM      7  O   UNL     1      35.342 -17.629 -20.564  0.00  0.00    -0.246 OA
BRANCH   7  10
ATOM      8  F   UNL     1      34.798 -15.501 -20.132  0.00  0.00    -0.166 F 
ATOM      9  F   UNL     1      33.541 -16.642 -21.495  0.00  0.00    -0.166 F 
ATOM     10  C   UNL     1      34.826 -16.432 -21.118  0.00  0.00    +0.454 C 
ENDBRANCH   7  10
ENDBRANCH   3   7
TORSDOF 3
ENDMDL
MODEL 2
REMARK VINA RESULT:      -5.1      1.918      2.540
REMARK  Name = 3226
REMARK  3 active torsions:
REMARK  status: ('A' for Active; 'I' for Inactive)
REMARK    1  A    between atoms: C_3  and  C_6
REMARK    2  A    between atoms: C_3  and  O_7
REMARK    3  A    between atoms: O_7  and  C_10
REMARK                            x       y       z     vdW  Elec       q    Type
REMARK                         _______ _______ _______ _____ _____    ______ ____
ROOT
ATOM      1  F   UNL     1      34.446 -19.341 -22.493  0.00  0.00    -0.170 F 
ATOM      2  F   UNL     1      33.174 -19.040 -20.739  0.00  0.00    -0.170 F 
ATOM      3  C   UNL     1      34.451 -19.245 -21.140  0.00  0.00    +0.414 C 
ENDROOT
BRANCH   3   6
ATOM      4 CL   UNL     1      36.686 -20.354 -20.047  0.00  0.00    -0.068 Cl
ATOM      5  F   UNL     1      34.245 -20.863 -19.469  0.00  0.00    -0.210 F 
ATOM      6  C   UNL     1      34.993 -20.531 -20.555  0.00  0.00    +0.329 C 
ENDBRANCH   3   6
BRANCH   3   7
ATOM      7  O   UNL     1      35.259 -18.135 -20.767  0.00  0.00    -0.246 OA
BRANCH   7  10
ATOM      8  F   UNL     1      35.416 -16.504 -22.294  0.00  0.00    -0.166 F 
ATOM      9  F   UNL     1      34.943 -15.967 -20.237  0.00  0.00    -0.166 F 
ATOM     10  C   UNL     1      34.720 -16.897 -21.197  0.00  0.00    +0.454 C 
ENDBRANCH   7  10
ENDBRANCH   3   7
TORSDOF 3
ENDMDL
MODEL 3
REMARK VINA RESULT:      -5.1      2.162      3.103
REMARK  Name = 3226
REMARK  3 active torsions:
REMARK  status: ('A' for Active; 'I' for Inactive)
REMARK    1  A    between atoms: C_3  and  C_6
REMARK    2  A    between atoms: C_3  and  O_7
REMARK    3  A    between atoms: O_7  and  C_10
REMARK                            x       y       z     vdW  Elec       q    Type
REMARK                         _______ _______ _______ _____ _____    ______ ____
ROOT
ATOM      1  F   UNL     1      34.723 -19.187 -22.949  0.00  0.00    -0.170 F 
ATOM      2  F   UNL     1      36.619 -18.435 -22.157  0.00  0.00    -0.170 F 
ATOM      3  C   UNL     1      35.274 -18.378 -22.010  0.00  0.00    +0.414 C 
ENDROOT
BRANCH   3   6
ATOM      4 CL   UNL     1      34.744 -16.050 -20.698  0.00  0.00    -0.068 Cl
ATOM      5  F   UNL     1      35.609 -16.335 -23.090  0.00  0.00    -0.210 F 
ATOM      6  C   UNL     1      34.775 -16.965 -22.221  0.00  0.00    +0.329 C 
ENDBRANCH   3   6
BRANCH   3   7
ATOM      7  O   UNL     1      34.908 -18.862 -20.723  0.00  0.00    -0.246 OA
BRANCH   7  10
ATOM      8  F   UNL     1      32.704 -19.244 -20.626  0.00  0.00    -0.166 F 
ATOM      9  F   UNL     1      34.054 -20.693 -19.722  0.00  0.00    -0.166 F 
ATOM     10  C   UNL     1      33.903 -19.859 -20.780  0.00  0.00    +0.454 C 
ENDBRANCH   7  10
ENDBRANCH   3   7
TORSDOF 3
ENDMDL
MODEL 4
REMARK VINA RESULT:      -5.1      2.000      3.534
REMARK  Name = 3226
REMARK  3 active torsions:
REMARK  status: ('A' for Active; 'I' for Inactive)
REMARK    1  A    between atoms: C_3  and  C_6
REMARK    2  A    between atoms: C_3  and  O_7
REMARK    3  A    between atoms: O_7  and  C_10
REMARK                            x       y       z     vdW  Elec       q    Type
REMARK                         _______ _______ _______ _____ _____    ______ ____
ROOT
ATOM      1  F   UNL     1      34.193 -19.740 -22.134  0.00  0.00    -0.170 F 
ATOM      2  F   UNL     1      34.231 -17.564 -21.910  0.00  0.00    -0.170 F 
ATOM      3  C   UNL     1      34.996 -18.648 -22.180  0.00  0.00    +0.414 C 
ENDROOT
BRANCH   3   6
ATOM      4 CL   UNL     1      36.026 -20.384 -20.352  0.00  0.00    -0.068 Cl
ATOM      5  F   UNL     1      37.295 -18.671 -21.770  0.00  0.00    -0.210 F 
ATOM      6  C   UNL     1      36.092 -18.797 -21.148  0.00  0.00    +0.329 C 
ENDBRANCH   3   6
BRANCH   3   7
ATOM      7  O   UNL     1      35.540 -18.541 -23.490  0.00  0.00    -0.246 OA
BRANCH   7  10
ATOM      8  F   UNL     1      34.814 -20.027 -24.999  0.00  0.00    -0.166 F 
ATOM      9  F   UNL     1      34.783 -17.913 -25.519  0.00  0.00    -0.166 F 
ATOM     10  C   UNL     1      34.580 -18.786 -24.503  0.00  0.00    +0.454 C 
ENDBRANCH   7  10
ENDBRANCH   3   7
TORSDOF 3
ENDMDL
MODEL 5
REMARK VINA RESULT:      -5.0      2.663      3.229
REMARK  Name = 3226
REMARK  3 active torsions:
REMARK  status: ('A' for Active; 'I' for Inactive)
REMARK    1  A    between atoms: C_3  and  C_6
REMARK    2  A    between atoms: C_3  and  O_7
REMARK    3  A    between atoms: O_7  and  C_10
REMARK                            x       y       z     vdW  Elec       q    Type
REMARK                         _______ _______ _______ _____ _____    ______ ____
ROOT
ATOM      1  F   UNL     1      35.017 -19.785 -24.491  0.00  0.00    -0.170 F 
ATOM      2  F   UNL     1      36.371 -18.618 -23.229  0.00  0.00    -0.170 F 
ATOM      3  C   UNL     1      35.077 -18.764 -23.600  0.00  0.00    +0.414 C 
ENDROOT
BRANCH   3   6
ATOM      4 CL   UNL     1      35.155 -16.047 -23.427  0.00  0.00    -0.068 Cl
ATOM      5  F   UNL     1      35.008 -17.475 -25.546  0.00  0.00    -0.210 F 
ATOM      6  C   UNL     1      34.567 -17.502 -24.260  0.00  0.00    +0.329 C 
ENDBRANCH   3   6
BRANCH   3   7
ATOM      7  O   UNL     1      34.285 -19.104 -22.468  0.00  0.00    -0.246 OA
BRANCH   7  10
ATOM      8  F   UNL     1      34.381 -19.880 -20.370  0.00  0.00    -0.166 F 
ATOM      9  F   UNL     1      34.979 -17.821 -20.749  0.00  0.00    -0.166 F 
ATOM     10  C   UNL     1      35.020 -19.076 -21.257  0.00  0.00    +0.454 C 
ENDBRANCH   7  10
ENDBRANCH   3   7
TORSDOF 3
ENDMDL
MODEL 6
REMARK VINA RESULT:      -5.0      2.761      4.257
REMARK  Name = 3226
REMARK  3 active torsions:
REMARK  status: ('A' for Active; 'I' for Inactive)
REMARK    1  A    between atoms: C_3  and  C_6
REMARK    2  A    between atoms: C_3  and  O_7
REMARK    3  A    between atoms: O_7  and  C_10
REMARK                            x       y       z     vdW  Elec       q    Type
REMARK                         _______ _______ _______ _____ _____    ______ ____
ROOT
ATOM      1  F   UNL     1      33.167 -15.497 -22.981  0.00  0.00    -0.170 F 
ATOM      2  F   UNL     1      34.497 -13.760 -23.036  0.00  0.00    -0.170 F 
ATOM      3  C   UNL     1      34.381 -15.033 -22.590  0.00  0.00    +0.414 C 
ENDROOT
BRANCH   3   6
ATOM      4 CL   UNL     1      32.851 -15.034 -20.337  0.00  0.00    -0.068 Cl
ATOM      5  F   UNL     1      35.080 -16.234 -20.714  0.00  0.00    -0.210 F 
ATOM      6  C   UNL     1      34.464 -15.078 -21.080  0.00  0.00    +0.329 C 
ENDBRANCH   3   6
BRANCH   3   7
ATOM      7  O   UNL     1      35.388 -15.847 -23.181  0.00  0.00    -0.246 OA
BRANCH   7  10
ATOM      8  F   UNL     1      35.492 -18.036 -23.635  0.00  0.00    -0.166 F 
ATOM      9  F   UNL     1      35.149 -16.647 -25.276  0.00  0.00    -0.166 F 
ATOM     10  C   UNL     1      34.852 -16.890 -23.976  0.00  0.00    +0.454 C 
ENDBRANCH   7  10
ENDBRANCH   3   7
TORSDOF 3
ENDMDL
MODEL 7
REMARK VINA RESULT:      -5.0      2.115      3.611
REMARK  Name = 3226
REMARK  3 active torsions:
REMARK  status: ('A' for Active; 'I' for Inactive)
REMARK    1  A    between atoms: C_3  and  C_6
REMARK    2  A    between atoms: C_3  and  O_7
REMARK    3  A    between atoms: O_7  and  C_10
REMARK                            x       y       z     vdW  Elec       q    Type
REMARK                         _______ _______ _______ _____ _____    ______ ____
ROOT
ATOM      1  F   UNL     1      34.112 -17.656 -21.017  0.00  0.00    -0.170 F 
ATOM      2  F   UNL     1      33.822 -19.695 -21.757  0.00  0.00    -0.170 F 
ATOM      3  C   UNL     1      34.757 -18.753 -21.489  0.00  0.00    +0.414 C 
ENDROOT
BRANCH   3   6
ATOM      4 CL   UNL     1      34.857 -19.210 -24.172  0.00  0.00    -0.068 Cl
ATOM      5  F   UNL     1      35.404 -17.037 -22.934  0.00  0.00    -0.210 F 
ATOM      6  C   UNL     1      35.513 -18.380 -22.745  0.00  0.00    +0.329 C 
ENDBRANCH   3   6
BRANCH   3   7
ATOM      7  O   UNL     1      35.643 -19.225 -20.481  0.00  0.00    -0.246 OA
BRANCH   7  10
ATOM      8  F   UNL     1      34.864 -21.007 -19.371  0.00  0.00    -0.166 F 
ATOM      9  F   UNL     1      36.927 -21.032 -20.067  0.00  0.00    -0.166 F 
ATOM     10  C   UNL     1      35.673 -20.639 -20.397  0.00  0.00    +0.454 C 
ENDBRANCH   7  10
ENDBRANCH   3   7
TORSDOF 3
ENDMDL
MODEL 8
REMARK VINA RESULT:      -5.0      2.395      3.109
REMARK  Name = 3226
REMARK  3 active torsions:
REMARK  status: ('A' for Active; 'I' for Inactive)
REMARK    1  A    between atoms: C_3  and  C_6
REMARK    2  A    between atoms: C_3  and  O_7
REMARK    3  A    between atoms: O_7  and  C_10
REMARK                            x       y       z     vdW  Elec       q    Type
REMARK                         _______ _______ _______ _____ _____    ______ ____
ROOT
ATOM      1  F   UNL     1      36.050 -18.334 -21.075  0.00  0.00    -0.170 F 
ATOM      2  F   UNL     1      34.128 -17.372 -21.482  0.00  0.00    -0.170 F 
ATOM      3  C   UNL     1      34.974 -18.343 -21.901  0.00  0.00    +0.414 C 
ENDROOT
BRANCH   3   6
ATOM      4 CL   UNL     1      34.597 -19.114 -24.486  0.00  0.00    -0.068 Cl
ATOM      5  F   UNL     1      35.169 -16.774 -23.620  0.00  0.00    -0.210 F 
ATOM      6  C   UNL     1      35.436 -18.073 -23.316  0.00  0.00    +0.329 C 
ENDBRANCH   3   6
BRANCH   3   7
ATOM      7  O   UNL     1      34.339 -19.612 -21.805  0.00  0.00    -0.246 OA
BRANCH   7  10
ATOM      8  F   UNL     1      33.973 -20.535 -19.798  0.00  0.00    -0.166 F 
ATOM      9  F   UNL     1      32.283 -20.259 -21.143  0.00  0.00    -0.166 F 
ATOM     10  C   UNL     1      33.437 -19.692 -20.715  0.00  0.00    +0.454 C 
ENDBRANCH   7  10
ENDBRANCH   3   7
TORSDOF 3
ENDMDL
MODEL 9
REMARK VINA RESULT:      -4.9      1.861      3.038
REMARK  Name = 3226
REMARK  3 active torsions:
REMARK  status: ('A' for Active; 'I' for Inactive)
REMARK    1  A    between atoms: C_3  and  C_6
REMARK    2  A    between atoms: C_3  and  O_7
REMARK    3  A    between atoms: O_7  and  C_10
REMARK                            x       y       z     vdW  Elec       q    Type
REMARK                         _______ _______ _______ _____ _____    ______ ____
ROOT
ATOM      1  F   UNL     1      34.309 -17.883 -21.046  0.00  0.00    -0.170 F 
ATOM      2  F   UNL     1      36.235 -18.680 -21.711  0.00  0.00    -0.170 F 
ATOM      3  C   UNL     1      34.940 -19.003 -21.480  0.00  0.00    +0.414 C 
ENDROOT
BRANCH   3   6
ATOM      4 CL   UNL     1      33.161 -20.605 -20.181  0.00  0.00    -0.068 Cl
ATOM      5  F   UNL     1      35.587 -21.140 -20.797  0.00  0.00    -0.210 F 
ATOM      6  C   UNL     1      34.840 -20.071 -20.413  0.00  0.00    +0.329 C 
ENDBRANCH   3   6
BRANCH   3   7
ATOM      7  O   UNL     1      34.325 -19.430 -22.689  0.00  0.00    -0.246 OA
BRANCH   7  10
ATOM      8  F   UNL     1      34.320 -17.764 -24.185  0.00  0.00    -0.166 F 
ATOM      9  F   UNL     1      34.793 -19.777 -24.867  0.00  0.00    -0.166 F 
ATOM     10  C   UNL     1      34.963 -18.909 -23.842  0.00  0.00    +0.454 C 
ENDBRANCH   7  10
ENDBRANCH   3   7
TORSDOF 3
ENDMDL
