MODEL 1
REMARK VINA RESULT:      -5.7      0.000      0.000
REMARK  Name = 5287600
REMARK  6 active torsions:
REMARK  status: ('A' for Active; 'I' for Inactive)
REMARK    1  A    between atoms: CA_1  and  N_2
REMARK    2  A    between atoms: CA_1  and  C_7
REMARK    3  A    between atoms: CA_1  and  C_10
REMARK    4  A    between atoms: C_7  and  O_8
REMARK    5  A    between atoms: C_10  and  C_13
REMARK    6  A    between atoms: C_13  and  O_14
REMARK                            x       y       z     vdW  Elec       q    Type
REMARK                         _______ _______ _______ _____ _____    ______ ____
ROOT
ATOM      1  CA  UNL     1      39.065 -25.263 -14.101  0.00  0.00    +0.046 C 
ENDROOT
BRANCH   1   2
ATOM      2  N   UNL     1      38.599 -26.168 -13.054  0.00  0.00    +0.389 N 
ATOM      3  H1  UNL     1      37.626 -26.421 -13.230  0.00  0.00    -0.088 HD
ATOM      4  H2  UNL     1      38.671 -25.706 -12.148  0.00  0.00    -0.088 HD
ATOM      5  H3  UNL     1      39.174 -27.011 -13.052  0.00  0.00    -0.088 HD
ENDBRANCH   1   2
BRANCH   1   7
ATOM      6  OXT UNL     1      41.139 -26.553 -14.094  0.00  0.00    -0.253 OA
ATOM      7  C   UNL     1      40.278 -25.946 -14.718  0.00  0.00    +0.293 C 
BRANCH   7   8
ATOM      8  O   UNL     1      40.304 -25.817 -16.071  0.00  0.00    -0.482 OA
ATOM      9  H   UNL     1      41.022 -25.382 -16.487  0.00  0.00    +0.295 HD
ENDBRANCH   7   8
ENDBRANCH   1   7
BRANCH   1  10
ATOM     10  C   UNL     1      37.972 -24.968 -15.157  0.00  0.00    +0.089 C 
ATOM     11  C   UNL     1      37.290 -23.615 -14.946  0.00  0.00    +0.010 C 
BRANCH  10  13
ATOM     12  O   UNL     1      36.895 -27.070 -15.775  0.00  0.00    -0.250 OA
ATOM     13  C   UNL     1      36.887 -26.038 -15.117  0.00  0.00    +0.312 C 
BRANCH  13  14
ATOM     14  O   UNL     1      35.896 -25.734 -14.238  0.00  0.00    -0.480 OA
ATOM     15  H   UNL     1      35.995 -25.941 -13.330  0.00  0.00    +0.295 HD
ENDBRANCH  13  14
ENDBRANCH  10  13
ENDBRANCH   1  10
TORSDOF 6
ENDMDL
MODEL 2
REMARK VINA RESULT:      -5.5      2.364      2.924
REMARK  Name = 5287600
REMARK  6 active torsions:
REMARK  status: ('A' for Active; 'I' for Inactive)
REMARK    1  A    between atoms: CA_1  and  N_2
REMARK    2  A    between atoms: CA_1  and  C_7
REMARK    3  A    between atoms: CA_1  and  C_10
REMARK    4  A    between atoms: C_7  and  O_8
REMARK    5  A    between atoms: C_10  and  C_13
REMARK    6  A    between atoms: C_13  and  O_14
REMARK                            x       y       z     vdW  Elec       q    Type
REMARK                         _______ _______ _______ _____ _____    ______ ____
ROOT
ATOM      1  CA  UNL     1      38.617 -25.271 -14.585  0.00  0.00    +0.046 C 
ENDROOT
BRANCH   1   2
ATOM      2  N   UNL     1      38.084 -24.071 -15.227  0.00  0.00    +0.389 N 
ATOM      3  H1  UNL     1      37.525 -23.545 -14.554  0.00  0.00    -0.088 HD
ATOM      4  H2  UNL     1      37.500 -24.340 -16.018  0.00  0.00    -0.088 HD
ATOM      5  H3  UNL     1      38.856 -23.490 -15.555  0.00  0.00    -0.088 HD
ENDBRANCH   1   2
BRANCH   1   7
ATOM      6  OXT UNL     1      40.970 -24.731 -14.215  0.00  0.00    -0.253 OA
ATOM      7  C   UNL     1      40.107 -25.270 -14.896  0.00  0.00    +0.293 C 
BRANCH   7   8
ATOM      8  O   UNL     1      40.392 -25.959 -16.034  0.00  0.00    -0.482 OA
ATOM      9  H   UNL     1      40.414 -26.895 -16.022  0.00  0.00    +0.295 HD
ENDBRANCH   7   8
ENDBRANCH   1   7
BRANCH   1  10
ATOM     10  C   UNL     1      38.347 -25.295 -13.061  0.00  0.00    +0.089 C 
ATOM     11  C   UNL     1      37.257 -26.292 -12.664  0.00  0.00    +0.010 C 
BRANCH  10  13
ATOM     12  O   UNL     1      36.827 -23.399 -12.817  0.00  0.00    -0.250 OA
ATOM     13  C   UNL     1      37.908 -23.919 -12.573  0.00  0.00    +0.312 C 
BRANCH  13  14
ATOM     14  O   UNL     1      38.854 -23.321 -11.801  0.00  0.00    -0.480 OA
ATOM     15  H   UNL     1      38.746 -23.285 -10.871  0.00  0.00    +0.295 HD
ENDBRANCH  13  14
ENDBRANCH  10  13
ENDBRANCH   1  10
TORSDOF 6
ENDMDL
MODEL 3
REMARK VINA RESULT:      -5.5      1.660      3.977
REMARK  Name = 5287600
REMARK  6 active torsions:
REMARK  status: ('A' for Active; 'I' for Inactive)
REMARK    1  A    between atoms: CA_1  and  N_2
REMARK    2  A    between atoms: CA_1  and  C_7
REMARK    3  A    between atoms: CA_1  and  C_10
REMARK    4  A    between atoms: C_7  and  O_8
REMARK    5  A    between atoms: C_10  and  C_13
REMARK    6  A    between atoms: C_13  and  O_14
REMARK                            x       y       z     vdW  Elec       q    Type
REMARK                         _______ _______ _______ _____ _____    ______ ____
ROOT
ATOM      1  CA  UNL     1      37.683 -24.440 -14.795  0.00  0.00    +0.046 C 
ENDROOT
BRANCH   1   2
ATOM      2  N   UNL     1      38.268 -23.568 -15.811  0.00  0.00    +0.389 N 
ATOM      3  H1  UNL     1      38.805 -24.129 -16.473  0.00  0.00    -0.088 HD
ATOM      4  H2  UNL     1      38.883 -22.889 -15.363  0.00  0.00    -0.088 HD
ATOM      5  H3  UNL     1      37.524 -23.077 -16.307  0.00  0.00    -0.088 HD
ENDBRANCH   1   2
BRANCH   1   7
ATOM      6  OXT UNL     1      35.398 -24.386 -15.657  0.00  0.00    -0.253 OA
ATOM      7  C   UNL     1      36.424 -25.015 -15.429  0.00  0.00    +0.293 C 
BRANCH   7   8
ATOM      8  O   UNL     1      36.562 -26.333 -15.736  0.00  0.00    -0.482 OA
ATOM      9  H   UNL     1      36.950 -26.586 -16.551  0.00  0.00    +0.295 HD
ENDBRANCH   7   8
ENDBRANCH   1   7
BRANCH   1  10
ATOM     10  C   UNL     1      38.658 -25.553 -14.340  0.00  0.00    +0.089 C 
ATOM     11  C   UNL     1      38.764 -25.667 -12.818  0.00  0.00    +0.010 C 
BRANCH  10  13
ATOM     12  O   UNL     1      40.918 -24.628 -14.309  0.00  0.00    -0.250 OA
ATOM     13  C   UNL     1      40.060 -25.290 -14.879  0.00  0.00    +0.312 C 
BRANCH  13  14
ATOM     14  O   UNL     1      40.274 -25.898 -16.075  0.00  0.00    -0.480 OA
ATOM     15  H   UNL     1      40.987 -26.498 -16.175  0.00  0.00    +0.295 HD
ENDBRANCH  13  14
ENDBRANCH  10  13
ENDBRANCH   1  10
TORSDOF 6
ENDMDL
MODEL 4
REMARK VINA RESULT:      -5.4      2.458      3.312
REMARK  Name = 5287600
REMARK  6 active torsions:
REMARK  status: ('A' for Active; 'I' for Inactive)
REMARK    1  A    between atoms: CA_1  and  N_2
REMARK    2  A    between atoms: CA_1  and  C_7
REMARK    3  A    between atoms: CA_1  and  C_10
REMARK    4  A    between atoms: C_7  and  O_8
REMARK    5  A    between atoms: C_10  and  C_13
REMARK    6  A    between atoms: C_13  and  O_14
REMARK                            x       y       z     vdW  Elec       q    Type
REMARK                         _______ _______ _______ _____ _____    ______ ____
ROOT
ATOM      1  CA  UNL     1      38.046 -24.220 -13.474  0.00  0.00    +0.046 C 
ENDROOT
BRANCH   1   2
ATOM      2  N   UNL     1      36.666 -24.142 -13.946  0.00  0.00    +0.389 N 
ATOM      3  H1  UNL     1      36.473 -23.197 -14.281  0.00  0.00    -0.088 HD
ATOM      4  H2  UNL     1      36.031 -24.367 -13.180  0.00  0.00    -0.088 HD
ATOM      5  H3  UNL     1      36.529 -24.807 -14.708  0.00  0.00    -0.088 HD
ENDBRANCH   1   2
BRANCH   1   7
ATOM      6  OXT UNL     1      38.357 -22.704 -11.584  0.00  0.00    -0.253 OA
ATOM      7  C   UNL     1      37.999 -23.793 -12.012  0.00  0.00    +0.293 C 
BRANCH   7   8
ATOM      8  O   UNL     1      37.495 -24.769 -11.211  0.00  0.00    -0.482 OA
ATOM      9  H   UNL     1      36.578 -24.791 -11.020  0.00  0.00    +0.295 HD
ENDBRANCH   7   8
ENDBRANCH   1   7
BRANCH   1  10
ATOM     10  C   UNL     1      38.649 -25.636 -13.641  0.00  0.00    +0.089 C 
ATOM     11  C   UNL     1      39.844 -25.666 -14.594  0.00  0.00    +0.010 C 
BRANCH  10  13
ATOM     12  O   UNL     1      37.516 -26.955 -15.356  0.00  0.00    -0.250 OA
ATOM     13  C   UNL     1      37.603 -26.602 -14.187  0.00  0.00    +0.312 C 
BRANCH  13  14
ATOM     14  O   UNL     1      36.770 -27.061 -13.216  0.00  0.00    -0.480 OA
ATOM     15  H   UNL     1      35.898 -27.326 -13.434  0.00  0.00    +0.295 HD
ENDBRANCH  13  14
ENDBRANCH  10  13
ENDBRANCH   1  10
TORSDOF 6
ENDMDL
MODEL 5
REMARK VINA RESULT:      -5.4      2.383      3.624
REMARK  Name = 5287600
REMARK  6 active torsions:
REMARK  status: ('A' for Active; 'I' for Inactive)
REMARK    1  A    between atoms: CA_1  and  N_2
REMARK    2  A    between atoms: CA_1  and  C_7
REMARK    3  A    between atoms: CA_1  and  C_10
REMARK    4  A    between atoms: C_7  and  O_8
REMARK    5  A    between atoms: C_10  and  C_13
REMARK    6  A    between atoms: C_13  and  O_14
REMARK                            x       y       z     vdW  Elec       q    Type
REMARK                         _______ _______ _______ _____ _____    ______ ____
ROOT
ATOM      1  CA  UNL     1      37.211 -25.282 -13.564  0.00  0.00    +0.046 C 
ENDROOT
BRANCH   1   2
ATOM      2  N   UNL     1      36.977 -26.571 -12.920  0.00  0.00    +0.389 N 
ATOM      3  H1  UNL     1      36.898 -26.439 -11.911  0.00  0.00    -0.088 HD
ATOM      4  H2  UNL     1      37.756 -27.198 -13.120  0.00  0.00    -0.088 HD
ATOM      5  H3  UNL     1      36.112 -26.979 -13.277  0.00  0.00    -0.088 HD
ENDBRANCH   1   2
BRANCH   1   7
ATOM      6  OXT UNL     1      35.751 -24.864 -15.478  0.00  0.00    -0.253 OA
ATOM      7  C   UNL     1      36.713 -25.446 -14.995  0.00  0.00    +0.293 C 
BRANCH   7   8
ATOM      8  O   UNL     1      37.475 -26.322 -15.703  0.00  0.00    -0.482 OA
ATOM      9  H   UNL     1      38.149 -26.811 -15.273  0.00  0.00    +0.295 HD
ENDBRANCH   7   8
ENDBRANCH   1   7
BRANCH   1  10
ATOM     10  C   UNL     1      36.495 -24.118 -12.837  0.00  0.00    +0.089 C 
ATOM     11  C   UNL     1      37.428 -23.323 -11.922  0.00  0.00    +0.010 C 
BRANCH  10  13
ATOM     12  O   UNL     1      35.438 -24.921 -10.787  0.00  0.00    -0.250 OA
ATOM     13  C   UNL     1      35.352 -24.648 -11.976  0.00  0.00    +0.312 C 
BRANCH  13  14
ATOM     14  O   UNL     1      34.193 -24.767 -12.677  0.00  0.00    -0.480 OA
ATOM     15  H   UNL     1      33.649 -25.520 -12.558  0.00  0.00    +0.295 HD
ENDBRANCH  13  14
ENDBRANCH  10  13
ENDBRANCH   1  10
TORSDOF 6
ENDMDL
MODEL 6
REMARK VINA RESULT:      -5.3      2.529      3.314
REMARK  Name = 5287600
REMARK  6 active torsions:
REMARK  status: ('A' for Active; 'I' for Inactive)
REMARK    1  A    between atoms: CA_1  and  N_2
REMARK    2  A    between atoms: CA_1  and  C_7
REMARK    3  A    between atoms: CA_1  and  C_10
REMARK    4  A    between atoms: C_7  and  O_8
REMARK    5  A    between atoms: C_10  and  C_13
REMARK    6  A    between atoms: C_13  and  O_14
REMARK                            x       y       z     vdW  Elec       q    Type
REMARK                         _______ _______ _______ _____ _____    ______ ____
ROOT
ATOM      1  CA  UNL     1      36.978 -24.432 -13.021  0.00  0.00    +0.046 C 
ENDROOT
BRANCH   1   2
ATOM      2  N   UNL     1      36.513 -25.761 -12.633  0.00  0.00    +0.389 N 
ATOM      3  H1  UNL     1      35.674 -25.675 -12.058  0.00  0.00    -0.088 HD
ATOM      4  H2  UNL     1      37.242 -26.235 -12.101  0.00  0.00    -0.088 HD
ATOM      5  H3  UNL     1      36.297 -26.304 -13.470  0.00  0.00    -0.088 HD
ENDBRANCH   1   2
BRANCH   1   7
ATOM      6  OXT UNL     1      38.682 -23.243 -11.736  0.00  0.00    -0.253 OA
ATOM      7  C   UNL     1      37.615 -23.844 -11.769  0.00  0.00    +0.293 C 
BRANCH   7   8
ATOM      8  O   UNL     1      36.853 -24.050 -10.662  0.00  0.00    -0.482 OA
ATOM      9  H   UNL     1      36.453 -23.324 -10.226  0.00  0.00    +0.295 HD
ENDBRANCH   7   8
ENDBRANCH   1   7
BRANCH   1  10
ATOM     10  C   UNL     1      37.972 -24.476 -14.207  0.00  0.00    +0.089 C 
ATOM     11  C   UNL     1      37.595 -23.515 -15.335  0.00  0.00    +0.010 C 
BRANCH  10  13
ATOM     12  O   UNL     1      38.888 -26.715 -14.538  0.00  0.00    -0.250 OA
ATOM     13  C   UNL     1      38.035 -25.878 -14.801  0.00  0.00    +0.312 C 
BRANCH  13  14
ATOM     14  O   UNL     1      37.007 -26.120 -15.658  0.00  0.00    -0.480 OA
ATOM     15  H   UNL     1      37.049 -26.849 -16.246  0.00  0.00    +0.295 HD
ENDBRANCH  13  14
ENDBRANCH  10  13
ENDBRANCH   1  10
TORSDOF 6
ENDMDL
MODEL 7
REMARK VINA RESULT:      -5.3      2.187      3.910
REMARK  Name = 5287600
REMARK  6 active torsions:
REMARK  status: ('A' for Active; 'I' for Inactive)
REMARK    1  A    between atoms: CA_1  and  N_2
REMARK    2  A    between atoms: CA_1  and  C_7
REMARK    3  A    between atoms: CA_1  and  C_10
REMARK    4  A    between atoms: C_7  and  O_8
REMARK    5  A    between atoms: C_10  and  C_13
REMARK    6  A    between atoms: C_13  and  O_14
REMARK                            x       y       z     vdW  Elec       q    Type
REMARK                         _______ _______ _______ _____ _____    ______ ____
ROOT
ATOM      1  CA  UNL     1      36.873 -24.276 -14.498  0.00  0.00    +0.046 C 
ENDROOT
BRANCH   1   2
ATOM      2  N   UNL     1      37.950 -24.125 -15.474  0.00  0.00    +0.389 N 
ATOM      3  H1  UNL     1      38.358 -25.039 -15.675  0.00  0.00    -0.088 HD
ATOM      4  H2  UNL     1      38.668 -23.507 -15.096  0.00  0.00    -0.088 HD
ATOM      5  H3  UNL     1      37.576 -23.724 -16.335  0.00  0.00    -0.088 HD
ENDBRANCH   1   2
BRANCH   1   7
ATOM      6  OXT UNL     1      35.105 -24.289 -16.183  0.00  0.00    -0.253 OA
ATOM      7  C   UNL     1      35.617 -23.774 -15.198  0.00  0.00    +0.293 C 
BRANCH   7   8
ATOM      8  O   UNL     1      35.103 -22.670 -14.594  0.00  0.00    -0.482 OA
ATOM      9  H   UNL     1      35.088 -21.851 -15.049  0.00  0.00    +0.295 HD
ENDBRANCH   7   8
ENDBRANCH   1   7
BRANCH   1  10
ATOM     10  C   UNL     1      36.716 -25.737 -14.013  0.00  0.00    +0.089 C 
ATOM     11  C   UNL     1      37.257 -25.957 -12.599  0.00  0.00    +0.010 C 
BRANCH  10  13
ATOM     12  O   UNL     1      38.564 -27.170 -14.718  0.00  0.00    -0.250 OA
ATOM     13  C   UNL     1      37.459 -26.692 -14.941  0.00  0.00    +0.312 C 
BRANCH  13  14
ATOM     14  O   UNL     1      36.743 -26.985 -16.058  0.00  0.00    -0.480 OA
ATOM     15  H   UNL     1      37.151 -26.944 -16.901  0.00  0.00    +0.295 HD
ENDBRANCH  13  14
ENDBRANCH  10  13
ENDBRANCH   1  10
TORSDOF 6
ENDMDL
MODEL 8
REMARK VINA RESULT:      -5.2      2.342      3.450
REMARK  Name = 5287600
REMARK  6 active torsions:
REMARK  status: ('A' for Active; 'I' for Inactive)
REMARK    1  A    between atoms: CA_1  and  N_2
REMARK    2  A    between atoms: CA_1  and  C_7
REMARK    3  A    between atoms: CA_1  and  C_10
REMARK    4  A    between atoms: C_7  and  O_8
REMARK    5  A    between atoms: C_10  and  C_13
REMARK    6  A    between atoms: C_13  and  O_14
REMARK                            x       y       z     vdW  Elec       q    Type
REMARK                         _______ _______ _______ _____ _____    ______ ____
ROOT
ATOM      1  CA  UNL     1      36.631 -25.396 -14.610  0.00  0.00    +0.046 C 
ENDROOT
BRANCH   1   2
ATOM      2  N   UNL     1      37.243 -24.335 -15.405  0.00  0.00    +0.389 N 
ATOM      3  H1  UNL     1      37.914 -24.742 -16.058  0.00  0.00    -0.088 HD
ATOM      4  H2  UNL     1      37.724 -23.681 -14.788  0.00  0.00    -0.088 HD
ATOM      5  H3  UNL     1      36.519 -23.840 -15.927  0.00  0.00    -0.088 HD
ENDBRANCH   1   2
BRANCH   1   7
ATOM      6  OXT UNL     1      36.599 -27.269 -16.178  0.00  0.00    -0.253 OA
ATOM      7  C   UNL     1      37.120 -26.700 -15.228  0.00  0.00    +0.293 C 
BRANCH   7   8
ATOM      8  O   UNL     1      38.232 -27.175 -14.606  0.00  0.00    -0.482 OA
ATOM      9  H   UNL     1      39.050 -26.730 -14.704  0.00  0.00    +0.295 HD
ENDBRANCH   7   8
ENDBRANCH   1   7
BRANCH   1  10
ATOM     10  C   UNL     1      36.999 -25.297 -13.110  0.00  0.00    +0.089 C 
ATOM     11  C   UNL     1      35.855 -24.758 -12.250  0.00  0.00    +0.010 C 
BRANCH  10  13
ATOM     12  O   UNL     1      39.359 -24.670 -13.150  0.00  0.00    -0.250 OA
ATOM     13  C   UNL     1      38.195 -24.373 -12.912  0.00  0.00    +0.312 C 
BRANCH  13  14
ATOM     14  O   UNL     1      37.828 -23.147 -12.453  0.00  0.00    -0.480 OA
ATOM     15  H   UNL     1      37.593 -22.472 -13.059  0.00  0.00    +0.295 HD
ENDBRANCH  13  14
ENDBRANCH  10  13
ENDBRANCH   1  10
TORSDOF 6
ENDMDL
MODEL 9
REMARK VINA RESULT:      -5.2      3.012      4.179
REMARK  Name = 5287600
REMARK  6 active torsions:
REMARK  status: ('A' for Active; 'I' for Inactive)
REMARK    1  A    between atoms: CA_1  and  N_2
REMARK    2  A    between atoms: CA_1  and  C_7
REMARK    3  A    between atoms: CA_1  and  C_10
REMARK    4  A    between atoms: C_7  and  O_8
REMARK    5  A    between atoms: C_10  and  C_13
REMARK    6  A    between atoms: C_13  and  O_14
REMARK                            x       y       z     vdW  Elec       q    Type
REMARK                         _______ _______ _______ _____ _____    ______ ____
ROOT
ATOM      1  CA  UNL     1      36.695 -24.157 -14.035  0.00  0.00    +0.046 C 
ENDROOT
BRANCH   1   2
ATOM      2  N   UNL     1      35.793 -23.162 -13.461  0.00  0.00    +0.389 N 
ATOM      3  H1  UNL     1      35.774 -23.265 -12.446  0.00  0.00    -0.088 HD
ATOM      4  H2  UNL     1      34.854 -23.298 -13.835  0.00  0.00    -0.088 HD
ATOM      5  H3  UNL     1      36.122 -22.226 -13.701  0.00  0.00    -0.088 HD
ENDBRANCH   1   2
BRANCH   1   7
ATOM      6  OXT UNL     1      36.288 -23.254 -16.268  0.00  0.00    -0.253 OA
ATOM      7  C   UNL     1      37.079 -23.616 -15.406  0.00  0.00    +0.293 C 
BRANCH   7   8
ATOM      8  O   UNL     1      38.427 -23.563 -15.575  0.00  0.00    -0.482 OA
ATOM      9  H   UNL     1      38.996 -23.642 -14.835  0.00  0.00    +0.295 HD
ENDBRANCH   7   8
ENDBRANCH   1   7
BRANCH   1  10
ATOM     10  C   UNL     1      37.938 -24.411 -13.148  0.00  0.00    +0.089 C 
ATOM     11  C   UNL     1      38.129 -25.887 -12.797  0.00  0.00    +0.010 C 
BRANCH  10  13
ATOM     12  O   UNL     1      38.307 -22.534 -11.630  0.00  0.00    -0.250 OA
ATOM     13  C   UNL     1      37.826 -23.639 -11.837  0.00  0.00    +0.312 C 
BRANCH  13  14
ATOM     14  O   UNL     1      37.098 -24.311 -10.906  0.00  0.00    -0.480 OA
ATOM     15  H   UNL     1      36.249 -24.000 -10.660  0.00  0.00    +0.295 HD
ENDBRANCH  13  14
ENDBRANCH  10  13
ENDBRANCH   1  10
TORSDOF 6
ENDMDL
