MODEL 1
REMARK VINA RESULT:     -10.2      0.000      0.000
REMARK  Name = 25023707
REMARK  2 active torsions:
REMARK  status: ('A' for Active; 'I' for Inactive)
REMARK    1  A    between atoms: C_13  and  C_28
REMARK    2  A    between atoms: C_18  and  C_25
REMARK                            x       y       z     vdW  Elec       q    Type
REMARK                         _______ _______ _______ _____ _____    ______ ____
ROOT
ATOM      1  N   UNL     1      35.166 -23.793 -15.537  0.00  0.00    -0.282 N 
ATOM      2  N   UNL     1      37.009 -24.964 -13.773  0.00  0.00    -0.250 N 
ATOM      3  N   UNL     1      34.912 -22.702 -17.589  0.00  0.00    -0.331 NA
ATOM      4  N   UNL     1      32.712 -22.131 -18.383  0.00  0.00    -0.283 NA
ATOM      5  N   UNL     1      30.813 -22.637 -17.156  0.00  0.00    -0.327 NA
ATOM      6  N   UNL     1      39.253 -24.498 -13.360  0.00  0.00    -0.181 NA
ATOM      7  N   UNL     1      38.589 -26.492 -14.540  0.00  0.00    -0.203 NA
ATOM      8  C   UNL     1      35.497 -25.224 -15.669  0.00  0.00    +0.115 C 
ATOM      9  C   UNL     1      36.168 -22.947 -14.869  0.00  0.00    +0.115 C 
ATOM     10  C   UNL     1      35.940 -25.803 -14.321  0.00  0.00    +0.123 C 
ATOM     11  C   UNL     1      36.597 -23.580 -13.543  0.00  0.00    +0.123 C 
ATOM     12  C   UNL     1      34.323 -23.229 -16.502  0.00  0.00    +0.192 C 
ATOM     13  C   UNL     1      34.057 -22.177 -18.477  0.00  0.00    +0.124 C 
ATOM     14  C   UNL     1      32.946 -23.237 -16.298  0.00  0.00    +0.199 C 
ATOM     15  C   UNL     1      38.344 -25.335 -13.896  0.00  0.00    +0.090 C 
ATOM     16  C   UNL     1      32.146 -22.662 -17.292  0.00  0.00    +0.138 C 
ATOM     17  C   UNL     1      32.347 -23.792 -15.157  0.00  0.00    +0.007 C 
ATOM     18  C   UNL     1      30.970 -23.763 -15.025  0.00  0.00    +0.095 C 
ATOM     19  C   UNL     1      30.253 -23.178 -16.048  0.00  0.00    +0.193 C 
ATOM     20  C   UNL     1      40.537 -24.888 -13.498  0.00  0.00    +0.108 C 
ATOM     21  C   UNL     1      39.895 -26.820 -14.642  0.00  0.00    +0.165 C 
ATOM     22  C   UNL     1      40.921 -26.050 -14.136  0.00  0.00    +0.022 C 
ATOM     23  N   UNL     1      28.841 -23.136 -15.938  0.00  0.00    -0.332 N 
ATOM     24  H   UNL     1      28.304 -22.723 -16.654  0.00  0.00    +0.145 HD
ATOM     25  H   UNL     1      28.397 -23.518 -15.147  0.00  0.00    +0.145 HD
ENDROOT
BRANCH  18  28
ATOM     26  O   UNL     1      30.556 -23.873 -12.709  0.00  0.00    -0.270 OA
ATOM     27  N   UNL     1      29.483 -25.415 -14.026  0.00  0.00    -0.325 N 
ATOM     28  C   UNL     1      30.344 -24.338 -13.843  0.00  0.00    +0.246 C 
ATOM     29  H   UNL     1      29.041 -25.829 -13.250  0.00  0.00    +0.145 HD
ATOM     30  H   UNL     1      29.315 -25.763 -14.931  0.00  0.00    +0.145 HD
ENDBRANCH  18  28
BRANCH  13  31
ATOM     31  C   UNL     1      34.655 -21.577 -19.704  0.00  0.00    +0.096 C 
ATOM     32  C   UNL     1      33.677 -20.562 -20.374  0.00  0.00    +0.017 C 
ATOM     33  C   UNL     1      34.996 -22.672 -20.762  0.00  0.00    +0.017 C 
ATOM     34  C   UNL     1      35.987 -20.784 -19.483  0.00  0.00    +0.017 C 
ENDBRANCH  13  31
TORSDOF 2
ENDMDL
MODEL 2
REMARK VINA RESULT:      -7.8      2.189      7.134
REMARK  Name = 25023707
REMARK  2 active torsions:
REMARK  status: ('A' for Active; 'I' for Inactive)
REMARK    1  A    between atoms: C_13  and  C_28
REMARK    2  A    between atoms: C_18  and  C_25
REMARK                            x       y       z     vdW  Elec       q    Type
REMARK                         _______ _______ _______ _____ _____    ______ ____
ROOT
ATOM      1  N   UNL     1      33.271 -23.458 -15.861  0.00  0.00    -0.282 N 
ATOM      2  N   UNL     1      30.585 -23.940 -15.203  0.00  0.00    -0.250 N 
ATOM      3  N   UNL     1      34.710 -22.453 -17.406  0.00  0.00    -0.331 NA
ATOM      4  N   UNL     1      37.087 -22.472 -17.024  0.00  0.00    -0.283 NA
ATOM      5  N   UNL     1      38.003 -23.470 -15.146  0.00  0.00    -0.327 NA
ATOM      6  N   UNL     1      28.695 -24.193 -16.540  0.00  0.00    -0.181 NA
ATOM      7  N   UNL     1      29.026 -22.211 -15.210  0.00  0.00    -0.203 NA
ATOM      8  C   UNL     1      32.539 -22.490 -15.025  0.00  0.00    +0.115 C 
ATOM      9  C   UNL     1      32.456 -24.324 -16.729  0.00  0.00    +0.115 C 
ATOM     10  C   UNL     1      31.410 -23.185 -14.256  0.00  0.00    +0.123 C 
ATOM     11  C   UNL     1      31.330 -24.973 -15.923  0.00  0.00    +0.123 C 
ATOM     12  C   UNL     1      34.574 -23.126 -16.251  0.00  0.00    +0.192 C 
ATOM     13  C   UNL     1      35.978 -22.162 -17.727  0.00  0.00    +0.124 C 
ATOM     14  C   UNL     1      35.646 -23.498 -15.444  0.00  0.00    +0.199 C 
ATOM     15  C   UNL     1      29.381 -23.425 -15.672  0.00  0.00    +0.090 C 
ATOM     16  C   UNL     1      36.929 -23.142 -15.876  0.00  0.00    +0.138 C 
ATOM     17  C   UNL     1      35.487 -24.200 -14.240  0.00  0.00    +0.007 C 
ATOM     18  C   UNL     1      36.602 -24.535 -13.491  0.00  0.00    +0.095 C 
ATOM     19  C   UNL     1      37.829 -24.148 -13.986  0.00  0.00    +0.193 C 
ATOM     20  C   UNL     1      27.533 -23.663 -16.974  0.00  0.00    +0.108 C 
ATOM     21  C   UNL     1      27.854 -21.741 -15.686  0.00  0.00    +0.165 C 
ATOM     22  C   UNL     1      27.058 -22.430 -16.577  0.00  0.00    +0.022 C 
ATOM     23  N   UNL     1      38.988 -24.478 -13.239  0.00  0.00    -0.332 N 
ATOM     24  H   UNL     1      39.878 -24.215 -13.569  0.00  0.00    +0.145 HD
ATOM     25  H   UNL     1      38.903 -24.971 -12.391  0.00  0.00    +0.145 HD
ENDROOT
BRANCH  18  28
ATOM     26  O   UNL     1      36.987 -26.366 -12.062  0.00  0.00    -0.270 OA
ATOM     27  N   UNL     1      35.670 -24.676 -11.245  0.00  0.00    -0.325 N 
ATOM     28  C   UNL     1      36.442 -25.264 -12.241  0.00  0.00    +0.246 C 
ATOM     29  H   UNL     1      35.539 -25.138 -10.386  0.00  0.00    +0.145 HD
ATOM     30  H   UNL     1      35.255 -23.796 -11.398  0.00  0.00    +0.145 HD
ENDBRANCH  18  28
BRANCH  13  31
ATOM     31  C   UNL     1      36.189 -21.416 -19.001  0.00  0.00    +0.096 C 
ATOM     32  C   UNL     1      37.045 -20.132 -18.771  0.00  0.00    +0.017 C 
ATOM     33  C   UNL     1      34.831 -20.971 -19.628  0.00  0.00    +0.017 C 
ATOM     34  C   UNL     1      36.927 -22.210 -20.130  0.00  0.00    +0.017 C 
ENDBRANCH  13  31
TORSDOF 2
ENDMDL
