MODEL 1
REMARK VINA RESULT:      -8.0      0.000      0.000
REMARK  Name = 247978
REMARK  7 active torsions:
REMARK  status: ('A' for Active; 'I' for Inactive)
REMARK    1  A    between atoms: C_1  and  C_2
REMARK    2  A    between atoms: C_1  and  O_11
REMARK    3  A    between atoms: C_1  and  CA_13
REMARK    4  A    between atoms: C_7  and  N_10
REMARK    5  A    between atoms: CA_13  and  N_15
REMARK    6  A    between atoms: CA_13  and  C_19
REMARK    7  A    between atoms: C_19  and  O_20
REMARK                            x       y       z     vdW  Elec       q    Type
REMARK                         _______ _______ _______ _____ _____    ______ ____
ROOT
ATOM      1  C   UNL     1      35.393 -17.667 -21.833  0.00  0.00    +0.153 C 
ENDROOT
BRANCH   1   2
ATOM      2  C   UNL     1      34.909 -18.924 -21.145  0.00  0.00    +0.006 C 
ATOM      3  C   UNL     1      35.838 -19.827 -20.655  0.00  0.00    -0.000 C 
ATOM      4  C   UNL     1      33.549 -19.146 -21.018  0.00  0.00    -0.000 C 
ATOM      5  C   UNL     1      35.392 -20.987 -20.020  0.00  0.00    +0.024 C 
ATOM      6  C   UNL     1      33.103 -20.305 -20.383  0.00  0.00    +0.024 C 
ATOM      7  C   UNL     1      34.025 -21.225 -19.884  0.00  0.00    +0.143 C 
BRANCH   7  10
ATOM      8  O   UNL     1      34.130 -23.497 -19.503  0.00  0.00    -0.126 OA
ATOM      9  O   UNL     1      32.624 -22.324 -18.418  0.00  0.00    -0.126 OA
ATOM     10  N   UNL     1      33.571 -22.405 -19.237  0.00  0.00    +0.058 N 
ENDBRANCH   7  10
ENDBRANCH   1   2
BRANCH   1  11
ATOM     11  O   UNL     1      35.695 -18.021 -23.187  0.00  0.00    -0.378 OA
ATOM     12  H   UNL     1      34.993 -17.692 -23.771  0.00  0.00    +0.211 HD
ENDBRANCH   1  11
BRANCH   1  13
ATOM     13  CA  UNL     1      34.369 -16.513 -21.820  0.00  0.00    +0.132 C 
BRANCH  13  15
ATOM     14  O   UNL     1      32.389 -14.647 -22.833  0.00  0.00    -0.275 OA
ATOM     15  N   UNL     1      34.354 -15.861 -23.116  0.00  0.00    -0.301 N 
ATOM     16  C   UNL     1      33.361 -14.984 -23.505  0.00  0.00    +0.223 C 
ATOM     17  C   UNL     1      33.602 -14.433 -24.884  0.00  0.00    +0.095 C 
ATOM     18  H   UNL     1      35.086 -16.052 -23.747  0.00  0.00    +0.150 HD
ENDBRANCH  13  15
BRANCH  13  19
ATOM     19  C   UNL     1      34.616 -15.467 -20.727  0.00  0.00    +0.159 C 
BRANCH  19  20
ATOM     20  O   UNL     1      33.399 -15.026 -20.138  0.00  0.00    -0.380 OA
ATOM     21  H   UNL     1      32.690 -15.058 -20.799  0.00  0.00    +0.211 HD
ENDBRANCH  19  20
ENDBRANCH  13  19
ENDBRANCH   1  13
TORSDOF 7
ENDMDL
MODEL 2
REMARK VINA RESULT:      -8.0      1.473      2.334
REMARK  Name = 247978
REMARK  7 active torsions:
REMARK  status: ('A' for Active; 'I' for Inactive)
REMARK    1  A    between atoms: C_1  and  C_2
REMARK    2  A    between atoms: C_1  and  O_11
REMARK    3  A    between atoms: C_1  and  CA_13
REMARK    4  A    between atoms: C_7  and  N_10
REMARK    5  A    between atoms: CA_13  and  N_15
REMARK    6  A    between atoms: CA_13  and  C_19
REMARK    7  A    between atoms: C_19  and  O_20
REMARK                            x       y       z     vdW  Elec       q    Type
REMARK                         _______ _______ _______ _____ _____    ______ ____
ROOT
ATOM      1  C   UNL     1      34.330 -17.688 -21.712  0.00  0.00    +0.153 C 
ENDROOT
BRANCH   1   2
ATOM      2  C   UNL     1      34.350 -19.020 -20.996  0.00  0.00    +0.006 C 
ATOM      3  C   UNL     1      35.567 -19.590 -20.662  0.00  0.00    -0.000 C 
ATOM      4  C   UNL     1      33.152 -19.641 -20.687  0.00  0.00    -0.000 C 
ATOM      5  C   UNL     1      35.585 -20.820 -20.002  0.00  0.00    +0.024 C 
ATOM      6  C   UNL     1      33.170 -20.870 -20.026  0.00  0.00    +0.024 C 
ATOM      7  C   UNL     1      34.388 -21.458 -19.683  0.00  0.00    +0.143 C 
BRANCH   7  10
ATOM      8  O   UNL     1      34.886 -22.767 -17.852  0.00  0.00    -0.126 OA
ATOM      9  O   UNL     1      33.943 -23.719 -19.591  0.00  0.00    -0.126 OA
ATOM     10  N   UNL     1      34.406 -22.708 -19.010  0.00  0.00    +0.058 N 
ENDBRANCH   7  10
ENDBRANCH   1   2
BRANCH   1  11
ATOM     11  O   UNL     1      35.081 -16.771 -20.909  0.00  0.00    -0.378 OA
ATOM     12  H   UNL     1      35.200 -15.939 -21.395  0.00  0.00    +0.211 HD
ENDBRANCH   1  11
BRANCH   1  13
ATOM     13  CA  UNL     1      34.925 -17.733 -23.135  0.00  0.00    +0.132 C 
BRANCH  13  15
ATOM     14  O   UNL     1      34.933 -14.831 -23.162  0.00  0.00    -0.275 OA
ATOM     15  N   UNL     1      34.165 -16.858 -24.008  0.00  0.00    -0.301 N 
ATOM     16  C   UNL     1      34.240 -15.481 -23.941  0.00  0.00    +0.223 C 
ATOM     17  C   UNL     1      33.370 -14.817 -24.974  0.00  0.00    +0.095 C 
ATOM     18  H   UNL     1      33.570 -17.265 -24.679  0.00  0.00    +0.150 HD
ENDBRANCH  13  15
BRANCH  13  19
ATOM     19  C   UNL     1      34.983 -19.137 -23.747  0.00  0.00    +0.159 C 
BRANCH  19  20
ATOM     20  O   UNL     1      34.389 -19.171 -25.038  0.00  0.00    -0.380 OA
ATOM     21  H   UNL     1      35.077 -19.058 -25.714  0.00  0.00    +0.211 HD
ENDBRANCH  19  20
ENDBRANCH  13  19
ENDBRANCH   1  13
TORSDOF 7
ENDMDL
MODEL 3
REMARK VINA RESULT:      -7.9      7.975     10.128
REMARK  Name = 247978
REMARK  7 active torsions:
REMARK  status: ('A' for Active; 'I' for Inactive)
REMARK    1  A    between atoms: C_1  and  C_2
REMARK    2  A    between atoms: C_1  and  O_11
REMARK    3  A    between atoms: C_1  and  CA_13
REMARK    4  A    between atoms: C_7  and  N_10
REMARK    5  A    between atoms: CA_13  and  N_15
REMARK    6  A    between atoms: CA_13  and  C_19
REMARK    7  A    between atoms: C_19  and  O_20
REMARK                            x       y       z     vdW  Elec       q    Type
REMARK                         _______ _______ _______ _____ _____    ______ ____
ROOT
ATOM      1  C   UNL     1      33.225 -23.945 -13.899  0.00  0.00    +0.153 C 
ENDROOT
BRANCH   1   2
ATOM      2  C   UNL     1      31.965 -23.743 -14.710  0.00  0.00    +0.006 C 
ATOM      3  C   UNL     1      30.779 -24.305 -14.268  0.00  0.00    -0.000 C 
ATOM      4  C   UNL     1      32.022 -23.000 -15.877  0.00  0.00    -0.000 C 
ATOM      5  C   UNL     1      29.616 -24.119 -15.016  0.00  0.00    +0.024 C 
ATOM      6  C   UNL     1      30.859 -22.813 -16.624  0.00  0.00    +0.024 C 
ATOM      7  C   UNL     1      29.656 -23.373 -16.193  0.00  0.00    +0.143 C 
BRANCH   7  10
ATOM      8  O   UNL     1      27.837 -24.189 -17.351  0.00  0.00    -0.126 OA
ATOM      9  O   UNL     1      28.094 -22.014 -17.208  0.00  0.00    -0.126 OA
ATOM     10  N   UNL     1      28.472 -23.182 -16.954  0.00  0.00    +0.058 N 
ENDBRANCH   7  10
ENDBRANCH   1   2
BRANCH   1  11
ATOM     11  O   UNL     1      32.986 -25.050 -13.022  0.00  0.00    -0.378 OA
ATOM     12  H   UNL     1      33.470 -25.828 -13.343  0.00  0.00    +0.211 HD
ENDBRANCH   1  11
BRANCH   1  13
ATOM     13  CA  UNL     1      34.480 -24.228 -14.752  0.00  0.00    +0.132 C 
BRANCH  13  15
ATOM     14  O   UNL     1      36.369 -26.192 -15.753  0.00  0.00    -0.275 OA
ATOM     15  N   UNL     1      35.424 -25.016 -13.981  0.00  0.00    -0.301 N 
ATOM     16  C   UNL     1      36.286 -25.929 -14.556  0.00  0.00    +0.223 C 
ATOM     17  C   UNL     1      37.173 -26.588 -13.535  0.00  0.00    +0.095 C 
ATOM     18  H   UNL     1      35.452 -24.893 -13.005  0.00  0.00    +0.150 HD
ENDBRANCH  13  15
BRANCH  13  19
ATOM     19  C   UNL     1      35.178 -22.969 -15.279  0.00  0.00    +0.159 C 
BRANCH  19  20
ATOM     20  O   UNL     1      35.763 -23.190 -16.556  0.00  0.00    -0.380 OA
ATOM     21  H   UNL     1      36.570 -23.719 -16.455  0.00  0.00    +0.211 HD
ENDBRANCH  19  20
ENDBRANCH  13  19
ENDBRANCH   1  13
TORSDOF 7
ENDMDL
MODEL 4
REMARK VINA RESULT:      -7.6      1.447      2.485
REMARK  Name = 247978
REMARK  7 active torsions:
REMARK  status: ('A' for Active; 'I' for Inactive)
REMARK    1  A    between atoms: C_1  and  C_2
REMARK    2  A    between atoms: C_1  and  O_11
REMARK    3  A    between atoms: C_1  and  CA_13
REMARK    4  A    between atoms: C_7  and  N_10
REMARK    5  A    between atoms: CA_13  and  N_15
REMARK    6  A    between atoms: CA_13  and  C_19
REMARK    7  A    between atoms: C_19  and  O_20
REMARK                            x       y       z     vdW  Elec       q    Type
REMARK                         _______ _______ _______ _____ _____    ______ ____
ROOT
ATOM      1  C   UNL     1      35.151 -18.611 -22.788  0.00  0.00    +0.153 C 
ENDROOT
BRANCH   1   2
ATOM      2  C   UNL     1      34.766 -19.548 -21.666  0.00  0.00    +0.006 C 
ATOM      3  C   UNL     1      33.425 -19.750 -21.383  0.00  0.00    -0.000 C 
ATOM      4  C   UNL     1      35.760 -20.188 -20.946  0.00  0.00    -0.000 C 
ATOM      5  C   UNL     1      33.069 -20.615 -20.347  0.00  0.00    +0.024 C 
ATOM      6  C   UNL     1      35.405 -21.054 -19.912  0.00  0.00    +0.024 C 
ATOM      7  C   UNL     1      34.059 -21.267 -19.613  0.00  0.00    +0.143 C 
BRANCH   7  10
ATOM      8  O   UNL     1      34.605 -22.696 -17.888  0.00  0.00    -0.126 OA
ATOM      9  O   UNL     1      32.481 -22.356 -18.330  0.00  0.00    -0.126 OA
ATOM     10  N   UNL     1      33.697 -22.149 -18.560  0.00  0.00    +0.058 N 
ENDBRANCH   7  10
ENDBRANCH   1   2
BRANCH   1  11
ATOM     11  O   UNL     1      34.184 -18.786 -23.830  0.00  0.00    -0.378 OA
ATOM     12  H   UNL     1      33.329 -19.030 -23.439  0.00  0.00    +0.211 HD
ENDBRANCH   1  11
BRANCH   1  13
ATOM     13  CA  UNL     1      35.196 -17.125 -22.374  0.00  0.00    +0.132 C 
BRANCH  13  15
ATOM     14  O   UNL     1      34.820 -15.019 -20.412  0.00  0.00    -0.275 OA
ATOM     15  N   UNL     1      33.970 -16.775 -21.681  0.00  0.00    -0.301 N 
ATOM     16  C   UNL     1      33.896 -15.750 -20.759  0.00  0.00    +0.223 C 
ATOM     17  C   UNL     1      32.504 -15.584 -20.210  0.00  0.00    +0.095 C 
ATOM     18  H   UNL     1      33.155 -17.292 -21.876  0.00  0.00    +0.150 HD
ENDBRANCH  13  15
BRANCH  13  19
ATOM     19  C   UNL     1      35.414 -16.155 -23.541  0.00  0.00    +0.159 C 
BRANCH  19  20
ATOM     20  O   UNL     1      34.232 -15.988 -24.312  0.00  0.00    -0.380 OA
ATOM     21  H   UNL     1      34.050 -16.803 -24.807  0.00  0.00    +0.211 HD
ENDBRANCH  19  20
ENDBRANCH  13  19
ENDBRANCH   1  13
TORSDOF 7
ENDMDL
MODEL 5
REMARK VINA RESULT:      -7.6      7.206     10.147
REMARK  Name = 247978
REMARK  7 active torsions:
REMARK  status: ('A' for Active; 'I' for Inactive)
REMARK    1  A    between atoms: C_1  and  C_2
REMARK    2  A    between atoms: C_1  and  O_11
REMARK    3  A    between atoms: C_1  and  CA_13
REMARK    4  A    between atoms: C_7  and  N_10
REMARK    5  A    between atoms: CA_13  and  N_15
REMARK    6  A    between atoms: CA_13  and  C_19
REMARK    7  A    between atoms: C_19  and  O_20
REMARK                            x       y       z     vdW  Elec       q    Type
REMARK                         _______ _______ _______ _____ _____    ______ ____
ROOT
ATOM      1  C   UNL     1      35.801 -24.658 -13.214  0.00  0.00    +0.153 C 
ENDROOT
BRANCH   1   2
ATOM      2  C   UNL     1      34.866 -24.155 -14.290  0.00  0.00    +0.006 C 
ATOM      3  C   UNL     1      35.397 -23.651 -15.466  0.00  0.00    -0.000 C 
ATOM      4  C   UNL     1      33.499 -24.209 -14.079  0.00  0.00    -0.000 C 
ATOM      5  C   UNL     1      34.534 -23.186 -16.459  0.00  0.00    +0.024 C 
ATOM      6  C   UNL     1      32.636 -23.745 -15.072  0.00  0.00    +0.024 C 
ATOM      7  C   UNL     1      33.155 -23.234 -16.263  0.00  0.00    +0.143 C 
BRANCH   7  10
ATOM      8  O   UNL     1      32.743 -22.500 -18.409  0.00  0.00    -0.126 OA
ATOM      9  O   UNL     1      31.059 -22.622 -17.005  0.00  0.00    -0.126 OA
ATOM     10  N   UNL     1      32.276 -22.763 -17.274  0.00  0.00    +0.058 N 
ENDBRANCH   7  10
ENDBRANCH   1   2
BRANCH   1  11
ATOM     11  O   UNL     1      36.111 -26.019 -13.532  0.00  0.00    -0.378 OA
ATOM     12  H   UNL     1      35.450 -26.604 -13.128  0.00  0.00    +0.211 HD
ENDBRANCH   1  11
BRANCH   1  13
ATOM     13  CA  UNL     1      37.109 -23.848 -13.092  0.00  0.00    +0.132 C 
BRANCH  13  15
ATOM     14  O   UNL     1      38.952 -23.962 -15.331  0.00  0.00    -0.275 OA
ATOM     15  N   UNL     1      38.247 -24.735 -13.253  0.00  0.00    -0.301 N 
ATOM     16  C   UNL     1      39.067 -24.709 -14.363  0.00  0.00    +0.223 C 
ATOM     17  C   UNL     1      40.184 -25.713 -14.263  0.00  0.00    +0.095 C 
ATOM     18  H   UNL     1      38.443 -25.383 -12.538  0.00  0.00    +0.150 HD
ENDBRANCH  13  15
BRANCH  13  19
ATOM     19  C   UNL     1      37.249 -23.076 -11.775  0.00  0.00    +0.159 C 
BRANCH  19  20
ATOM     20  O   UNL     1      38.119 -21.959 -11.912  0.00  0.00    -0.380 OA
ATOM     21  H   UNL     1      38.046 -21.394 -11.126  0.00  0.00    +0.211 HD
ENDBRANCH  19  20
ENDBRANCH  13  19
ENDBRANCH   1  13
TORSDOF 7
ENDMDL
MODEL 6
REMARK VINA RESULT:      -7.6      8.096     10.184
REMARK  Name = 247978
REMARK  7 active torsions:
REMARK  status: ('A' for Active; 'I' for Inactive)
REMARK    1  A    between atoms: C_1  and  C_2
REMARK    2  A    between atoms: C_1  and  O_11
REMARK    3  A    between atoms: C_1  and  CA_13
REMARK    4  A    between atoms: C_7  and  N_10
REMARK    5  A    between atoms: CA_13  and  N_15
REMARK    6  A    between atoms: CA_13  and  C_19
REMARK    7  A    between atoms: C_19  and  O_20
REMARK                            x       y       z     vdW  Elec       q    Type
REMARK                         _______ _______ _______ _____ _____    ______ ____
ROOT
ATOM      1  C   UNL     1      34.564 -23.550 -15.402  0.00  0.00    +0.153 C 
ENDROOT
BRANCH   1   2
ATOM      2  C   UNL     1      33.058 -23.409 -15.396  0.00  0.00    +0.006 C 
ATOM      3  C   UNL     1      32.397 -23.160 -16.587  0.00  0.00    -0.000 C 
ATOM      4  C   UNL     1      32.371 -23.534 -14.201  0.00  0.00    -0.000 C 
ATOM      5  C   UNL     1      31.008 -23.029 -16.582  0.00  0.00    +0.024 C 
ATOM      6  C   UNL     1      30.982 -23.405 -14.195  0.00  0.00    +0.024 C 
ATOM      7  C   UNL     1      30.301 -23.153 -15.386  0.00  0.00    +0.143 C 
BRANCH   7  10
ATOM      8  O   UNL     1      28.181 -24.059 -15.362  0.00  0.00    -0.126 OA
ATOM      9  O   UNL     1      28.382 -21.873 -15.395  0.00  0.00    -0.126 OA
ATOM     10  N   UNL     1      28.887 -23.021 -15.381  0.00  0.00    +0.058 N 
ENDBRANCH   7  10
ENDBRANCH   1   2
BRANCH   1  11
ATOM     11  O   UNL     1      35.105 -22.269 -15.061  0.00  0.00    -0.378 OA
ATOM     12  H   UNL     1      35.457 -21.845 -15.860  0.00  0.00    +0.211 HD
ENDBRANCH   1  11
BRANCH   1  13
ATOM     13  CA  UNL     1      35.097 -24.612 -14.418  0.00  0.00    +0.132 C 
BRANCH  13  15
ATOM     14  O   UNL     1      34.903 -24.867 -11.533  0.00  0.00    -0.275 OA
ATOM     15  N   UNL     1      35.933 -23.973 -13.418  0.00  0.00    -0.301 N 
ATOM     16  C   UNL     1      35.757 -24.160 -12.062  0.00  0.00    +0.223 C 
ATOM     17  C   UNL     1      36.773 -23.403 -11.251  0.00  0.00    +0.095 C 
ATOM     18  H   UNL     1      36.658 -23.379 -13.721  0.00  0.00    +0.150 HD
ENDBRANCH  13  15
BRANCH  13  19
ATOM     19  C   UNL     1      35.881 -25.748 -15.085  0.00  0.00    +0.159 C 
BRANCH  19  20
ATOM     20  O   UNL     1      37.166 -25.317 -15.514  0.00  0.00    -0.380 OA
ATOM     21  H   UNL     1      37.363 -24.451 -15.124  0.00  0.00    +0.211 HD
ENDBRANCH  19  20
ENDBRANCH  13  19
ENDBRANCH   1  13
TORSDOF 7
ENDMDL
MODEL 7
REMARK VINA RESULT:      -7.5      2.386      6.581
REMARK  Name = 247978
REMARK  7 active torsions:
REMARK  status: ('A' for Active; 'I' for Inactive)
REMARK    1  A    between atoms: C_1  and  C_2
REMARK    2  A    between atoms: C_1  and  O_11
REMARK    3  A    between atoms: C_1  and  CA_13
REMARK    4  A    between atoms: C_7  and  N_10
REMARK    5  A    between atoms: CA_13  and  N_15
REMARK    6  A    between atoms: CA_13  and  C_19
REMARK    7  A    between atoms: C_19  and  O_20
REMARK                            x       y       z     vdW  Elec       q    Type
REMARK                         _______ _______ _______ _____ _____    ______ ____
ROOT
ATOM      1  C   UNL     1      35.260 -17.504 -21.929  0.00  0.00    +0.153 C 
ENDROOT
BRANCH   1   2
ATOM      2  C   UNL     1      34.450 -16.228 -21.887  0.00  0.00    +0.006 C 
ATOM      3  C   UNL     1      33.542 -16.037 -20.859  0.00  0.00    -0.000 C 
ATOM      4  C   UNL     1      34.635 -15.275 -22.874  0.00  0.00    -0.000 C 
ATOM      5  C   UNL     1      32.794 -14.859 -20.820  0.00  0.00    +0.024 C 
ATOM      6  C   UNL     1      33.889 -14.097 -22.835  0.00  0.00    +0.024 C 
ATOM      7  C   UNL     1      32.969 -13.889 -21.806  0.00  0.00    +0.143 C 
BRANCH   7  10
ATOM      8  O   UNL     1      32.092 -12.010 -22.814  0.00  0.00    -0.126 OA
ATOM      9  O   UNL     1      31.678 -12.342 -20.684  0.00  0.00    -0.126 OA
ATOM     10  N   UNL     1      32.210 -12.690 -21.766  0.00  0.00    +0.058 N 
ENDBRANCH   7  10
ENDBRANCH   1   2
BRANCH   1  11
ATOM     11  O   UNL     1      35.723 -17.749 -20.597  0.00  0.00    -0.378 OA
ATOM     12  H   UNL     1      34.962 -17.844 -20.003  0.00  0.00    +0.211 HD
ENDBRANCH   1  11
BRANCH   1  13
ATOM     13  CA  UNL     1      34.469 -18.730 -22.433  0.00  0.00    +0.132 C 
BRANCH  13  15
ATOM     14  O   UNL     1      32.418 -19.568 -20.558  0.00  0.00    -0.275 OA
ATOM     15  N   UNL     1      34.553 -19.798 -21.454  0.00  0.00    -0.301 N 
ATOM     16  C   UNL     1      33.515 -20.120 -20.603  0.00  0.00    +0.223 C 
ATOM     17  C   UNL     1      33.856 -21.281 -19.708  0.00  0.00    +0.095 C 
ATOM     18  H   UNL     1      35.388 -20.317 -21.394  0.00  0.00    +0.150 HD
ENDBRANCH  13  15
BRANCH  13  19
ATOM     19  C   UNL     1      34.927 -19.254 -23.798  0.00  0.00    +0.159 C 
BRANCH  19  20
ATOM     20  O   UNL     1      34.260 -18.593 -24.865  0.00  0.00    -0.380 OA
ATOM     21  H   UNL     1      34.678 -17.731 -25.023  0.00  0.00    +0.211 HD
ENDBRANCH  19  20
ENDBRANCH  13  19
ENDBRANCH   1  13
TORSDOF 7
ENDMDL
MODEL 8
REMARK VINA RESULT:      -7.4      7.594     10.114
REMARK  Name = 247978
REMARK  7 active torsions:
REMARK  status: ('A' for Active; 'I' for Inactive)
REMARK    1  A    between atoms: C_1  and  C_2
REMARK    2  A    between atoms: C_1  and  O_11
REMARK    3  A    between atoms: C_1  and  CA_13
REMARK    4  A    between atoms: C_7  and  N_10
REMARK    5  A    between atoms: CA_13  and  N_15
REMARK    6  A    between atoms: CA_13  and  C_19
REMARK    7  A    between atoms: C_19  and  O_20
REMARK                            x       y       z     vdW  Elec       q    Type
REMARK                         _______ _______ _______ _____ _____    ______ ____
ROOT
ATOM      1  C   UNL     1      36.296 -23.752 -15.791  0.00  0.00    +0.153 C 
ENDROOT
BRANCH   1   2
ATOM      2  C   UNL     1      34.798 -23.545 -15.797  0.00  0.00    +0.006 C 
ATOM      3  C   UNL     1      34.108 -23.563 -14.597  0.00  0.00    -0.000 C 
ATOM      4  C   UNL     1      34.147 -23.341 -17.002  0.00  0.00    -0.000 C 
ATOM      5  C   UNL     1      32.725 -23.372 -14.603  0.00  0.00    +0.024 C 
ATOM      6  C   UNL     1      32.766 -23.149 -17.008  0.00  0.00    +0.024 C 
ATOM      7  C   UNL     1      32.055 -23.164 -15.807  0.00  0.00    +0.143 C 
BRANCH   7  10
ATOM      8  O   UNL     1      30.014 -23.097 -14.739  0.00  0.00    -0.126 OA
ATOM      9  O   UNL     1      30.080 -22.674 -16.892  0.00  0.00    -0.126 OA
ATOM     10  N   UNL     1      30.649 -22.969 -15.813  0.00  0.00    +0.058 N 
ENDBRANCH   7  10
ENDBRANCH   1   2
BRANCH   1  11
ATOM     11  O   UNL     1      36.883 -22.543 -15.298  0.00  0.00    -0.378 OA
ATOM     12  H   UNL     1      36.446 -22.286 -14.471  0.00  0.00    +0.211 HD
ENDBRANCH   1  11
BRANCH   1  13
ATOM     13  CA  UNL     1      36.760 -24.940 -14.922  0.00  0.00    +0.132 C 
BRANCH  13  15
ATOM     14  O   UNL     1      38.604 -25.950 -12.921  0.00  0.00    -0.275 OA
ATOM     15  N   UNL     1      38.197 -25.104 -15.050  0.00  0.00    -0.301 N 
ATOM     16  C   UNL     1      38.989 -25.596 -14.032  0.00  0.00    +0.223 C 
ATOM     17  C   UNL     1      40.436 -25.687 -14.437  0.00  0.00    +0.095 C 
ATOM     18  H   UNL     1      38.625 -24.853 -15.900  0.00  0.00    +0.150 HD
ENDBRANCH  13  15
BRANCH  13  19
ATOM     19  C   UNL     1      36.066 -26.267 -15.250  0.00  0.00    +0.159 C 
BRANCH  19  20
ATOM     20  O   UNL     1      36.787 -27.008 -16.226  0.00  0.00    -0.380 OA
ATOM     21  H   UNL     1      36.372 -26.888 -17.095  0.00  0.00    +0.211 HD
ENDBRANCH  19  20
ENDBRANCH  13  19
ENDBRANCH   1  13
TORSDOF 7
ENDMDL
MODEL 9
REMARK VINA RESULT:      -7.4      6.885      9.505
REMARK  Name = 247978
REMARK  7 active torsions:
REMARK  status: ('A' for Active; 'I' for Inactive)
REMARK    1  A    between atoms: C_1  and  C_2
REMARK    2  A    between atoms: C_1  and  O_11
REMARK    3  A    between atoms: C_1  and  CA_13
REMARK    4  A    between atoms: C_7  and  N_10
REMARK    5  A    between atoms: CA_13  and  N_15
REMARK    6  A    between atoms: CA_13  and  C_19
REMARK    7  A    between atoms: C_19  and  O_20
REMARK                            x       y       z     vdW  Elec       q    Type
REMARK                         _______ _______ _______ _____ _____    ______ ____
ROOT
ATOM      1  C   UNL     1      32.605 -23.958 -13.750  0.00  0.00    +0.153 C 
ENDROOT
BRANCH   1   2
ATOM      2  C   UNL     1      31.298 -23.775 -14.487  0.00  0.00    +0.006 C 
ATOM      3  C   UNL     1      30.594 -24.893 -14.903  0.00  0.00    -0.000 C 
ATOM      4  C   UNL     1      30.830 -22.495 -14.730  0.00  0.00    -0.000 C 
ATOM      5  C   UNL     1      29.387 -24.724 -15.584  0.00  0.00    +0.024 C 
ATOM      6  C   UNL     1      29.623 -22.326 -15.409  0.00  0.00    +0.024 C 
ATOM      7  C   UNL     1      28.902 -23.442 -15.835  0.00  0.00    +0.143 C 
BRANCH   7  10
ATOM      8  O   UNL     1      26.756 -22.612 -15.979  0.00  0.00    -0.126 OA
ATOM      9  O   UNL     1      27.538 -23.781 -17.664  0.00  0.00    -0.126 OA
ATOM     10  N   UNL     1      27.673 -23.270 -16.526  0.00  0.00    +0.058 N 
ENDBRANCH   7  10
ENDBRANCH   1   2
BRANCH   1  11
ATOM     11  O   UNL     1      32.605 -25.288 -13.221  0.00  0.00    -0.378 OA
ATOM     12  H   UNL     1      31.962 -25.829 -13.707  0.00  0.00    +0.211 HD
ENDBRANCH   1  11
BRANCH   1  13
ATOM     13  CA  UNL     1      33.855 -23.757 -14.634  0.00  0.00    +0.132 C 
BRANCH  13  15
ATOM     14  O   UNL     1      35.487 -22.759 -16.817  0.00  0.00    -0.275 OA
ATOM     15  N   UNL     1      33.449 -23.539 -16.009  0.00  0.00    -0.301 N 
ATOM     16  C   UNL     1      34.306 -23.058 -16.979  0.00  0.00    +0.223 C 
ATOM     17  C   UNL     1      33.637 -22.951 -18.322  0.00  0.00    +0.095 C 
ATOM     18  H   UNL     1      32.519 -23.744 -16.263  0.00  0.00    +0.150 HD
ENDBRANCH  13  15
BRANCH  13  19
ATOM     19  C   UNL     1      34.857 -24.916 -14.576  0.00  0.00    +0.159 C 
BRANCH  19  20
ATOM     20  O   UNL     1      35.429 -25.051 -13.282  0.00  0.00    -0.380 OA
ATOM     21  H   UNL     1      36.396 -24.994 -13.348  0.00  0.00    +0.211 HD
ENDBRANCH  19  20
ENDBRANCH  13  19
ENDBRANCH   1  13
TORSDOF 7
ENDMDL
