MODEL 1
REMARK VINA RESULT:      -7.5      0.000      0.000
REMARK  Name = 5284549
REMARK  4 active torsions:
REMARK  status: ('A' for Active; 'I' for Inactive)
REMARK    1  A    between atoms: C_6  and  N_19
REMARK    2  A    between atoms: C_12  and  S_13
REMARK    3  A    between atoms: S_13  and  N_16
REMARK    4  A    between atoms: N_19  and  C_22
REMARK                            x       y       z     vdW  Elec       q    Type
REMARK                         _______ _______ _______ _____ _____    ______ ____
ROOT
ATOM      1  S   UNL     1      31.778 -24.263 -14.263  0.00  0.00    +0.012 S 
ATOM      2  S   UNL     1      34.667 -24.421 -13.622  0.00  0.00    -0.049 S 
ATOM      3  O   UNL     1      31.483 -23.299 -13.224  0.00  0.00    -0.168 OA
ATOM      4  O   UNL     1      31.685 -25.693 -14.064  0.00  0.00    -0.168 OA
ATOM      5  C   UNL     1      30.924 -23.814 -15.788  0.00  0.00    +0.133 C 
ATOM      6  C   UNL     1      33.040 -22.812 -16.932  0.00  0.00    -0.035 C 
ATOM      7  C   UNL     1      31.583 -22.589 -16.457  0.00  0.00    +0.007 C 
ATOM      8  C   UNL     1      33.934 -23.322 -15.837  0.00  0.00    -0.017 C 
ATOM      9  C   UNL     1      33.453 -23.948 -14.708  0.00  0.00    +0.130 C 
ATOM     10  C   UNL     1      29.448 -23.557 -15.499  0.00  0.00    +0.026 C 
ATOM     11  C   UNL     1      35.361 -23.234 -15.793  0.00  0.00    +0.022 C 
ATOM     12  C   UNL     1      35.888 -23.796 -14.648  0.00  0.00    +0.152 C 
ENDROOT
BRANCH  12  13
ATOM     13  S   UNL     1      37.526 -23.990 -14.046  0.00  0.00    +0.063 S 
ATOM     14  O   UNL     1      37.774 -22.842 -13.181  0.00  0.00    -0.153 OA
ATOM     15  O   UNL     1      37.576 -25.345 -13.512  0.00  0.00    -0.153 OA
BRANCH  13  16
ATOM     16  N   UNL     1      38.615 -23.891 -15.372  0.00  0.00    -0.203 NA
ATOM     17  H   UNL     1      39.555 -23.694 -15.026  0.00  0.00    +0.144 HD
ATOM     18  H   UNL     1      38.320 -23.143 -15.999  0.00  0.00    +0.144 HD
ENDBRANCH  13  16
ENDBRANCH  12  13
BRANCH   6  19
ATOM     19  N   UNL     1      33.110 -23.752 -18.052  0.00  0.00    +0.388 N 
ATOM     20  H   UNL     1      32.166 -23.941 -18.390  0.00  0.00    -0.084 HD
ATOM     21  H   UNL     1      33.550 -24.613 -17.731  0.00  0.00    -0.084 HD
BRANCH  19  22
ATOM     22  C   UNL     1      33.902 -23.196 -19.137  0.00  0.00    -0.081 C 
ATOM     23  C   UNL     1      33.545 -21.737 -19.349  0.00  0.00    -0.026 C 
ENDBRANCH  19  22
ENDBRANCH   6  19
TORSDOF 4
ENDMDL
MODEL 2
REMARK VINA RESULT:      -7.2      3.054      5.613
REMARK  Name = 5284549
REMARK  4 active torsions:
REMARK  status: ('A' for Active; 'I' for Inactive)
REMARK    1  A    between atoms: C_6  and  N_19
REMARK    2  A    between atoms: C_12  and  S_13
REMARK    3  A    between atoms: S_13  and  N_16
REMARK    4  A    between atoms: N_19  and  C_22
REMARK                            x       y       z     vdW  Elec       q    Type
REMARK                         _______ _______ _______ _____ _____    ______ ____
ROOT
ATOM      1  S   UNL     1      34.208 -22.495 -18.769  0.00  0.00    +0.012 S 
ATOM      2  S   UNL     1      32.272 -23.570 -16.799  0.00  0.00    -0.049 S 
ATOM      3  O   UNL     1      33.497 -21.248 -18.958  0.00  0.00    -0.168 OA
ATOM      4  O   UNL     1      33.980 -23.666 -19.588  0.00  0.00    -0.168 OA
ATOM      5  C   UNL     1      35.982 -22.186 -18.643  0.00  0.00    +0.133 C 
ATOM      6  C   UNL     1      36.058 -22.428 -16.050  0.00  0.00    -0.035 C 
ATOM      7  C   UNL     1      36.341 -21.542 -17.287  0.00  0.00    +0.007 C 
ATOM      8  C   UNL     1      34.640 -22.923 -16.004  0.00  0.00    -0.017 C 
ATOM      9  C   UNL     1      33.831 -22.982 -17.118  0.00  0.00    +0.130 C 
ATOM     10  C   UNL     1      36.439 -21.314 -19.808  0.00  0.00    +0.026 C 
ATOM     11  C   UNL     1      33.934 -23.382 -14.847  0.00  0.00    +0.022 C 
ATOM     12  C   UNL     1      32.642 -23.768 -15.138  0.00  0.00    +0.152 C 
ENDROOT
BRANCH  12  13
ATOM     13  S   UNL     1      31.328 -24.404 -14.162  0.00  0.00    +0.063 S 
ATOM     14  O   UNL     1      31.957 -25.080 -13.033  0.00  0.00    -0.153 OA
ATOM     15  O   UNL     1      30.435 -23.273 -13.944  0.00  0.00    -0.153 OA
BRANCH  13  16
ATOM     16  N   UNL     1      30.486 -25.589 -15.078  0.00  0.00    -0.203 NA
ATOM     17  H   UNL     1      30.461 -26.467 -14.558  0.00  0.00    +0.144 HD
ATOM     18  H   UNL     1      30.963 -25.734 -15.967  0.00  0.00    +0.144 HD
ENDBRANCH  13  16
ENDBRANCH  12  13
BRANCH   6  19
ATOM     19  N   UNL     1      36.948 -23.590 -15.996  0.00  0.00    +0.388 N 
ATOM     20  H   UNL     1      37.686 -23.478 -16.691  0.00  0.00    -0.084 HD
ATOM     21  H   UNL     1      36.403 -24.430 -16.191  0.00  0.00    -0.084 HD
BRANCH  19  22
ATOM     22  C   UNL     1      37.547 -23.715 -14.678  0.00  0.00    -0.081 C 
ATOM     23  C   UNL     1      37.276 -25.095 -14.110  0.00  0.00    -0.026 C 
ENDBRANCH  19  22
ENDBRANCH   6  19
TORSDOF 4
ENDMDL
MODEL 3
REMARK VINA RESULT:      -7.1      2.078      5.457
REMARK  Name = 5284549
REMARK  4 active torsions:
REMARK  status: ('A' for Active; 'I' for Inactive)
REMARK    1  A    between atoms: C_6  and  N_19
REMARK    2  A    between atoms: C_12  and  S_13
REMARK    3  A    between atoms: S_13  and  N_16
REMARK    4  A    between atoms: N_19  and  C_22
REMARK                            x       y       z     vdW  Elec       q    Type
REMARK                         _______ _______ _______ _____ _____    ______ ____
ROOT
ATOM      1  S   UNL     1      35.956 -24.310 -12.730  0.00  0.00    +0.012 S 
ATOM      2  S   UNL     1      33.120 -24.084 -13.562  0.00  0.00    -0.049 S 
ATOM      3  O   UNL     1      35.926 -25.753 -12.613  0.00  0.00    -0.168 OA
ATOM      4  O   UNL     1      35.672 -23.421 -11.624  0.00  0.00    -0.168 OA
ATOM      5  C   UNL     1      37.477 -23.784 -13.546  0.00  0.00    +0.133 C 
ATOM      6  C   UNL     1      36.347 -23.361 -15.855  0.00  0.00    -0.035 C 
ATOM      7  C   UNL     1      37.442 -24.108 -15.055  0.00  0.00    +0.007 C 
ATOM      8  C   UNL     1      34.974 -23.550 -15.274  0.00  0.00    -0.017 C 
ATOM      9  C   UNL     1      34.760 -23.933 -13.968  0.00  0.00    +0.130 C 
ATOM     10  C   UNL     1      38.680 -24.435 -12.869  0.00  0.00    +0.026 C 
ATOM     11  C   UNL     1      33.729 -23.378 -15.957  0.00  0.00    +0.022 C 
ATOM     12  C   UNL     1      32.644 -23.631 -15.144  0.00  0.00    +0.152 C 
ENDROOT
BRANCH  12  13
ATOM     13  S   UNL     1      30.907 -23.586 -15.405  0.00  0.00    +0.063 S 
ATOM     14  O   UNL     1      30.499 -24.968 -15.626  0.00  0.00    -0.153 OA
ATOM     15  O   UNL     1      30.375 -22.826 -14.280  0.00  0.00    -0.153 OA
BRANCH  13  16
ATOM     16  N   UNL     1      30.591 -22.709 -16.848  0.00  0.00    -0.203 NA
ATOM     17  H   UNL     1      30.705 -21.710 -16.671  0.00  0.00    +0.144 HD
ATOM     18  H   UNL     1      29.637 -22.893 -17.156  0.00  0.00    +0.144 HD
ENDBRANCH  13  16
ENDBRANCH  12  13
BRANCH   6  19
ATOM     19  N   UNL     1      36.615 -21.923 -15.934  0.00  0.00    +0.388 N 
ATOM     20  H   UNL     1      37.266 -21.663 -15.193  0.00  0.00    -0.084 HD
ATOM     21  H   UNL     1      35.735 -21.420 -15.826  0.00  0.00    -0.084 HD
BRANCH  19  22
ATOM     22  C   UNL     1      37.195 -21.582 -17.222  0.00  0.00    -0.081 C 
ATOM     23  C   UNL     1      36.167 -21.764 -18.322  0.00  0.00    -0.026 C 
ENDBRANCH  19  22
ENDBRANCH   6  19
TORSDOF 4
ENDMDL
MODEL 4
REMARK VINA RESULT:      -6.3     12.294     13.984
REMARK  Name = 5284549
REMARK  4 active torsions:
REMARK  status: ('A' for Active; 'I' for Inactive)
REMARK    1  A    between atoms: C_6  and  N_19
REMARK    2  A    between atoms: C_12  and  S_13
REMARK    3  A    between atoms: S_13  and  N_16
REMARK    4  A    between atoms: N_19  and  C_22
REMARK                            x       y       z     vdW  Elec       q    Type
REMARK                         _______ _______ _______ _____ _____    ______ ____
ROOT
ATOM      1  S   UNL     1      31.690 -10.446 -22.135  0.00  0.00    +0.012 S 
ATOM      2  S   UNL     1      32.300 -13.233 -21.337  0.00  0.00    -0.049 S 
ATOM      3  O   UNL     1      32.322  -9.854 -20.974  0.00  0.00    -0.168 OA
ATOM      4  O   UNL     1      30.287 -10.796 -22.178  0.00  0.00    -0.168 OA
ATOM      5  C   UNL     1      32.122  -9.514 -23.619  0.00  0.00    +0.133 C 
ATOM      6  C   UNL     1      33.900 -11.233 -24.441  0.00  0.00    -0.035 C 
ATOM      7  C   UNL     1      33.586  -9.772 -24.034  0.00  0.00    +0.007 C 
ATOM      8  C   UNL     1      33.499 -12.226 -23.387  0.00  0.00    -0.017 C 
ATOM      9  C   UNL     1      32.568 -11.947 -22.410  0.00  0.00    +0.130 C 
ATOM     10  C   UNL     1      31.866  -8.027 -23.391  0.00  0.00    +0.026 C 
ATOM     11  C   UNL     1      34.004 -13.556 -23.234  0.00  0.00    +0.022 C 
ATOM     12  C   UNL     1      33.435 -14.215 -22.164  0.00  0.00    +0.152 C 
ENDROOT
BRANCH  12  13
ATOM     13  S   UNL     1      33.641 -15.826 -21.494  0.00  0.00    +0.063 S 
ATOM     14  O   UNL     1      32.386 -16.146 -20.826  0.00  0.00    -0.153 OA
ATOM     15  O   UNL     1      34.119 -16.640 -22.605  0.00  0.00    -0.153 OA
BRANCH  13  16
ATOM     16  N   UNL     1      34.872 -15.769 -20.297  0.00  0.00    -0.203 NA
ATOM     17  H   UNL     1      35.128 -16.720 -20.027  0.00  0.00    +0.144 HD
ATOM     18  H   UNL     1      34.529 -15.265 -19.480  0.00  0.00    +0.144 HD
ENDBRANCH  13  16
ENDBRANCH  12  13
BRANCH   6  19
ATOM     19  N   UNL     1      33.237 -11.604 -25.693  0.00  0.00    +0.388 N 
ATOM     20  H   UNL     1      32.876 -10.762 -26.143  0.00  0.00    -0.084 HD
ATOM     21  H   UNL     1      32.475 -12.247 -25.482  0.00  0.00    -0.084 HD
BRANCH  19  22
ATOM     22  C   UNL     1      34.172 -12.262 -26.590  0.00  0.00    -0.081 C 
ATOM     23  C   UNL     1      33.487 -13.409 -27.308  0.00  0.00    -0.026 C 
ENDBRANCH  19  22
ENDBRANCH   6  19
TORSDOF 4
ENDMDL
MODEL 5
REMARK VINA RESULT:      -6.2     10.750     12.482
REMARK  Name = 5284549
REMARK  4 active torsions:
REMARK  status: ('A' for Active; 'I' for Inactive)
REMARK    1  A    between atoms: C_6  and  N_19
REMARK    2  A    between atoms: C_12  and  S_13
REMARK    3  A    between atoms: S_13  and  N_16
REMARK    4  A    between atoms: N_19  and  C_22
REMARK                            x       y       z     vdW  Elec       q    Type
REMARK                         _______ _______ _______ _____ _____    ______ ____
ROOT
ATOM      1  S   UNL     1      34.765 -18.194 -23.401  0.00  0.00    +0.012 S 
ATOM      2  S   UNL     1      34.117 -16.183 -25.479  0.00  0.00    -0.049 S 
ATOM      3  O   UNL     1      36.178 -18.233 -23.717  0.00  0.00    -0.168 OA
ATOM      4  O   UNL     1      33.797 -19.085 -24.003  0.00  0.00    -0.168 OA
ATOM      5  C   UNL     1      34.528 -18.171 -21.612  0.00  0.00    +0.133 C 
ATOM      6  C   UNL     1      34.025 -15.617 -21.496  0.00  0.00    -0.035 C 
ATOM      7  C   UNL     1      34.905 -16.797 -21.018  0.00  0.00    +0.007 C 
ATOM      8  C   UNL     1      33.964 -15.510 -22.994  0.00  0.00    -0.017 C 
ATOM      9  C   UNL     1      34.252 -16.565 -23.832  0.00  0.00    +0.130 C 
ATOM     10  C   UNL     1      35.337 -19.292 -20.968  0.00  0.00    +0.026 C 
ATOM     11  C   UNL     1      33.621 -14.346 -23.751  0.00  0.00    +0.022 C 
ATOM     12  C   UNL     1      33.660 -14.574 -25.112  0.00  0.00    +0.152 C 
ENDROOT
BRANCH  12  13
ATOM     13  S   UNL     1      33.344 -13.560 -26.511  0.00  0.00    +0.063 S 
ATOM     14  O   UNL     1      33.585 -12.189 -26.076  0.00  0.00    -0.153 OA
ATOM     15  O   UNL     1      34.132 -14.145 -27.589  0.00  0.00    -0.153 OA
BRANCH  13  16
ATOM     16  N   UNL     1      31.681 -13.694 -26.922  0.00  0.00    -0.203 NA
ATOM     17  H   UNL     1      31.594 -14.069 -27.867  0.00  0.00    +0.144 HD
ATOM     18  H   UNL     1      31.245 -12.773 -26.881  0.00  0.00    +0.144 HD
ENDBRANCH  13  16
ENDBRANCH  12  13
BRANCH   6  19
ATOM     19  N   UNL     1      32.654 -15.719 -20.990  0.00  0.00    +0.388 N 
ATOM     20  H   UNL     1      32.512 -16.649 -20.595  0.00  0.00    -0.084 HD
ATOM     21  H   UNL     1      32.007 -15.559 -21.762  0.00  0.00    -0.084 HD
BRANCH  19  22
ATOM     22  C   UNL     1      32.414 -14.721 -19.961  0.00  0.00    -0.081 C 
ATOM     23  C   UNL     1      32.289 -13.345 -20.588  0.00  0.00    -0.026 C 
ENDBRANCH  19  22
ENDBRANCH   6  19
TORSDOF 4
ENDMDL
MODEL 6
REMARK VINA RESULT:      -6.2      9.938     11.562
REMARK  Name = 5284549
REMARK  4 active torsions:
REMARK  status: ('A' for Active; 'I' for Inactive)
REMARK    1  A    between atoms: C_6  and  N_19
REMARK    2  A    between atoms: C_12  and  S_13
REMARK    3  A    between atoms: S_13  and  N_16
REMARK    4  A    between atoms: N_19  and  C_22
REMARK                            x       y       z     vdW  Elec       q    Type
REMARK                         _______ _______ _______ _____ _____    ______ ____
ROOT
ATOM      1  S   UNL     1      32.703 -14.241 -21.259  0.00  0.00    +0.012 S 
ATOM      2  S   UNL     1      34.111 -16.834 -21.537  0.00  0.00    -0.049 S 
ATOM      3  O   UNL     1      33.695 -13.667 -20.374  0.00  0.00    -0.168 OA
ATOM      4  O   UNL     1      31.539 -14.957 -20.783  0.00  0.00    -0.168 OA
ATOM      5  C   UNL     1      32.196 -13.027 -22.495  0.00  0.00    +0.133 C 
ATOM      6  C   UNL     1      33.641 -14.052 -24.406  0.00  0.00    -0.035 C 
ATOM      7  C   UNL     1      33.303 -12.808 -23.548  0.00  0.00    +0.007 C 
ATOM      8  C   UNL     1      33.979 -15.256 -23.573  0.00  0.00    -0.017 C 
ATOM      9  C   UNL     1      33.597 -15.386 -22.255  0.00  0.00    +0.130 C 
ATOM     10  C   UNL     1      31.818 -11.717 -21.810  0.00  0.00    +0.026 C 
ATOM     11  C   UNL     1      34.726 -16.401 -23.994  0.00  0.00    +0.022 C 
ATOM     12  C   UNL     1      34.867 -17.336 -22.990  0.00  0.00    +0.152 C 
ENDROOT
BRANCH  12  13
ATOM     13  S   UNL     1      35.655 -18.904 -22.906  0.00  0.00    +0.063 S 
ATOM     14  O   UNL     1      35.258 -19.616 -24.115  0.00  0.00    -0.153 OA
ATOM     15  O   UNL     1      37.059 -18.609 -22.647  0.00  0.00    -0.153 OA
BRANCH  13  16
ATOM     16  N   UNL     1      35.025 -19.765 -21.560  0.00  0.00    -0.203 NA
ATOM     17  H   UNL     1      34.539 -20.600 -21.888  0.00  0.00    +0.144 HD
ATOM     18  H   UNL     1      34.372 -19.170 -21.050  0.00  0.00    +0.144 HD
ENDBRANCH  13  16
ENDBRANCH  12  13
BRANCH   6  19
ATOM     19  N   UNL     1      32.539 -14.412 -25.301  0.00  0.00    +0.388 N 
ATOM     20  H   UNL     1      31.843 -13.666 -25.293  0.00  0.00    -0.084 HD
ATOM     21  H   UNL     1      32.125 -15.285 -24.976  0.00  0.00    -0.084 HD
BRANCH  19  22
ATOM     22  C   UNL     1      33.023 -14.599 -26.658  0.00  0.00    -0.081 C 
ATOM     23  C   UNL     1      33.375 -13.259 -27.276  0.00  0.00    -0.026 C 
ENDBRANCH  19  22
ENDBRANCH   6  19
TORSDOF 4
ENDMDL
MODEL 7
REMARK VINA RESULT:      -6.2     11.422     13.132
REMARK  Name = 5284549
REMARK  4 active torsions:
REMARK  status: ('A' for Active; 'I' for Inactive)
REMARK    1  A    between atoms: C_6  and  N_19
REMARK    2  A    between atoms: C_12  and  S_13
REMARK    3  A    between atoms: S_13  and  N_16
REMARK    4  A    between atoms: N_19  and  C_22
REMARK                            x       y       z     vdW  Elec       q    Type
REMARK                         _______ _______ _______ _____ _____    ______ ____
ROOT
ATOM      1  S   UNL     1      34.184 -16.922 -25.350  0.00  0.00    +0.012 S 
ATOM      2  S   UNL     1      33.721 -13.996 -25.402  0.00  0.00    -0.049 S 
ATOM      3  O   UNL     1      35.380 -16.863 -26.163  0.00  0.00    -0.168 OA
ATOM      4  O   UNL     1      32.860 -17.113 -25.903  0.00  0.00    -0.168 OA
ATOM      5  C   UNL     1      34.426 -18.061 -23.970  0.00  0.00    +0.133 C 
ATOM      6  C   UNL     1      34.823 -16.183 -22.209  0.00  0.00    -0.035 C 
ATOM      7  C   UNL     1      35.365 -17.455 -22.905  0.00  0.00    +0.007 C 
ATOM      8  C   UNL     1      34.425 -15.113 -23.186  0.00  0.00    -0.017 C 
ATOM      9  C   UNL     1      34.134 -15.376 -24.508  0.00  0.00    +0.130 C 
ATOM     10  C   UNL     1      34.963 -19.393 -24.486  0.00  0.00    +0.026 C 
ATOM     11  C   UNL     1      34.299 -13.714 -22.914  0.00  0.00    +0.022 C 
ATOM     12  C   UNL     1      33.918 -12.994 -24.027  0.00  0.00    +0.152 C 
ENDROOT
BRANCH  12  13
ATOM     13  S   UNL     1      33.605 -11.288 -24.308  0.00  0.00    +0.063 S 
ATOM     14  O   UNL     1      33.267 -11.170 -25.721  0.00  0.00    -0.153 OA
ATOM     15  O   UNL     1      32.644 -10.905 -23.281  0.00  0.00    -0.153 OA
BRANCH  13  16
ATOM     16  N   UNL     1      35.058 -10.412 -24.043  0.00  0.00    -0.203 NA
ATOM     17  H   UNL     1      35.654 -10.929 -23.395  0.00  0.00    +0.144 HD
ATOM     18  H   UNL     1      34.838  -9.498 -23.646  0.00  0.00    +0.144 HD
ENDBRANCH  13  16
ENDBRANCH  12  13
BRANCH   6  19
ATOM     19  N   UNL     1      33.668 -16.476 -21.359  0.00  0.00    +0.388 N 
ATOM     20  H   UNL     1      33.707 -17.452 -21.066  0.00  0.00    -0.084 HD
ATOM     21  H   UNL     1      32.816 -16.299 -21.890  0.00  0.00    -0.084 HD
BRANCH  19  22
ATOM     22  C   UNL     1      33.671 -15.624 -20.181  0.00  0.00    -0.081 C 
ATOM     23  C   UNL     1      32.378 -14.836 -20.103  0.00  0.00    -0.026 C 
ENDBRANCH  19  22
ENDBRANCH   6  19
TORSDOF 4
ENDMDL
MODEL 8
REMARK VINA RESULT:      -6.2      2.529      5.277
REMARK  Name = 5284549
REMARK  4 active torsions:
REMARK  status: ('A' for Active; 'I' for Inactive)
REMARK    1  A    between atoms: C_6  and  N_19
REMARK    2  A    between atoms: C_12  and  S_13
REMARK    3  A    between atoms: S_13  and  N_16
REMARK    4  A    between atoms: N_19  and  C_22
REMARK                            x       y       z     vdW  Elec       q    Type
REMARK                         _______ _______ _______ _____ _____    ______ ____
ROOT
ATOM      1  S   UNL     1      35.450 -22.781 -16.092  0.00  0.00    +0.012 S 
ATOM      2  S   UNL     1      32.998 -23.682 -14.694  0.00  0.00    -0.049 S 
ATOM      3  O   UNL     1      36.107 -24.069 -16.012  0.00  0.00    -0.168 OA
ATOM      4  O   UNL     1      35.609 -21.750 -15.090  0.00  0.00    -0.168 OA
ATOM      5  C   UNL     1      35.686 -22.064 -17.732  0.00  0.00    +0.133 C 
ATOM      6  C   UNL     1      33.299 -22.676 -18.578  0.00  0.00    -0.035 C 
ATOM      7  C   UNL     1      34.829 -22.793 -18.788  0.00  0.00    +0.007 C 
ATOM      8  C   UNL     1      32.868 -23.107 -17.205  0.00  0.00    -0.017 C 
ATOM      9  C   UNL     1      33.729 -23.154 -16.130  0.00  0.00    +0.130 C 
ATOM     10  C   UNL     1      37.166 -22.096 -18.104  0.00  0.00    +0.026 C 
ATOM     11  C   UNL     1      31.557 -23.526 -16.816  0.00  0.00    +0.022 C 
ATOM     12  C   UNL     1      31.487 -23.861 -15.479  0.00  0.00    +0.152 C 
ENDROOT
BRANCH  12  13
ATOM     13  S   UNL     1      30.183 -24.427 -14.447  0.00  0.00    +0.063 S 
ATOM     14  O   UNL     1      30.638 -24.223 -13.077  0.00  0.00    -0.153 OA
ATOM     15  O   UNL     1      28.989 -23.752 -14.940  0.00  0.00    -0.153 OA
BRANCH  13  16
ATOM     16  N   UNL     1      29.986 -26.117 -14.687  0.00  0.00    -0.203 NA
ATOM     17  H   UNL     1      29.223 -26.457 -14.100  0.00  0.00    +0.144 HD
ATOM     18  H   UNL     1      30.849 -26.599 -14.436  0.00  0.00    +0.144 HD
ENDBRANCH  13  16
ENDBRANCH  12  13
BRANCH   6  19
ATOM     19  N   UNL     1      32.822 -21.309 -18.797  0.00  0.00    +0.388 N 
ATOM     20  H   UNL     1      33.028 -20.746 -17.972  0.00  0.00    -0.084 HD
ATOM     21  H   UNL     1      31.817 -21.335 -18.966  0.00  0.00    -0.084 HD
BRANCH  19  22
ATOM     22  C   UNL     1      33.476 -20.719 -19.954  0.00  0.00    -0.081 C 
ATOM     23  C   UNL     1      32.548 -19.726 -20.628  0.00  0.00    -0.026 C 
ENDBRANCH  19  22
ENDBRANCH   6  19
TORSDOF 4
ENDMDL
MODEL 9
REMARK VINA RESULT:      -6.0     12.969     14.617
REMARK  Name = 5284549
REMARK  4 active torsions:
REMARK  status: ('A' for Active; 'I' for Inactive)
REMARK    1  A    between atoms: C_6  and  N_19
REMARK    2  A    between atoms: C_12  and  S_13
REMARK    3  A    between atoms: S_13  and  N_16
REMARK    4  A    between atoms: N_19  and  C_22
REMARK                            x       y       z     vdW  Elec       q    Type
REMARK                         _______ _______ _______ _____ _____    ______ ____
ROOT
ATOM      1  S   UNL     1      33.020 -10.019 -23.314  0.00  0.00    +0.012 S 
ATOM      2  S   UNL     1      33.558 -12.141 -25.311  0.00  0.00    -0.049 S 
ATOM      3  O   UNL     1      31.984  -9.383 -24.100  0.00  0.00    -0.168 OA
ATOM      4  O   UNL     1      34.414  -9.637 -23.386  0.00  0.00    -0.168 OA
ATOM      5  C   UNL     1      32.515 -10.118 -21.584  0.00  0.00    +0.133 C 
ATOM      6  C   UNL     1      31.867 -12.639 -21.694  0.00  0.00    -0.035 C 
ATOM      7  C   UNL     1      31.422 -11.189 -21.382  0.00  0.00    +0.007 C 
ATOM      8  C   UNL     1      32.454 -12.782 -23.070  0.00  0.00    -0.017 C 
ATOM      9  C   UNL     1      32.962 -11.716 -23.781  0.00  0.00    +0.130 C 
ATOM     10  C   UNL     1      32.042  -8.749 -21.103  0.00  0.00    +0.026 C 
ATOM     11  C   UNL     1      32.566 -13.990 -23.827  0.00  0.00    +0.022 C 
ATOM     12  C   UNL     1      33.151 -13.786 -25.060  0.00  0.00    +0.152 C 
ENDROOT
BRANCH  12  13
ATOM     13  S   UNL     1      33.550 -14.855 -26.395  0.00  0.00    +0.063 S 
ATOM     14  O   UNL     1      33.870 -13.987 -27.522  0.00  0.00    -0.153 OA
ATOM     15  O   UNL     1      34.547 -15.774 -25.860  0.00  0.00    -0.153 OA
BRANCH  13  16
ATOM     16  N   UNL     1      32.150 -15.759 -26.812  0.00  0.00    -0.203 NA
ATOM     17  H   UNL     1      32.190 -16.010 -27.801  0.00  0.00    +0.144 HD
ATOM     18  H   UNL     1      31.317 -15.198 -26.637  0.00  0.00    +0.144 HD
ENDBRANCH  13  16
ENDBRANCH  12  13
BRANCH   6  19
ATOM     19  N   UNL     1      32.850 -13.128 -20.726  0.00  0.00    +0.388 N 
ATOM     20  H   UNL     1      32.686 -12.678 -19.825  0.00  0.00    -0.084 HD
ATOM     21  H   UNL     1      33.785 -12.906 -21.067  0.00  0.00    -0.084 HD
BRANCH  19  22
ATOM     22  C   UNL     1      32.739 -14.569 -20.567  0.00  0.00    -0.081 C 
ATOM     23  C   UNL     1      34.117 -15.203 -20.583  0.00  0.00    -0.026 C 
ENDBRANCH  19  22
ENDBRANCH   6  19
TORSDOF 4
ENDMDL
