MODEL 1
REMARK VINA RESULT:      -9.0      0.000      0.000
REMARK  Name = 448668
REMARK  5 active torsions:
REMARK  status: ('A' for Active; 'I' for Inactive)
REMARK    1  A    between atoms: N_3  and  C_16
REMARK    2  A    between atoms: C_16  and  C_17
REMARK    3  A    between atoms: C_17  and  O_18
REMARK    4  A    between atoms: C_17  and  C_20
REMARK    5  A    between atoms: C_20  and  N_21
REMARK                            x       y       z     vdW  Elec       q    Type
REMARK                         _______ _______ _______ _____ _____    ______ ____
ROOT
ATOM      1 BR   UNL     1      29.473 -24.624 -15.684  0.00  0.00    -0.049 Br
ATOM      2 BR   UNL     1      36.403 -21.240 -19.801  0.00  0.00    -0.049 Br
ATOM      3  N   UNL     1      35.200 -23.409 -14.325  0.00  0.00    -0.325 N 
ATOM      4  C   UNL     1      33.874 -23.756 -14.439  0.00  0.00    +0.060 A 
ATOM      5  C   UNL     1      35.669 -22.881 -15.505  0.00  0.00    +0.060 A 
ATOM      6  C   UNL     1      33.475 -23.442 -15.738  0.00  0.00    +0.018 A 
ATOM      7  C   UNL     1      34.609 -22.888 -16.412  0.00  0.00    +0.018 A 
ATOM      8  C   UNL     1      33.008 -24.321 -13.496  0.00  0.00    +0.018 C 
ATOM      9  C   UNL     1      36.943 -22.401 -15.833  0.00  0.00    +0.018 C 
ATOM     10  C   UNL     1      32.141 -23.704 -16.115  0.00  0.00    +0.008 C 
ATOM     11  C   UNL     1      34.832 -22.390 -17.714  0.00  0.00    +0.008 C 
ATOM     12  C   UNL     1      31.692 -24.571 -13.894  0.00  0.00    +0.008 C 
ATOM     13  C   UNL     1      37.138 -21.913 -17.129  0.00  0.00    +0.008 C 
ATOM     14  C   UNL     1      31.262 -24.269 -15.184  0.00  0.00    +0.035 C 
ATOM     15  C   UNL     1      36.099 -21.908 -18.057  0.00  0.00    +0.035 C 
ENDROOT
BRANCH   3  16
ATOM     16  C   UNL     1      35.995 -23.577 -13.125  0.00  0.00    +0.133 C 
BRANCH  16  17
ATOM     17  C   UNL     1      37.336 -24.267 -13.406  0.00  0.00    +0.112 C 
BRANCH  17  18
ATOM     18  O   UNL     1      38.340 -23.629 -12.614  0.00  0.00    -0.385 OA
ATOM     19  H   UNL     1      38.798 -24.292 -12.075  0.00  0.00    +0.210 HD
ENDBRANCH  17  18
BRANCH  17  20
ATOM     20  C   UNL     1      37.318 -25.755 -13.038  0.00  0.00    -0.046 C 
BRANCH  20  21
ATOM     21  N   UNL     1      37.771 -26.596 -14.138  0.00  0.00    +0.386 N 
ATOM     22  C   UNL     1      39.028 -26.087 -14.693  0.00  0.00    -0.101 C 
ATOM     23  C   UNL     1      36.750 -26.676 -15.184  0.00  0.00    -0.101 C 
ATOM     24  H   UNL     1      37.935 -27.534 -13.771  0.00  0.00    -0.080 HD
ENDBRANCH  20  21
ENDBRANCH  17  20
ENDBRANCH  16  17
ENDBRANCH   3  16
TORSDOF 5
ENDMDL
MODEL 2
REMARK VINA RESULT:      -9.0      0.042      4.308
REMARK  Name = 448668
REMARK  5 active torsions:
REMARK  status: ('A' for Active; 'I' for Inactive)
REMARK    1  A    between atoms: N_3  and  C_16
REMARK    2  A    between atoms: C_16  and  C_17
REMARK    3  A    between atoms: C_17  and  O_18
REMARK    4  A    between atoms: C_17  and  C_20
REMARK    5  A    between atoms: C_20  and  N_21
REMARK                            x       y       z     vdW  Elec       q    Type
REMARK                         _______ _______ _______ _____ _____    ______ ____
ROOT
ATOM      1 BR   UNL     1      36.439 -21.276 -19.793  0.00  0.00    -0.049 Br
ATOM      2 BR   UNL     1      29.440 -24.575 -15.727  0.00  0.00    -0.049 Br
ATOM      3  N   UNL     1      35.168 -23.417 -14.324  0.00  0.00    -0.325 N 
ATOM      4  C   UNL     1      35.653 -22.897 -15.501  0.00  0.00    +0.060 A 
ATOM      5  C   UNL     1      33.840 -23.751 -14.448  0.00  0.00    +0.060 A 
ATOM      6  C   UNL     1      34.600 -22.895 -16.416  0.00  0.00    +0.018 A 
ATOM      7  C   UNL     1      33.454 -23.435 -15.751  0.00  0.00    +0.018 A 
ATOM      8  C   UNL     1      36.934 -22.433 -15.820  0.00  0.00    +0.018 C 
ATOM      9  C   UNL     1      32.960 -24.305 -13.511  0.00  0.00    +0.018 C 
ATOM     10  C   UNL     1      34.838 -22.404 -17.716  0.00  0.00    +0.008 C 
ATOM     11  C   UNL     1      32.120 -23.685 -16.138  0.00  0.00    +0.008 C 
ATOM     12  C   UNL     1      37.145 -21.952 -17.115  0.00  0.00    +0.008 C 
ATOM     13  C   UNL     1      31.644 -24.543 -13.919  0.00  0.00    +0.008 C 
ATOM     14  C   UNL     1      36.114 -21.936 -18.051  0.00  0.00    +0.035 C 
ATOM     15  C   UNL     1      31.229 -24.238 -15.213  0.00  0.00    +0.035 C 
ENDROOT
BRANCH   3  16
ATOM     16  C   UNL     1      35.951 -23.589 -13.116  0.00  0.00    +0.133 C 
BRANCH  16  17
ATOM     17  C   UNL     1      37.296 -24.275 -13.386  0.00  0.00    +0.112 C 
BRANCH  17  18
ATOM     18  O   UNL     1      38.291 -23.639 -12.582  0.00  0.00    -0.385 OA
ATOM     19  H   UNL     1      38.857 -23.086 -13.144  0.00  0.00    +0.210 HD
ENDBRANCH  17  18
BRANCH  17  20
ATOM     20  C   UNL     1      37.277 -25.765 -13.025  0.00  0.00    -0.046 C 
BRANCH  20  21
ATOM     21  N   UNL     1      37.747 -26.600 -14.122  0.00  0.00    +0.386 N 
ATOM     22  C   UNL     1      39.013 -26.091 -14.655  0.00  0.00    -0.101 C 
ATOM     23  C   UNL     1      36.742 -26.671 -15.185  0.00  0.00    -0.101 C 
ATOM     24  H   UNL     1      37.903 -27.541 -13.759  0.00  0.00    -0.080 HD
ENDBRANCH  20  21
ENDBRANCH  17  20
ENDBRANCH  16  17
ENDBRANCH   3  16
TORSDOF 5
ENDMDL
MODEL 3
REMARK VINA RESULT:      -8.9      1.374      4.607
REMARK  Name = 448668
REMARK  5 active torsions:
REMARK  status: ('A' for Active; 'I' for Inactive)
REMARK    1  A    between atoms: N_3  and  C_16
REMARK    2  A    between atoms: C_16  and  C_17
REMARK    3  A    between atoms: C_17  and  O_18
REMARK    4  A    between atoms: C_17  and  C_20
REMARK    5  A    between atoms: C_20  and  N_21
REMARK                            x       y       z     vdW  Elec       q    Type
REMARK                         _______ _______ _______ _____ _____    ______ ____
ROOT
ATOM      1 BR   UNL     1      35.401 -20.870 -20.552  0.00  0.00    -0.049 Br
ATOM      2 BR   UNL     1      28.935 -24.335 -15.798  0.00  0.00    -0.049 Br
ATOM      3  N   UNL     1      34.860 -23.526 -15.187  0.00  0.00    -0.325 N 
ATOM      4  C   UNL     1      35.188 -22.902 -16.369  0.00  0.00    +0.060 A 
ATOM      5  C   UNL     1      33.513 -23.799 -15.138  0.00  0.00    +0.060 A 
ATOM      6  C   UNL     1      34.011 -22.769 -17.106  0.00  0.00    +0.018 A 
ATOM      7  C   UNL     1      32.952 -23.336 -16.328  0.00  0.00    +0.018 A 
ATOM      8  C   UNL     1      36.428 -22.451 -16.835  0.00  0.00    +0.018 C 
ATOM      9  C   UNL     1      32.757 -24.418 -14.135  0.00  0.00    +0.018 C 
ATOM     10  C   UNL     1      34.075 -22.154 -18.373  0.00  0.00    +0.008 C 
ATOM     11  C   UNL     1      31.565 -23.499 -16.528  0.00  0.00    +0.008 C 
ATOM     12  C   UNL     1      36.466 -21.845 -18.093  0.00  0.00    +0.008 C 
ATOM     13  C   UNL     1      31.385 -24.567 -14.356  0.00  0.00    +0.008 C 
ATOM     14  C   UNL     1      35.308 -21.697 -18.853  0.00  0.00    +0.035 C 
ATOM     15  C   UNL     1      30.796 -24.115 -15.535  0.00  0.00    +0.035 C 
ENDROOT
BRANCH   3  16
ATOM     16  C   UNL     1      35.805 -23.849 -14.138  0.00  0.00    +0.133 C 
BRANCH  16  17
ATOM     17  C   UNL     1      36.417 -25.245 -14.314  0.00  0.00    +0.112 C 
BRANCH  17  18
ATOM     18  O   UNL     1      35.671 -25.935 -15.319  0.00  0.00    -0.385 OA
ATOM     19  H   UNL     1      36.206 -26.660 -15.679  0.00  0.00    +0.210 HD
ENDBRANCH  17  18
BRANCH  17  20
ATOM     20  C   UNL     1      37.881 -25.191 -14.763  0.00  0.00    -0.046 C 
BRANCH  20  21
ATOM     21  N   UNL     1      38.749 -25.977 -13.896  0.00  0.00    +0.386 N 
ATOM     22  C   UNL     1      38.403 -25.764 -12.489  0.00  0.00    -0.101 C 
ATOM     23  C   UNL     1      40.155 -25.639 -14.128  0.00  0.00    -0.101 C 
ATOM     24  H   UNL     1      38.611 -26.963 -14.119  0.00  0.00    -0.080 HD
ENDBRANCH  20  21
ENDBRANCH  17  20
ENDBRANCH  16  17
ENDBRANCH   3  16
TORSDOF 5
ENDMDL
MODEL 4
REMARK VINA RESULT:      -8.8      1.510      2.004
REMARK  Name = 448668
REMARK  5 active torsions:
REMARK  status: ('A' for Active; 'I' for Inactive)
REMARK    1  A    between atoms: N_3  and  C_16
REMARK    2  A    between atoms: C_16  and  C_17
REMARK    3  A    between atoms: C_17  and  O_18
REMARK    4  A    between atoms: C_17  and  C_20
REMARK    5  A    between atoms: C_20  and  N_21
REMARK                            x       y       z     vdW  Elec       q    Type
REMARK                         _______ _______ _______ _____ _____    ______ ____
ROOT
ATOM      1 BR   UNL     1      29.594 -24.342 -15.529  0.00  0.00    -0.049 Br
ATOM      2 BR   UNL     1      34.890 -20.462 -21.300  0.00  0.00    -0.049 Br
ATOM      3  N   UNL     1      35.454 -23.062 -15.910  0.00  0.00    -0.325 N 
ATOM      4  C   UNL     1      34.160 -23.439 -15.637  0.00  0.00    +0.060 A 
ATOM      5  C   UNL     1      35.531 -22.435 -17.132  0.00  0.00    +0.060 A 
ATOM      6  C   UNL     1      33.376 -23.042 -16.720  0.00  0.00    +0.018 A 
ATOM      7  C   UNL     1      34.243 -22.407 -17.665  0.00  0.00    +0.018 A 
ATOM      8  C   UNL     1      33.631 -24.097 -14.520  0.00  0.00    +0.018 C 
ATOM      9  C   UNL     1      36.638 -21.895 -17.798  0.00  0.00    +0.018 C 
ATOM     10  C   UNL     1      31.993 -23.315 -16.687  0.00  0.00    +0.008 C 
ATOM     11  C   UNL     1      34.049 -21.808 -18.928  0.00  0.00    +0.008 C 
ATOM     12  C   UNL     1      32.258 -24.356 -14.511  0.00  0.00    +0.008 C 
ATOM     13  C   UNL     1      36.420 -21.308 -19.047  0.00  0.00    +0.008 C 
ATOM     14  C   UNL     1      31.448 -23.972 -15.578  0.00  0.00    +0.035 C 
ATOM     15  C   UNL     1      35.145 -21.265 -19.606  0.00  0.00    +0.035 C 
ENDROOT
BRANCH   3  16
ATOM     16  C   UNL     1      36.582 -23.294 -15.031  0.00  0.00    +0.133 C 
BRANCH  16  17
ATOM     17  C   UNL     1      37.021 -24.763 -15.022  0.00  0.00    +0.112 C 
BRANCH  17  18
ATOM     18  O   UNL     1      38.374 -24.828 -15.478  0.00  0.00    -0.385 OA
ATOM     19  H   UNL     1      38.769 -23.942 -15.450  0.00  0.00    +0.210 HD
ENDBRANCH  17  18
BRANCH  17  20
ATOM     20  C   UNL     1      36.964 -25.384 -13.622  0.00  0.00    -0.046 C 
BRANCH  20  21
ATOM     21  N   UNL     1      36.881 -24.372 -12.577  0.00  0.00    +0.386 N 
ATOM     22  C   UNL     1      38.180 -24.197 -11.923  0.00  0.00    -0.101 C 
ATOM     23  C   UNL     1      35.861 -24.731 -11.589  0.00  0.00    -0.101 C 
ATOM     24  H   UNL     1      36.615 -23.488 -13.012  0.00  0.00    -0.080 HD
ENDBRANCH  20  21
ENDBRANCH  17  20
ENDBRANCH  16  17
ENDBRANCH   3  16
TORSDOF 5
ENDMDL
MODEL 5
REMARK VINA RESULT:      -8.7      3.415      6.192
REMARK  Name = 448668
REMARK  5 active torsions:
REMARK  status: ('A' for Active; 'I' for Inactive)
REMARK    1  A    between atoms: N_3  and  C_16
REMARK    2  A    between atoms: C_16  and  C_17
REMARK    3  A    between atoms: C_17  and  O_18
REMARK    4  A    between atoms: C_17  and  C_20
REMARK    5  A    between atoms: C_20  and  N_21
REMARK                            x       y       z     vdW  Elec       q    Type
REMARK                         _______ _______ _______ _____ _____    ______ ____
ROOT
ATOM      1 BR   UNL     1      36.843 -20.591 -20.304  0.00  0.00    -0.049 Br
ATOM      2 BR   UNL     1      37.699 -23.822 -12.227  0.00  0.00    -0.049 Br
ATOM      3  N   UNL     1      33.330 -23.424 -16.336  0.00  0.00    -0.325 N 
ATOM      4  C   UNL     1      33.965 -22.774 -17.368  0.00  0.00    +0.060 A 
ATOM      5  C   UNL     1      34.187 -23.612 -15.277  0.00  0.00    +0.060 A 
ATOM      6  C   UNL     1      35.278 -22.536 -16.961  0.00  0.00    +0.018 A 
ATOM      7  C   UNL     1      35.418 -23.065 -15.639  0.00  0.00    +0.018 A 
ATOM      8  C   UNL     1      33.478 -22.384 -18.622  0.00  0.00    +0.018 C 
ATOM      9  C   UNL     1      33.964 -24.220 -14.036  0.00  0.00    +0.018 C 
ATOM     10  C   UNL     1      36.150 -21.874 -17.850  0.00  0.00    +0.008 C 
ATOM     11  C   UNL     1      36.482 -23.129 -14.714  0.00  0.00    +0.008 C 
ATOM     12  C   UNL     1      34.361 -21.730 -19.484  0.00  0.00    +0.008 C 
ATOM     13  C   UNL     1      35.034 -24.271 -13.137  0.00  0.00    +0.008 C 
ATOM     14  C   UNL     1      35.678 -21.478 -19.107  0.00  0.00    +0.035 C 
ATOM     15  C   UNL     1      36.275 -23.733 -13.470  0.00  0.00    +0.035 C 
ENDROOT
BRANCH   3  16
ATOM     16  C   UNL     1      31.945 -23.852 -16.361  0.00  0.00    +0.133 C 
BRANCH  16  17
ATOM     17  C   UNL     1      30.979 -22.723 -15.983  0.00  0.00    +0.112 C 
BRANCH  17  18
ATOM     18  O   UNL     1      30.221 -22.377 -17.144  0.00  0.00    -0.385 OA
ATOM     19  H   UNL     1      30.684 -21.684 -17.639  0.00  0.00    +0.210 HD
ENDBRANCH  17  18
BRANCH  17  20
ATOM     20  C   UNL     1      29.996 -23.136 -14.882  0.00  0.00    -0.046 C 
BRANCH  20  21
ATOM     21  N   UNL     1      30.180 -24.522 -14.474  0.00  0.00    +0.386 N 
ATOM     22  C   UNL     1      28.961 -25.298 -14.713  0.00  0.00    -0.101 C 
ATOM     23  C   UNL     1      30.563 -24.601 -13.063  0.00  0.00    -0.101 C 
ATOM     24  H   UNL     1      30.933 -24.920 -15.037  0.00  0.00    -0.080 HD
ENDBRANCH  20  21
ENDBRANCH  17  20
ENDBRANCH  16  17
ENDBRANCH   3  16
TORSDOF 5
ENDMDL
MODEL 6
REMARK VINA RESULT:      -8.7      3.415      5.391
REMARK  Name = 448668
REMARK  5 active torsions:
REMARK  status: ('A' for Active; 'I' for Inactive)
REMARK    1  A    between atoms: N_3  and  C_16
REMARK    2  A    between atoms: C_16  and  C_17
REMARK    3  A    between atoms: C_17  and  O_18
REMARK    4  A    between atoms: C_17  and  C_20
REMARK    5  A    between atoms: C_20  and  N_21
REMARK                            x       y       z     vdW  Elec       q    Type
REMARK                         _______ _______ _______ _____ _____    ______ ____
ROOT
ATOM      1 BR   UNL     1      37.638 -23.813 -12.185  0.00  0.00    -0.049 Br
ATOM      2 BR   UNL     1      36.875 -20.639 -20.294  0.00  0.00    -0.049 Br
ATOM      3  N   UNL     1      33.308 -23.420 -16.335  0.00  0.00    -0.325 N 
ATOM      4  C   UNL     1      34.155 -23.605 -15.267  0.00  0.00    +0.060 A 
ATOM      5  C   UNL     1      33.957 -22.782 -17.366  0.00  0.00    +0.060 A 
ATOM      6  C   UNL     1      35.392 -23.068 -15.622  0.00  0.00    +0.018 A 
ATOM      7  C   UNL     1      35.267 -22.548 -16.950  0.00  0.00    +0.018 A 
ATOM      8  C   UNL     1      33.917 -24.203 -14.023  0.00  0.00    +0.018 C 
ATOM      9  C   UNL     1      33.484 -22.400 -18.628  0.00  0.00    +0.018 C 
ATOM     10  C   UNL     1      36.447 -23.131 -14.689  0.00  0.00    +0.008 C 
ATOM     11  C   UNL     1      36.152 -21.899 -17.837  0.00  0.00    +0.008 C 
ATOM     12  C   UNL     1      34.979 -24.253 -13.117  0.00  0.00    +0.008 C 
ATOM     13  C   UNL     1      34.379 -21.759 -19.488  0.00  0.00    +0.008 C 
ATOM     14  C   UNL     1      36.226 -23.726 -13.441  0.00  0.00    +0.035 C 
ATOM     15  C   UNL     1      35.694 -21.511 -19.101  0.00  0.00    +0.035 C 
ENDROOT
BRANCH   3  16
ATOM     16  C   UNL     1      31.921 -23.838 -16.368  0.00  0.00    +0.133 C 
BRANCH  16  17
ATOM     17  C   UNL     1      30.961 -22.708 -15.977  0.00  0.00    +0.112 C 
BRANCH  17  18
ATOM     18  O   UNL     1      30.244 -22.307 -17.147  0.00  0.00    -0.385 OA
ATOM     19  H   UNL     1      30.777 -21.676 -17.654  0.00  0.00    +0.210 HD
ENDBRANCH  17  18
BRANCH  17  20
ATOM     20  C   UNL     1      29.940 -23.144 -14.922  0.00  0.00    -0.046 C 
BRANCH  20  21
ATOM     21  N   UNL     1      30.151 -24.519 -14.489  0.00  0.00    +0.386 N 
ATOM     22  C   UNL     1      28.940 -25.318 -14.696  0.00  0.00    -0.101 C 
ATOM     23  C   UNL     1      30.553 -24.564 -13.082  0.00  0.00    -0.101 C 
ATOM     24  H   UNL     1      30.902 -24.916 -15.055  0.00  0.00    -0.080 HD
ENDBRANCH  20  21
ENDBRANCH  17  20
ENDBRANCH  16  17
ENDBRANCH   3  16
TORSDOF 5
ENDMDL
MODEL 7
REMARK VINA RESULT:      -8.5     11.294     14.236
REMARK  Name = 448668
REMARK  5 active torsions:
REMARK  status: ('A' for Active; 'I' for Inactive)
REMARK    1  A    between atoms: N_3  and  C_16
REMARK    2  A    between atoms: C_16  and  C_17
REMARK    3  A    between atoms: C_17  and  O_18
REMARK    4  A    between atoms: C_17  and  C_20
REMARK    5  A    between atoms: C_20  and  N_21
REMARK                            x       y       z     vdW  Elec       q    Type
REMARK                         _______ _______ _______ _____ _____    ______ ____
ROOT
ATOM      1 BR   UNL     1      35.989 -18.645 -21.282  0.00  0.00    -0.049 Br
ATOM      2 BR   UNL     1      31.545 -11.430 -19.137  0.00  0.00    -0.049 Br
ATOM      3  N   UNL     1      33.021 -14.310 -24.202  0.00  0.00    -0.325 N 
ATOM      4  C   UNL     1      33.739 -15.382 -23.724  0.00  0.00    +0.060 A 
ATOM      5  C   UNL     1      32.587 -13.514 -23.168  0.00  0.00    +0.060 A 
ATOM      6  C   UNL     1      33.767 -15.273 -22.333  0.00  0.00    +0.018 A 
ATOM      7  C   UNL     1      33.039 -14.092 -21.982  0.00  0.00    +0.018 A 
ATOM      8  C   UNL     1      34.358 -16.430 -24.414  0.00  0.00    +0.018 C 
ATOM      9  C   UNL     1      31.834 -12.334 -23.196  0.00  0.00    +0.018 C 
ATOM     10  C   UNL     1      34.449 -16.261 -21.594  0.00  0.00    +0.008 C 
ATOM     11  C   UNL     1      32.724 -13.460 -20.760  0.00  0.00    +0.008 C 
ATOM     12  C   UNL     1      35.027 -17.396 -23.659  0.00  0.00    +0.008 C 
ATOM     13  C   UNL     1      31.534 -11.727 -21.973  0.00  0.00    +0.008 C 
ATOM     14  C   UNL     1      35.074 -17.316 -22.269  0.00  0.00    +0.035 C 
ATOM     15  C   UNL     1      31.972 -12.281 -20.772  0.00  0.00    +0.035 C 
ENDROOT
BRANCH   3  16
ATOM     16  C   UNL     1      32.759 -14.055 -25.604  0.00  0.00    +0.133 C 
BRANCH  16  17
ATOM     17  C   UNL     1      33.867 -13.224 -26.263  0.00  0.00    +0.112 C 
BRANCH  17  18
ATOM     18  O   UNL     1      33.831 -13.469 -27.671  0.00  0.00    -0.385 OA
ATOM     19  H   UNL     1      34.594 -14.010 -27.926  0.00  0.00    +0.210 HD
ENDBRANCH  17  18
BRANCH  17  20
ATOM     20  C   UNL     1      33.683 -11.719 -26.039  0.00  0.00    -0.046 C 
BRANCH  20  21
ATOM     21  N   UNL     1      34.822 -11.125 -25.352  0.00  0.00    +0.386 N 
ATOM     22  C   UNL     1      34.371 -10.206 -24.304  0.00  0.00    -0.101 C 
ATOM     23  C   UNL     1      35.692 -10.425 -26.300  0.00  0.00    -0.101 C 
ATOM     24  H   UNL     1      35.356 -11.877 -24.915  0.00  0.00    -0.080 HD
ENDBRANCH  20  21
ENDBRANCH  17  20
ENDBRANCH  16  17
ENDBRANCH   3  16
TORSDOF 5
ENDMDL
MODEL 8
REMARK VINA RESULT:      -8.5     11.269     14.088
REMARK  Name = 448668
REMARK  5 active torsions:
REMARK  status: ('A' for Active; 'I' for Inactive)
REMARK    1  A    between atoms: N_3  and  C_16
REMARK    2  A    between atoms: C_16  and  C_17
REMARK    3  A    between atoms: C_17  and  O_18
REMARK    4  A    between atoms: C_17  and  C_20
REMARK    5  A    between atoms: C_20  and  N_21
REMARK                            x       y       z     vdW  Elec       q    Type
REMARK                         _______ _______ _______ _____ _____    ______ ____
ROOT
ATOM      1 BR   UNL     1      31.563 -11.416 -19.192  0.00  0.00    -0.049 Br
ATOM      2 BR   UNL     1      36.022 -18.650 -21.240  0.00  0.00    -0.049 Br
ATOM      3  N   UNL     1      33.049 -14.357 -24.218  0.00  0.00    -0.325 N 
ATOM      4  C   UNL     1      32.612 -13.549 -23.195  0.00  0.00    +0.060 A 
ATOM      5  C   UNL     1      33.768 -15.421 -23.725  0.00  0.00    +0.060 A 
ATOM      6  C   UNL     1      33.065 -14.111 -22.001  0.00  0.00    +0.018 A 
ATOM      7  C   UNL     1      33.795 -15.295 -22.336  0.00  0.00    +0.018 A 
ATOM      8  C   UNL     1      31.856 -12.371 -23.239  0.00  0.00    +0.018 C 
ATOM      9  C   UNL     1      34.389 -16.478 -24.402  0.00  0.00    +0.018 C 
ATOM     10  C   UNL     1      32.747 -13.465 -20.789  0.00  0.00    +0.008 C 
ATOM     11  C   UNL     1      34.478 -16.274 -21.583  0.00  0.00    +0.008 C 
ATOM     12  C   UNL     1      31.554 -11.751 -22.024  0.00  0.00    +0.008 C 
ATOM     13  C   UNL     1      35.059 -17.435 -23.634  0.00  0.00    +0.008 C 
ATOM     14  C   UNL     1      31.992 -12.287 -20.815  0.00  0.00    +0.035 C 
ATOM     15  C   UNL     1      35.104 -17.335 -22.245  0.00  0.00    +0.035 C 
ENDROOT
BRANCH   3  16
ATOM     16  C   UNL     1      32.789 -14.120 -25.624  0.00  0.00    +0.133 C 
BRANCH  16  17
ATOM     17  C   UNL     1      33.884 -13.273 -26.284  0.00  0.00    +0.112 C 
BRANCH  17  18
ATOM     18  O   UNL     1      33.848 -13.517 -27.692  0.00  0.00    -0.385 OA
ATOM     19  H   UNL     1      34.752 -13.526 -28.043  0.00  0.00    +0.210 HD
ENDBRANCH  17  18
BRANCH  17  20
ATOM     20  C   UNL     1      33.680 -11.771 -26.059  0.00  0.00    -0.046 C 
BRANCH  20  21
ATOM     21  N   UNL     1      34.795 -11.169 -25.339  0.00  0.00    +0.386 N 
ATOM     22  C   UNL     1      34.307 -10.285 -24.277  0.00  0.00    -0.101 C 
ATOM     23  C   UNL     1      35.664 -10.428 -26.256  0.00  0.00    -0.101 C 
ATOM     24  H   UNL     1      35.338 -11.920 -24.912  0.00  0.00    -0.080 HD
ENDBRANCH  20  21
ENDBRANCH  17  20
ENDBRANCH  16  17
ENDBRANCH   3  16
TORSDOF 5
ENDMDL
MODEL 9
REMARK VINA RESULT:      -8.0      3.053      5.449
REMARK  Name = 448668
REMARK  5 active torsions:
REMARK  status: ('A' for Active; 'I' for Inactive)
REMARK    1  A    between atoms: N_3  and  C_16
REMARK    2  A    between atoms: C_16  and  C_17
REMARK    3  A    between atoms: C_17  and  O_18
REMARK    4  A    between atoms: C_17  and  C_20
REMARK    5  A    between atoms: C_20  and  N_21
REMARK                            x       y       z     vdW  Elec       q    Type
REMARK                         _______ _______ _______ _____ _____    ______ ____
ROOT
ATOM      1 BR   UNL     1      38.450 -23.598 -11.974  0.00  0.00    -0.049 Br
ATOM      2 BR   UNL     1      36.384 -21.007 -20.063  0.00  0.00    -0.049 Br
ATOM      3  N   UNL     1      33.587 -23.749 -15.504  0.00  0.00    -0.325 N 
ATOM      4  C   UNL     1      34.580 -23.811 -14.554  0.00  0.00    +0.060 A 
ATOM      5  C   UNL     1      34.045 -23.139 -16.648  0.00  0.00    +0.060 A 
ATOM      6  C   UNL     1      35.717 -23.220 -15.105  0.00  0.00    +0.018 A 
ATOM      7  C   UNL     1      35.380 -22.796 -16.430  0.00  0.00    +0.018 A 
ATOM      8  C   UNL     1      34.555 -24.342 -13.259  0.00  0.00    +0.018 C 
ATOM      9  C   UNL     1      33.382 -22.870 -17.852  0.00  0.00    +0.018 C 
ATOM     10  C   UNL     1      36.890 -23.156 -14.324  0.00  0.00    +0.008 C 
ATOM     11  C   UNL     1      36.088 -22.150 -17.465  0.00  0.00    +0.008 C 
ATOM     12  C   UNL     1      35.729 -24.266 -12.505  0.00  0.00    +0.008 C 
ATOM     13  C   UNL     1      34.105 -22.230 -18.861  0.00  0.00    +0.008 C 
ATOM     14  C   UNL     1      36.881 -23.682 -13.027  0.00  0.00    +0.035 C 
ATOM     15  C   UNL     1      35.439 -21.874 -18.672  0.00  0.00    +0.035 C 
ENDROOT
BRANCH   3  16
ATOM     16  C   UNL     1      32.242 -24.256 -15.323  0.00  0.00    +0.133 C 
BRANCH  16  17
ATOM     17  C   UNL     1      31.460 -23.469 -14.264  0.00  0.00    +0.112 C 
BRANCH  17  18
ATOM     18  O   UNL     1      31.884 -22.105 -14.318  0.00  0.00    -0.385 OA
ATOM     19  H   UNL     1      32.825 -22.067 -14.548  0.00  0.00    +0.210 HD
ENDBRANCH  17  18
BRANCH  17  20
ATOM     20  C   UNL     1      29.947 -23.505 -14.506  0.00  0.00    -0.046 C 
BRANCH  20  21
ATOM     21  N   UNL     1      29.621 -23.640 -15.919  0.00  0.00    +0.386 N 
ATOM     22  C   UNL     1      29.016 -22.407 -16.429  0.00  0.00    -0.101 C 
ATOM     23  C   UNL     1      28.721 -24.774 -16.137  0.00  0.00    -0.101 C 
ATOM     24  H   UNL     1      30.488 -23.811 -16.429  0.00  0.00    -0.080 HD
ENDBRANCH  20  21
ENDBRANCH  17  20
ENDBRANCH  16  17
ENDBRANCH   3  16
TORSDOF 5
ENDMDL
