MODEL 1
REMARK VINA RESULT:      -7.6      0.000      0.000
REMARK  Name = 5359421
REMARK  2 active torsions:
REMARK  status: ('A' for Active; 'I' for Inactive)
REMARK    1  A    between atoms: C_10  and  O_21
REMARK    2  A    between atoms: C_18  and  O_23
REMARK                            x       y       z     vdW  Elec       q    Type
REMARK                         _______ _______ _______ _____ _____    ______ ____
ROOT
ATOM      1  O   UNL     1      31.364 -11.240 -22.627  0.00  0.00    -0.474 OA
ATOM      2  N   UNL     1      31.765  -6.142 -23.573  0.00  0.00    +0.387 N 
ATOM      3  C   UNL     1      31.509  -8.828 -22.489  0.00  0.00    +0.057 C 
ATOM      4  C   UNL     1      31.918  -7.621 -21.642  0.00  0.00    -0.011 C 
ATOM      5  C   UNL     1      31.011 -10.096 -21.771  0.00  0.00    +0.196 C 
ATOM      6  C   UNL     1      32.726  -6.664 -22.571  0.00  0.00    -0.053 C 
ATOM      7  C   UNL     1      30.540  -8.328 -23.587  0.00  0.00    -0.015 C 
ATOM      8  C   UNL     1      32.690  -9.446 -23.141  0.00  0.00    +0.013 C 
ATOM      9  C   UNL     1      32.626  -8.008 -20.342  0.00  0.00    +0.001 C 
ATOM     10  C   UNL     1      31.562 -10.320 -20.338  0.00  0.00    +0.151 C 
ATOM     11  C   UNL     1      34.006  -7.343 -23.171  0.00  0.00    +0.005 C 
ATOM     12  C   UNL     1      31.772  -9.016 -19.563  0.00  0.00    +0.033 C 
ATOM     13  C   UNL     1      31.137  -7.171 -24.410  0.00  0.00    -0.077 C 
ATOM     14  C   UNL     1      33.840  -8.793 -23.537  0.00  0.00    -0.025 C 
ATOM     15  C   UNL     1      32.504 -10.809 -23.271  0.00  0.00    +0.168 C 
ATOM     16  C   UNL     1      32.301  -5.050 -24.381  0.00  0.00    -0.101 C 
ATOM     17  C   UNL     1      34.811  -9.567 -24.173  0.00  0.00    -0.001 C 
ATOM     18  C   UNL     1      33.441 -11.588 -23.911  0.00  0.00    +0.167 C 
ATOM     19  C   UNL     1      34.601 -10.949 -24.375  0.00  0.00    +0.039 C 
ATOM     20  H   UNL     1      31.016  -5.751 -23.002  0.00  0.00    -0.080 HD
ENDROOT
BRANCH  10  21
ATOM     21  O   UNL     1      32.785 -11.057 -20.329  0.00  0.00    -0.381 OA
ATOM     22  H   UNL     1      33.444 -10.584 -19.800  0.00  0.00    +0.210 HD
ENDBRANCH  10  21
BRANCH  18  23
ATOM     23  O   UNL     1      33.277 -12.925 -24.058  0.00  0.00    -0.503 OA
ATOM     24  H   UNL     1      33.266 -13.304 -24.915  0.00  0.00    +0.292 HD
ENDBRANCH  18  23
TORSDOF 2
ENDMDL
MODEL 2
REMARK VINA RESULT:      -7.0     16.370     18.428
REMARK  Name = 5359421
REMARK  2 active torsions:
REMARK  status: ('A' for Active; 'I' for Inactive)
REMARK    1  A    between atoms: C_10  and  O_21
REMARK    2  A    between atoms: C_18  and  O_23
REMARK                            x       y       z     vdW  Elec       q    Type
REMARK                         _______ _______ _______ _____ _____    ______ ____
ROOT
ATOM      1  O   UNL     1      38.723 -23.900 -14.165  0.00  0.00    -0.474 OA
ATOM      2  N   UNL     1      33.769 -23.621 -15.723  0.00  0.00    +0.387 N 
ATOM      3  C   UNL     1      36.519 -24.311 -15.076  0.00  0.00    +0.057 C 
ATOM      4  C   UNL     1      35.453 -25.356 -15.415  0.00  0.00    -0.011 C 
ATOM      5  C   UNL     1      38.001 -24.721 -15.150  0.00  0.00    +0.196 C 
ATOM      6  C   UNL     1      34.092 -24.806 -14.890  0.00  0.00    -0.053 C 
ATOM      7  C   UNL     1      36.199 -23.031 -15.884  0.00  0.00    -0.015 C 
ATOM      8  C   UNL     1      36.499 -23.978 -13.630  0.00  0.00    +0.013 C 
ATOM      9  C   UNL     1      35.811 -26.762 -14.929  0.00  0.00    +0.001 C 
ATOM     10  C   UNL     1      38.298 -26.224 -14.901  0.00  0.00    +0.151 C 
ATOM     11  C   UNL     1      34.100 -24.546 -13.343  0.00  0.00    +0.005 C 
ATOM     12  C   UNL     1      37.204 -27.150 -15.438  0.00  0.00    +0.033 C 
ATOM     13  C   UNL     1      34.758 -22.539 -15.654  0.00  0.00    -0.077 C 
ATOM     14  C   UNL     1      35.396 -24.006 -12.800  0.00  0.00    -0.025 C 
ATOM     15  C   UNL     1      37.773 -23.666 -13.195  0.00  0.00    +0.168 C 
ATOM     16  C   UNL     1      32.413 -23.119 -15.521  0.00  0.00    -0.101 C 
ATOM     17  C   UNL     1      35.599 -23.611 -11.478  0.00  0.00    -0.001 C 
ATOM     18  C   UNL     1      37.992 -23.257 -11.899  0.00  0.00    +0.167 C 
ATOM     19  C   UNL     1      36.883 -23.222 -11.039  0.00  0.00    +0.039 C 
ATOM     20  H   UNL     1      33.815 -23.981 -16.675  0.00  0.00    -0.080 HD
ENDROOT
BRANCH  10  21
ATOM     21  O   UNL     1      38.509 -26.520 -13.520  0.00  0.00    -0.381 OA
ATOM     22  H   UNL     1      38.382 -27.469 -13.370  0.00  0.00    +0.210 HD
ENDBRANCH  10  21
BRANCH  18  23
ATOM     23  O   UNL     1      39.230 -22.938 -11.452  0.00  0.00    -0.503 OA
ATOM     24  H   UNL     1      39.983 -23.353 -11.824  0.00  0.00    +0.292 HD
ENDBRANCH  18  23
TORSDOF 2
ENDMDL
MODEL 3
REMARK VINA RESULT:      -6.2     16.790     18.476
REMARK  Name = 5359421
REMARK  2 active torsions:
REMARK  status: ('A' for Active; 'I' for Inactive)
REMARK    1  A    between atoms: C_10  and  O_21
REMARK    2  A    between atoms: C_18  and  O_23
REMARK                            x       y       z     vdW  Elec       q    Type
REMARK                         _______ _______ _______ _____ _____    ______ ____
ROOT
ATOM      1  O   UNL     1      38.076 -26.626 -13.104  0.00  0.00    -0.474 OA
ATOM      2  N   UNL     1      34.593 -23.822 -15.761  0.00  0.00    +0.387 N 
ATOM      3  C   UNL     1      36.320 -25.117 -13.813  0.00  0.00    +0.057 C 
ATOM      4  C   UNL     1      35.552 -23.827 -13.520  0.00  0.00    -0.011 C 
ATOM      5  C   UNL     1      36.868 -25.934 -12.627  0.00  0.00    +0.196 C 
ATOM      6  C   UNL     1      35.467 -23.032 -14.859  0.00  0.00    -0.053 C 
ATOM      7  C   UNL     1      35.471 -25.960 -14.794  0.00  0.00    -0.015 C 
ATOM      8  C   UNL     1      37.631 -24.826 -14.447  0.00  0.00    +0.013 C 
ATOM      9  C   UNL     1      36.122 -23.040 -12.338  0.00  0.00    +0.001 C 
ATOM     10  C   UNL     1      37.196 -25.123 -11.346  0.00  0.00    +0.151 C 
ATOM     11  C   UNL     1      36.879 -22.681 -15.445  0.00  0.00    +0.005 C 
ATOM     12  C   UNL     1      36.238 -23.953 -11.111  0.00  0.00    +0.033 C 
ATOM     13  C   UNL     1      35.085 -25.171 -16.059  0.00  0.00    -0.077 C 
ATOM     14  C   UNL     1      37.922 -23.751 -15.263  0.00  0.00    -0.025 C 
ATOM     15  C   UNL     1      38.563 -25.775 -14.073  0.00  0.00    +0.168 C 
ATOM     16  C   UNL     1      34.217 -23.109 -16.978  0.00  0.00    -0.101 C 
ATOM     17  C   UNL     1      39.214 -23.697 -15.787  0.00  0.00    -0.001 C 
ATOM     18  C   UNL     1      39.837 -25.750 -14.592  0.00  0.00    +0.167 C 
ATOM     19  C   UNL     1      40.155 -24.700 -15.468  0.00  0.00    +0.039 C 
ATOM     20  H   UNL     1      33.742 -23.949 -15.214  0.00  0.00    -0.080 HD
ENDROOT
BRANCH  10  21
ATOM     21  O   UNL     1      38.534 -24.625 -11.339  0.00  0.00    -0.381 OA
ATOM     22  H   UNL     1      39.150 -25.352 -11.159  0.00  0.00    +0.210 HD
ENDBRANCH  10  21
BRANCH  18  23
ATOM     23  O   UNL     1      40.766 -26.673 -14.247  0.00  0.00    -0.503 OA
ATOM     24  H   UNL     1      41.582 -26.712 -14.707  0.00  0.00    +0.292 HD
ENDBRANCH  18  23
TORSDOF 2
ENDMDL
MODEL 4
REMARK VINA RESULT:      -6.1     15.995     17.938
REMARK  Name = 5359421
REMARK  2 active torsions:
REMARK  status: ('A' for Active; 'I' for Inactive)
REMARK    1  A    between atoms: C_10  and  O_21
REMARK    2  A    between atoms: C_18  and  O_23
REMARK                            x       y       z     vdW  Elec       q    Type
REMARK                         _______ _______ _______ _____ _____    ______ ____
ROOT
ATOM      1  O   UNL     1      38.434 -23.573 -13.793  0.00  0.00    -0.474 OA
ATOM      2  N   UNL     1      33.243 -23.805 -13.992  0.00  0.00    +0.387 N 
ATOM      3  C   UNL     1      36.086 -23.275 -14.296  0.00  0.00    +0.057 C 
ATOM      4  C   UNL     1      35.046 -22.885 -15.349  0.00  0.00    -0.011 C 
ATOM      5  C   UNL     1      37.473 -22.608 -14.348  0.00  0.00    +0.196 C 
ATOM      6  C   UNL     1      33.921 -23.963 -15.302  0.00  0.00    -0.053 C 
ATOM      7  C   UNL     1      35.412 -23.175 -12.907  0.00  0.00    -0.015 C 
ATOM      8  C   UNL     1      36.553 -24.669 -14.499  0.00  0.00    +0.013 C 
ATOM      9  C   UNL     1      35.651 -22.644 -16.734  0.00  0.00    +0.001 C 
ATOM     10  C   UNL     1      37.944 -22.141 -15.750  0.00  0.00    +0.151 C 
ATOM     11  C   UNL     1      34.455 -25.408 -15.601  0.00  0.00    +0.005 C 
ATOM     12  C   UNL     1      36.800 -21.633 -16.632  0.00  0.00    +0.033 C 
ATOM     13  C   UNL     1      34.113 -23.999 -12.827  0.00  0.00    -0.077 C 
ATOM     14  C   UNL     1      35.818 -25.707 -15.035  0.00  0.00    -0.025 C 
ATOM     15  C   UNL     1      37.873 -24.791 -14.108  0.00  0.00    +0.168 C 
ATOM     16  C   UNL     1      32.013 -24.583 -13.876  0.00  0.00    -0.101 C 
ATOM     17  C   UNL     1      36.444 -26.952 -15.093  0.00  0.00    -0.001 C 
ATOM     18  C   UNL     1      38.504 -26.014 -14.141  0.00  0.00    +0.167 C 
ATOM     19  C   UNL     1      37.770 -27.105 -14.631  0.00  0.00    +0.039 C 
ATOM     20  H   UNL     1      32.976 -22.821 -13.981  0.00  0.00    -0.080 HD
ENDROOT
BRANCH  10  21
ATOM     21  O   UNL     1      38.648 -23.160 -16.460  0.00  0.00    -0.381 OA
ATOM     22  H   UNL     1      39.335 -22.755 -17.012  0.00  0.00    +0.210 HD
ENDBRANCH  10  21
BRANCH  18  23
ATOM     23  O   UNL     1      39.794 -26.161 -13.755  0.00  0.00    -0.503 OA
ATOM     24  H   UNL     1      40.297 -26.887 -14.069  0.00  0.00    +0.292 HD
ENDBRANCH  18  23
TORSDOF 2
ENDMDL
MODEL 5
REMARK VINA RESULT:      -5.7     16.381     18.463
REMARK  Name = 5359421
REMARK  2 active torsions:
REMARK  status: ('A' for Active; 'I' for Inactive)
REMARK    1  A    between atoms: C_10  and  O_21
REMARK    2  A    between atoms: C_18  and  O_23
REMARK                            x       y       z     vdW  Elec       q    Type
REMARK                         _______ _______ _______ _____ _____    ______ ____
ROOT
ATOM      1  O   UNL     1      38.318 -23.567 -12.527  0.00  0.00    -0.474 OA
ATOM      2  N   UNL     1      35.035 -23.456 -16.559  0.00  0.00    +0.387 N 
ATOM      3  C   UNL     1      37.059 -24.010 -14.546  0.00  0.00    +0.057 C 
ATOM      4  C   UNL     1      36.527 -25.073 -15.511  0.00  0.00    -0.011 C 
ATOM      5  C   UNL     1      38.386 -24.280 -13.812  0.00  0.00    +0.196 C 
ATOM      6  C   UNL     1      35.034 -24.727 -15.793  0.00  0.00    -0.053 C 
ATOM      7  C   UNL     1      37.035 -22.650 -15.282  0.00  0.00    -0.015 C 
ATOM      8  C   UNL     1      36.205 -23.912 -13.336  0.00  0.00    +0.013 C 
ATOM      9  C   UNL     1      36.778 -26.504 -15.030  0.00  0.00    +0.001 C 
ATOM     10  C   UNL     1      38.730 -25.773 -13.569  0.00  0.00    +0.151 C 
ATOM     11  C   UNL     1      34.159 -24.714 -14.490  0.00  0.00    +0.005 C 
ATOM     12  C   UNL     1      38.264 -26.691 -14.702  0.00  0.00    +0.033 C 
ATOM     13  C   UNL     1      35.644 -22.321 -15.857  0.00  0.00    -0.077 C 
ATOM     14  C   UNL     1      34.848 -24.161 -13.272  0.00  0.00    -0.025 C 
ATOM     15  C   UNL     1      36.970 -23.568 -12.239  0.00  0.00    +0.168 C 
ATOM     16  C   UNL     1      33.728 -23.106 -17.108  0.00  0.00    -0.101 C 
ATOM     17  C   UNL     1      34.235 -23.964 -12.035  0.00  0.00    -0.001 C 
ATOM     18  C   UNL     1      36.382 -23.352 -11.013  0.00  0.00    +0.167 C 
ATOM     19  C   UNL     1      34.995 -23.544 -10.921  0.00  0.00    +0.039 C 
ATOM     20  H   UNL     1      35.647 -23.657 -17.349  0.00  0.00    -0.080 HD
ENDROOT
BRANCH  10  21
ATOM     21  O   UNL     1      38.200 -26.265 -12.338  0.00  0.00    -0.381 OA
ATOM     22  H   UNL     1      38.677 -27.068 -12.078  0.00  0.00    +0.210 HD
ENDBRANCH  10  21
BRANCH  18  23
ATOM     23  O   UNL     1      37.110 -23.006  -9.924  0.00  0.00    -0.503 OA
ATOM     24  H   UNL     1      36.970 -23.446  -9.109  0.00  0.00    +0.292 HD
ENDBRANCH  18  23
TORSDOF 2
ENDMDL
MODEL 6
REMARK VINA RESULT:      -5.6     16.542     18.609
REMARK  Name = 5359421
REMARK  2 active torsions:
REMARK  status: ('A' for Active; 'I' for Inactive)
REMARK    1  A    between atoms: C_10  and  O_21
REMARK    2  A    between atoms: C_18  and  O_23
REMARK                            x       y       z     vdW  Elec       q    Type
REMARK                         _______ _______ _______ _____ _____    ______ ____
ROOT
ATOM      1  O   UNL     1      34.424 -24.593 -14.889  0.00  0.00    -0.474 OA
ATOM      2  N   UNL     1      39.407 -26.070 -14.683  0.00  0.00    +0.387 N 
ATOM      3  C   UNL     1      36.812 -24.855 -15.184  0.00  0.00    +0.057 C 
ATOM      4  C   UNL     1      38.136 -24.175 -15.541  0.00  0.00    -0.011 C 
ATOM      5  C   UNL     1      35.518 -24.339 -15.840  0.00  0.00    +0.196 C 
ATOM      6  C   UNL     1      39.180 -24.619 -14.472  0.00  0.00    -0.053 C 
ATOM      7  C   UNL     1      37.008 -26.382 -15.339  0.00  0.00    -0.015 C 
ATOM      8  C   UNL     1      36.426 -24.566 -13.780  0.00  0.00    +0.013 C 
ATOM      9  C   UNL     1      38.006 -22.662 -15.727  0.00  0.00    +0.001 C 
ATOM     10  C   UNL     1      35.522 -22.843 -16.252  0.00  0.00    +0.151 C 
ATOM     11  C   UNL     1      38.761 -24.219 -13.014  0.00  0.00    +0.005 C 
ATOM     12  C   UNL     1      36.890 -22.354 -16.733  0.00  0.00    +0.033 C 
ATOM     13  C   UNL     1      38.209 -26.903 -14.527  0.00  0.00    -0.077 C 
ATOM     14  C   UNL     1      37.288 -24.331 -12.727  0.00  0.00    -0.025 C 
ATOM     15  C   UNL     1      35.050 -24.520 -13.664  0.00  0.00    +0.168 C 
ATOM     16  C   UNL     1      40.531 -26.602 -13.918  0.00  0.00    -0.101 C 
ATOM     17  C   UNL     1      36.706 -24.122 -11.477  0.00  0.00    -0.001 C 
ATOM     18  C   UNL     1      34.455 -24.332 -12.437  0.00  0.00    +0.167 C 
ATOM     19  C   UNL     1      35.301 -24.143 -11.333  0.00  0.00    +0.039 C 
ATOM     20  H   UNL     1      39.662 -26.129 -15.668  0.00  0.00    -0.080 HD
ENDROOT
BRANCH  10  21
ATOM     21  O   UNL     1      35.075 -21.984 -15.202  0.00  0.00    -0.381 OA
ATOM     22  H   UNL     1      35.442 -21.096 -15.332  0.00  0.00    +0.210 HD
ENDBRANCH  10  21
BRANCH  18  23
ATOM     23  O   UNL     1      33.108 -24.291 -12.296  0.00  0.00    -0.503 OA
ATOM     24  H   UNL     1      32.661 -24.993 -11.865  0.00  0.00    +0.292 HD
ENDBRANCH  18  23
TORSDOF 2
ENDMDL
MODEL 7
REMARK VINA RESULT:      -5.6     16.463     18.514
REMARK  Name = 5359421
REMARK  2 active torsions:
REMARK  status: ('A' for Active; 'I' for Inactive)
REMARK    1  A    between atoms: C_10  and  O_21
REMARK    2  A    between atoms: C_18  and  O_23
REMARK                            x       y       z     vdW  Elec       q    Type
REMARK                         _______ _______ _______ _____ _____    ______ ____
ROOT
ATOM      1  O   UNL     1      34.412 -25.382 -12.196  0.00  0.00    -0.474 OA
ATOM      2  N   UNL     1      38.319 -24.843 -15.586  0.00  0.00    +0.387 N 
ATOM      3  C   UNL     1      35.811 -24.916 -14.115  0.00  0.00    +0.057 C 
ATOM      4  C   UNL     1      36.026 -24.048 -15.356  0.00  0.00    -0.011 C 
ATOM      5  C   UNL     1      34.369 -25.201 -13.656  0.00  0.00    +0.196 C 
ATOM      6  C   UNL     1      37.523 -23.612 -15.355  0.00  0.00    -0.053 C 
ATOM      7  C   UNL     1      36.662 -26.198 -14.281  0.00  0.00    -0.015 C 
ATOM      8  C   UNL     1      36.251 -24.209 -12.886  0.00  0.00    +0.013 C 
ATOM      9  C   UNL     1      35.021 -22.900 -15.472  0.00  0.00    +0.001 C 
ATOM     10  C   UNL     1      33.320 -24.118 -14.022  0.00  0.00    +0.151 C 
ATOM     11  C   UNL     1      37.916 -22.800 -14.072  0.00  0.00    +0.005 C 
ATOM     12  C   UNL     1      33.591 -23.448 -15.371  0.00  0.00    +0.033 C 
ATOM     13  C   UNL     1      38.143 -25.883 -14.565  0.00  0.00    -0.077 C 
ATOM     14  C   UNL     1      37.263 -23.273 -12.801  0.00  0.00    -0.025 C 
ATOM     15  C   UNL     1      35.470 -24.588 -11.812  0.00  0.00    +0.168 C 
ATOM     16  C   UNL     1      39.732 -24.583 -15.846  0.00  0.00    -0.101 C 
ATOM     17  C   UNL     1      37.538 -22.765 -11.531  0.00  0.00    -0.001 C 
ATOM     18  C   UNL     1      35.736 -24.112 -10.548  0.00  0.00    +0.167 C 
ATOM     19  C   UNL     1      36.792 -23.198 -10.413  0.00  0.00    +0.039 C 
ATOM     20  H   UNL     1      37.922 -25.224 -16.444  0.00  0.00    -0.080 HD
ENDROOT
BRANCH  10  21
ATOM     21  O   UNL     1      33.207 -23.104 -13.023  0.00  0.00    -0.381 OA
ATOM     22  H   UNL     1      33.231 -23.511 -12.144  0.00  0.00    +0.210 HD
ENDBRANCH  10  21
BRANCH  18  23
ATOM     23  O   UNL     1      34.989 -24.475  -9.478  0.00  0.00    -0.503 OA
ATOM     24  H   UNL     1      34.056 -24.524  -9.553  0.00  0.00    +0.292 HD
ENDBRANCH  18  23
TORSDOF 2
ENDMDL
MODEL 8
REMARK VINA RESULT:      -5.6      7.083      9.639
REMARK  Name = 5359421
REMARK  2 active torsions:
REMARK  status: ('A' for Active; 'I' for Inactive)
REMARK    1  A    between atoms: C_10  and  O_21
REMARK    2  A    between atoms: C_18  and  O_23
REMARK                            x       y       z     vdW  Elec       q    Type
REMARK                         _______ _______ _______ _____ _____    ______ ____
ROOT
ATOM      1  O   UNL     1      35.188 -15.365 -23.216  0.00  0.00    -0.474 OA
ATOM      2  N   UNL     1      35.250 -19.678 -20.311  0.00  0.00    +0.387 N 
ATOM      3  C   UNL     1      34.803 -17.093 -21.566  0.00  0.00    +0.057 C 
ATOM      4  C   UNL     1      33.803 -17.739 -20.605  0.00  0.00    -0.011 C 
ATOM      5  C   UNL     1      34.681 -15.585 -21.853  0.00  0.00    +0.196 C 
ATOM      6  C   UNL     1      33.908 -19.282 -20.804  0.00  0.00    -0.053 C 
ATOM      7  C   UNL     1      36.224 -17.517 -21.125  0.00  0.00    -0.015 C 
ATOM      8  C   UNL     1      34.579 -17.556 -22.959  0.00  0.00    +0.013 C 
ATOM      9  C   UNL     1      32.389 -17.167 -20.731  0.00  0.00    +0.001 C 
ATOM     10  C   UNL     1      33.256 -14.987 -21.717  0.00  0.00    +0.151 C 
ATOM     11  C   UNL     1      33.585 -19.725 -22.274  0.00  0.00    +0.005 C 
ATOM     12  C   UNL     1      32.431 -15.639 -20.605  0.00  0.00    +0.033 C 
ATOM     13  C   UNL     1      36.370 -19.047 -21.017  0.00  0.00    -0.077 C 
ATOM     14  C   UNL     1      34.082 -18.786 -23.341  0.00  0.00    -0.025 C 
ATOM     15  C   UNL     1      34.903 -16.554 -23.852  0.00  0.00    +0.168 C 
ATOM     16  C   UNL     1      35.429 -21.124 -20.209  0.00  0.00    -0.101 C 
ATOM     17  C   UNL     1      33.994 -19.026 -24.712  0.00  0.00    -0.001 C 
ATOM     18  C   UNL     1      34.841 -16.776 -25.209  0.00  0.00    +0.167 C 
ATOM     19  C   UNL     1      34.390 -18.034 -25.636  0.00  0.00    +0.039 C 
ATOM     20  H   UNL     1      35.272 -19.306 -19.362  0.00  0.00    -0.080 HD
ENDROOT
BRANCH  10  21
ATOM     21  O   UNL     1      32.513 -15.057 -22.935  0.00  0.00    -0.381 OA
ATOM     22  H   UNL     1      31.596 -15.305 -22.741  0.00  0.00    +0.210 HD
ENDBRANCH  10  21
BRANCH  18  23
ATOM     23  O   UNL     1      35.162 -15.811 -26.105  0.00  0.00    -0.503 OA
ATOM     24  H   UNL     1      34.535 -15.149 -26.324  0.00  0.00    +0.292 HD
ENDBRANCH  18  23
TORSDOF 2
ENDMDL
MODEL 9
REMARK VINA RESULT:      -4.6      2.676      4.619
REMARK  Name = 5359421
REMARK  2 active torsions:
REMARK  status: ('A' for Active; 'I' for Inactive)
REMARK    1  A    between atoms: C_10  and  O_21
REMARK    2  A    between atoms: C_18  and  O_23
REMARK                            x       y       z     vdW  Elec       q    Type
REMARK                         _______ _______ _______ _____ _____    ______ ____
ROOT
ATOM      1  O   UNL     1      32.742  -5.542 -21.539  0.00  0.00    -0.474 OA
ATOM      2  N   UNL     1      34.226  -9.916 -23.930  0.00  0.00    +0.387 N 
ATOM      3  C   UNL     1      33.292  -7.821 -22.143  0.00  0.00    +0.057 C 
ATOM      4  C   UNL     1      33.008  -9.306 -21.909  0.00  0.00    -0.011 C 
ATOM      5  C   UNL     1      33.119  -6.844 -20.965  0.00  0.00    +0.196 C 
ATOM      6  C   UNL     1      32.879  -9.973 -23.312  0.00  0.00    -0.053 C 
ATOM      7  C   UNL     1      34.671  -7.706 -22.834  0.00  0.00    -0.015 C 
ATOM      8  C   UNL     1      32.265  -7.214 -23.026  0.00  0.00    +0.013 C 
ATOM      9  C   UNL     1      31.829  -9.554 -20.966  0.00  0.00    +0.001 C 
ATOM     10  C   UNL     1      32.086  -7.263 -19.886  0.00  0.00    +0.151 C 
ATOM     11  C   UNL     1      31.727  -9.348 -24.175  0.00  0.00    +0.005 C 
ATOM     12  C   UNL     1      32.033  -8.776 -19.660  0.00  0.00    +0.033 C 
ATOM     13  C   UNL     1      34.756  -8.560 -24.113  0.00  0.00    -0.077 C 
ATOM     14  C   UNL     1      31.562  -7.860 -24.025  0.00  0.00    -0.025 C 
ATOM     15  C   UNL     1      32.065  -5.890 -22.687  0.00  0.00    +0.168 C 
ATOM     16  C   UNL     1      34.341 -10.704 -25.153  0.00  0.00    -0.101 C 
ATOM     17  C   UNL     1      30.671  -7.082 -24.765  0.00  0.00    -0.001 C 
ATOM     18  C   UNL     1      31.204  -5.101 -23.415  0.00  0.00    +0.167 C 
ATOM     19  C   UNL     1      30.510  -5.710 -24.473  0.00  0.00    +0.039 C 
ATOM     20  H   UNL     1      34.825 -10.357 -23.233  0.00  0.00    -0.080 HD
ENDROOT
BRANCH  10  21
ATOM     21  O   UNL     1      30.768  -6.800 -20.180  0.00  0.00    -0.381 OA
ATOM     22  H   UNL     1      30.476  -6.190 -19.486  0.00  0.00    +0.210 HD
ENDBRANCH  10  21
BRANCH  18  23
ATOM     23  O   UNL     1      30.998  -3.798 -23.107  0.00  0.00    -0.503 OA
ATOM     24  H   UNL     1      31.714  -3.265 -22.821  0.00  0.00    +0.292 HD
ENDBRANCH  18  23
TORSDOF 2
ENDMDL
