MODEL 1
REMARK VINA RESULT:      -8.5      0.000      0.000
REMARK  Name = 216236
REMARK  5 active torsions:
REMARK  status: ('A' for Active; 'I' for Inactive)
REMARK    1  A    between atoms: N_2  and  C_6
REMARK    2  A    between atoms: C_3  and  C_16
REMARK    3  A    between atoms: C_7  and  O_13
REMARK    4  A    between atoms: C_17  and  O_25
REMARK    5  A    between atoms: C_21  and  N_22
REMARK                            x       y       z     vdW  Elec       q    Type
REMARK                         _______ _______ _______ _____ _____    ______ ____
ROOT
ATOM      1  O   UNL     1      37.740 -21.777 -15.808  0.00  0.00    -0.270 OA
ATOM      2  N   UNL     1      37.050 -23.973 -15.528  0.00  0.00    -0.300 N 
ATOM      3  C   UNL     1      36.991 -22.708 -16.090  0.00  0.00    +0.249 C 
ATOM      4  H   UNL     1      36.403 -24.654 -15.822  0.00  0.00    +0.150 HD
ENDROOT
BRANCH   2   6
ATOM      5  N   UNL     1      37.234 -26.874 -13.269  0.00  0.00    +0.385 N 
ATOM      6  C   UNL     1      38.030 -24.328 -14.524  0.00  0.00    +0.095 C 
ATOM      7  C   UNL     1      37.405 -24.408 -13.124  0.00  0.00    +0.112 C 
ATOM      8  C   UNL     1      38.708 -25.659 -14.866  0.00  0.00    -0.001 C 
ATOM      9  C   UNL     1      36.507 -25.638 -12.974  0.00  0.00    -0.050 C 
ATOM     10  C   UNL     1      37.780 -26.855 -14.629  0.00  0.00    -0.080 C 
ATOM     11  H   UNL     1      36.596 -27.665 -13.178  0.00  0.00    -0.084 HD
ATOM     12  H   UNL     1      38.009 -26.959 -12.611  0.00  0.00    -0.084 HD
BRANCH   7  13
ATOM     13  O   UNL     1      36.652 -23.236 -12.837  0.00  0.00    -0.354 OA
ATOM     14  C   UNL     1      35.438 -23.550 -12.167  0.00  0.00    +0.174 C 
ENDBRANCH   7  13
ENDBRANCH   2   6
BRANCH   3  16
ATOM     15 CL   UNL     1      35.610 -20.699 -20.618  0.00  0.00    -0.081 Cl
ATOM     16  C   UNL     1      35.911 -22.495 -17.088  0.00  0.00    +0.088 C 
ATOM     17  C   UNL     1      34.647 -22.995 -16.849  0.00  0.00    +0.144 C 
ATOM     18  C   UNL     1      36.218 -21.793 -18.237  0.00  0.00    +0.020 C 
ATOM     19  C   UNL     1      33.647 -22.783 -17.797  0.00  0.00    +0.052 C 
ATOM     20  C   UNL     1      35.217 -21.582 -19.185  0.00  0.00    +0.071 C 
ATOM     21  C   UNL     1      33.931 -22.078 -18.965  0.00  0.00    +0.055 C 
BRANCH  21  22
ATOM     22  N   UNL     1      32.896 -21.879 -19.907  0.00  0.00    -0.356 N 
ATOM     23  H   UNL     1      32.372 -22.646 -20.232  0.00  0.00    +0.142 HD
ATOM     24  H   UNL     1      32.701 -20.973 -20.240  0.00  0.00    +0.142 HD
ENDBRANCH  21  22
BRANCH  17  25
ATOM     25  O   UNL     1      34.350 -23.686 -15.712  0.00  0.00    -0.471 OA
ATOM     26  C   UNL     1      33.086 -23.420 -15.106  0.00  0.00    +0.252 C 
ENDBRANCH  17  25
ENDBRANCH   3  16
TORSDOF 5
ENDMDL
MODEL 2
REMARK VINA RESULT:      -8.3      2.329      3.780
REMARK  Name = 216236
REMARK  5 active torsions:
REMARK  status: ('A' for Active; 'I' for Inactive)
REMARK    1  A    between atoms: N_2  and  C_6
REMARK    2  A    between atoms: C_3  and  C_16
REMARK    3  A    between atoms: C_7  and  O_13
REMARK    4  A    between atoms: C_17  and  O_25
REMARK    5  A    between atoms: C_21  and  N_22
REMARK                            x       y       z     vdW  Elec       q    Type
REMARK                         _______ _______ _______ _____ _____    ______ ____
ROOT
ATOM      1  O   UNL     1      33.234 -24.432 -12.840  0.00  0.00    -0.270 OA
ATOM      2  N   UNL     1      35.460 -24.487 -13.488  0.00  0.00    -0.300 N 
ATOM      3  C   UNL     1      34.110 -24.241 -13.679  0.00  0.00    +0.249 C 
ATOM      4  H   UNL     1      36.086 -24.300 -14.224  0.00  0.00    +0.150 HD
ENDROOT
BRANCH   2   6
ATOM      5  N   UNL     1      38.594 -23.751 -11.702  0.00  0.00    +0.385 N 
ATOM      6  C   UNL     1      35.983 -25.007 -12.242  0.00  0.00    +0.095 C 
ATOM      7  C   UNL     1      37.317 -25.737 -12.448  0.00  0.00    +0.112 C 
ATOM      8  C   UNL     1      36.157 -23.888 -11.211  0.00  0.00    -0.001 C 
ATOM      9  C   UNL     1      38.456 -24.761 -12.753  0.00  0.00    -0.050 C 
ATOM     10  C   UNL     1      37.354 -22.989 -11.535  0.00  0.00    -0.080 C 
ATOM     11  H   UNL     1      39.348 -23.111 -11.953  0.00  0.00    -0.084 HD
ATOM     12  H   UNL     1      38.803 -24.225 -10.824  0.00  0.00    -0.084 HD
BRANCH   7  13
ATOM     13  O   UNL     1      37.218 -26.690 -13.501  0.00  0.00    -0.354 OA
ATOM     14  C   UNL     1      38.101 -26.376 -14.569  0.00  0.00    +0.174 C 
ENDBRANCH   7  13
ENDBRANCH   2   6
BRANCH   3  16
ATOM     15 CL   UNL     1      30.343 -22.716 -16.830  0.00  0.00    -0.081 Cl
ATOM     16  C   UNL     1      33.731 -23.733 -15.022  0.00  0.00    +0.088 C 
ATOM     17  C   UNL     1      34.706 -23.518 -15.976  0.00  0.00    +0.144 C 
ATOM     18  C   UNL     1      32.394 -23.490 -15.272  0.00  0.00    +0.020 C 
ATOM     19  C   UNL     1      34.329 -23.042 -17.231  0.00  0.00    +0.052 C 
ATOM     20  C   UNL     1      32.018 -23.013 -16.528  0.00  0.00    +0.071 C 
ATOM     21  C   UNL     1      32.986 -22.788 -17.507  0.00  0.00    +0.055 C 
BRANCH  21  22
ATOM     22  N   UNL     1      32.636 -22.307 -18.789  0.00  0.00    -0.356 N 
ATOM     23  H   UNL     1      31.688 -22.210 -19.036  0.00  0.00    +0.142 HD
ATOM     24  H   UNL     1      33.340 -22.069 -19.435  0.00  0.00    +0.142 HD
ENDBRANCH  21  22
BRANCH  17  25
ATOM     25  O   UNL     1      36.024 -23.762 -15.725  0.00  0.00    -0.471 OA
ATOM     26  C   UNL     1      36.951 -22.744 -16.097  0.00  0.00    +0.252 C 
ENDBRANCH  17  25
ENDBRANCH   3  16
TORSDOF 5
ENDMDL
MODEL 3
REMARK VINA RESULT:      -8.1      2.184      3.250
REMARK  Name = 216236
REMARK  5 active torsions:
REMARK  status: ('A' for Active; 'I' for Inactive)
REMARK    1  A    between atoms: N_2  and  C_6
REMARK    2  A    between atoms: C_3  and  C_16
REMARK    3  A    between atoms: C_7  and  O_13
REMARK    4  A    between atoms: C_17  and  O_25
REMARK    5  A    between atoms: C_21  and  N_22
REMARK                            x       y       z     vdW  Elec       q    Type
REMARK                         _______ _______ _______ _____ _____    ______ ____
ROOT
ATOM      1  O   UNL     1      33.220 -24.054 -13.072  0.00  0.00    -0.270 OA
ATOM      2  N   UNL     1      35.428 -24.426 -13.674  0.00  0.00    -0.300 N 
ATOM      3  C   UNL     1      34.123 -24.027 -13.905  0.00  0.00    +0.249 C 
ATOM      4  H   UNL     1      36.081 -24.365 -14.408  0.00  0.00    +0.150 HD
ENDROOT
BRANCH   2   6
ATOM      5  N   UNL     1      38.479 -23.727 -11.735  0.00  0.00    +0.385 N 
ATOM      6  C   UNL     1      35.868 -24.928 -12.389  0.00  0.00    +0.095 C 
ATOM      7  C   UNL     1      37.192 -25.697 -12.504  0.00  0.00    +0.112 C 
ATOM      8  C   UNL     1      36.016 -23.789 -11.376  0.00  0.00    -0.001 C 
ATOM      9  C   UNL     1      38.371 -24.758 -12.768  0.00  0.00    -0.050 C 
ATOM     10  C   UNL     1      37.253 -22.929 -11.654  0.00  0.00    -0.080 C 
ATOM     11  H   UNL     1      39.262 -23.112 -11.959  0.00  0.00    -0.084 HD
ATOM     12  H   UNL     1      38.627 -24.184 -10.836  0.00  0.00    -0.084 HD
BRANCH   7  13
ATOM     13  O   UNL     1      37.125 -26.672 -13.538  0.00  0.00    -0.354 OA
ATOM     14  C   UNL     1      38.088 -26.421 -14.552  0.00  0.00    +0.174 C 
ENDBRANCH   7  13
ENDBRANCH   2   6
BRANCH   3  16
ATOM     15 CL   UNL     1      35.929 -22.049 -18.294  0.00  0.00    -0.081 Cl
ATOM     16  C   UNL     1      33.825 -23.560 -15.283  0.00  0.00    +0.088 C 
ATOM     17  C   UNL     1      32.531 -23.609 -15.760  0.00  0.00    +0.144 C 
ATOM     18  C   UNL     1      34.872 -23.086 -16.049  0.00  0.00    +0.020 C 
ATOM     19  C   UNL     1      32.272 -23.164 -17.056  0.00  0.00    +0.052 C 
ATOM     20  C   UNL     1      34.613 -22.642 -17.346  0.00  0.00    +0.071 C 
ATOM     21  C   UNL     1      33.312 -22.683 -17.850  0.00  0.00    +0.055 C 
BRANCH  21  22
ATOM     22  N   UNL     1      33.018 -22.239 -19.159  0.00  0.00    -0.356 N 
ATOM     23  H   UNL     1      32.433 -22.776 -19.741  0.00  0.00    +0.142 HD
ATOM     24  H   UNL     1      33.399 -21.393 -19.489  0.00  0.00    +0.142 HD
ENDBRANCH  21  22
BRANCH  17  25
ATOM     25  O   UNL     1      31.500 -24.075 -14.999  0.00  0.00    -0.471 OA
ATOM     26  C   UNL     1      30.321 -23.274 -14.947  0.00  0.00    +0.252 C 
ENDBRANCH  17  25
ENDBRANCH   3  16
TORSDOF 5
ENDMDL
MODEL 4
REMARK VINA RESULT:      -7.9      2.440      4.333
REMARK  Name = 216236
REMARK  5 active torsions:
REMARK  status: ('A' for Active; 'I' for Inactive)
REMARK    1  A    between atoms: N_2  and  C_6
REMARK    2  A    between atoms: C_3  and  C_16
REMARK    3  A    between atoms: C_7  and  O_13
REMARK    4  A    between atoms: C_17  and  O_25
REMARK    5  A    between atoms: C_21  and  N_22
REMARK                            x       y       z     vdW  Elec       q    Type
REMARK                         _______ _______ _______ _____ _____    ______ ____
ROOT
ATOM      1  O   UNL     1      33.726 -24.152 -19.077  0.00  0.00    -0.270 OA
ATOM      2  N   UNL     1      33.697 -22.983 -17.075  0.00  0.00    -0.300 N 
ATOM      3  C   UNL     1      33.967 -23.141 -18.424  0.00  0.00    +0.249 C 
ATOM      4  H   UNL     1      33.929 -22.131 -16.640  0.00  0.00    +0.150 HD
ENDROOT
BRANCH   2   6
ATOM      5  N   UNL     1      32.844 -23.096 -13.495  0.00  0.00    +0.385 N 
ATOM      6  C   UNL     1      33.085 -24.027 -16.281  0.00  0.00    +0.095 C 
ATOM      7  C   UNL     1      34.015 -24.506 -15.158  0.00  0.00    +0.112 C 
ATOM      8  C   UNL     1      31.754 -23.555 -15.686  0.00  0.00    -0.001 C 
ATOM      9  C   UNL     1      34.149 -23.462 -14.049  0.00  0.00    -0.050 C 
ATOM     10  C   UNL     1      31.959 -22.565 -14.535  0.00  0.00    -0.080 C 
ATOM     11  H   UNL     1      32.976 -22.385 -12.775  0.00  0.00    -0.084 HD
ATOM     12  H   UNL     1      32.414 -23.931 -13.100  0.00  0.00    -0.084 HD
BRANCH   7  13
ATOM     13  O   UNL     1      35.306 -24.821 -15.668  0.00  0.00    -0.354 OA
ATOM     14  C   UNL     1      36.276 -24.870 -14.631  0.00  0.00    +0.174 C 
ENDBRANCH   7  13
ENDBRANCH   2   6
BRANCH   3  16
ATOM     15 CL   UNL     1      33.533 -19.238 -21.744  0.00  0.00    -0.081 Cl
ATOM     16  C   UNL     1      34.622 -21.985 -19.090  0.00  0.00    +0.088 C 
ATOM     17  C   UNL     1      35.938 -21.683 -18.804  0.00  0.00    +0.144 C 
ATOM     18  C   UNL     1      33.876 -21.244 -19.986  0.00  0.00    +0.020 C 
ATOM     19  C   UNL     1      36.535 -20.595 -19.441  0.00  0.00    +0.052 C 
ATOM     20  C   UNL     1      34.474 -20.156 -20.622  0.00  0.00    +0.071 C 
ATOM     21  C   UNL     1      35.803 -19.831 -20.349  0.00  0.00    +0.055 C 
BRANCH  21  22
ATOM     22  N   UNL     1      36.435 -18.735 -20.979  0.00  0.00    -0.356 N 
ATOM     23  H   UNL     1      36.791 -18.831 -21.892  0.00  0.00    +0.142 HD
ATOM     24  H   UNL     1      36.521 -17.877 -20.504  0.00  0.00    +0.142 HD
ENDBRANCH  21  22
BRANCH  17  25
ATOM     25  O   UNL     1      36.670 -22.419 -17.921  0.00  0.00    -0.471 OA
ATOM     26  C   UNL     1      37.089 -21.764 -16.725  0.00  0.00    +0.252 C 
ENDBRANCH  17  25
ENDBRANCH   3  16
TORSDOF 5
ENDMDL
MODEL 5
REMARK VINA RESULT:      -7.9      2.398      3.094
REMARK  Name = 216236
REMARK  5 active torsions:
REMARK  status: ('A' for Active; 'I' for Inactive)
REMARK    1  A    between atoms: N_2  and  C_6
REMARK    2  A    between atoms: C_3  and  C_16
REMARK    3  A    between atoms: C_7  and  O_13
REMARK    4  A    between atoms: C_17  and  O_25
REMARK    5  A    between atoms: C_21  and  N_22
REMARK                            x       y       z     vdW  Elec       q    Type
REMARK                         _______ _______ _______ _____ _____    ______ ____
ROOT
ATOM      1  O   UNL     1      36.541 -22.435 -16.347  0.00  0.00    -0.270 OA
ATOM      2  N   UNL     1      36.180 -24.346 -15.084  0.00  0.00    -0.300 N 
ATOM      3  C   UNL     1      35.784 -23.276 -15.869  0.00  0.00    +0.249 C 
ATOM      4  H   UNL     1      35.496 -24.968 -14.747  0.00  0.00    +0.150 HD
ENDROOT
BRANCH   2   6
ATOM      5  N   UNL     1      37.694 -26.632 -12.626  0.00  0.00    +0.385 N 
ATOM      6  C   UNL     1      37.567 -24.583 -14.741  0.00  0.00    +0.095 C 
ATOM      7  C   UNL     1      37.854 -24.247 -13.271  0.00  0.00    +0.112 C 
ATOM      8  C   UNL     1      37.962 -26.035 -15.029  0.00  0.00    -0.001 C 
ATOM      9  C   UNL     1      37.234 -25.275 -12.324  0.00  0.00    -0.050 C 
ATOM     10  C   UNL     1      37.366 -27.006 -14.004  0.00  0.00    -0.080 C 
ATOM     11  H   UNL     1      37.243 -27.286 -11.987  0.00  0.00    -0.084 HD
ATOM     12  H   UNL     1      38.707 -26.662 -12.516  0.00  0.00    -0.084 HD
BRANCH   7  13
ATOM     13  O   UNL     1      37.369 -22.950 -12.943  0.00  0.00    -0.354 OA
ATOM     14  C   UNL     1      37.047 -22.851 -11.563  0.00  0.00    +0.174 C 
ENDBRANCH   7  13
ENDBRANCH   2   6
BRANCH   3  16
ATOM     15 CL   UNL     1      31.054 -23.236 -13.851  0.00  0.00    -0.081 Cl
ATOM     16  C   UNL     1      34.323 -23.158 -16.107  0.00  0.00    +0.088 C 
ATOM     17  C   UNL     1      33.849 -22.973 -17.390  0.00  0.00    +0.144 C 
ATOM     18  C   UNL     1      33.478 -23.238 -15.017  0.00  0.00    +0.020 C 
ATOM     19  C   UNL     1      32.473 -22.865 -17.593  0.00  0.00    +0.052 C 
ATOM     20  C   UNL     1      32.102 -23.130 -15.221  0.00  0.00    +0.071 C 
ATOM     21  C   UNL     1      31.600 -22.943 -16.509  0.00  0.00    +0.055 C 
BRANCH  21  22
ATOM     22  N   UNL     1      30.211 -22.831 -16.747  0.00  0.00    -0.356 N 
ATOM     23  H   UNL     1      29.659 -22.253 -16.172  0.00  0.00    +0.142 HD
ATOM     24  H   UNL     1      29.797 -23.331 -17.487  0.00  0.00    +0.142 HD
ENDBRANCH  21  22
BRANCH  17  25
ATOM     25  O   UNL     1      34.687 -22.896 -18.463  0.00  0.00    -0.471 OA
ATOM     26  C   UNL     1      34.522 -21.779 -19.334  0.00  0.00    +0.252 C 
ENDBRANCH  17  25
ENDBRANCH   3  16
TORSDOF 5
ENDMDL
MODEL 6
REMARK VINA RESULT:      -7.6     11.404     14.315
REMARK  Name = 216236
REMARK  5 active torsions:
REMARK  status: ('A' for Active; 'I' for Inactive)
REMARK    1  A    between atoms: N_2  and  C_6
REMARK    2  A    between atoms: C_3  and  C_16
REMARK    3  A    between atoms: C_7  and  O_13
REMARK    4  A    between atoms: C_17  and  O_25
REMARK    5  A    between atoms: C_21  and  N_22
REMARK                            x       y       z     vdW  Elec       q    Type
REMARK                         _______ _______ _______ _____ _____    ______ ____
ROOT
ATOM      1  O   UNL     1      31.126 -11.872 -22.259  0.00  0.00    -0.270 OA
ATOM      2  N   UNL     1      33.122 -12.977 -22.671  0.00  0.00    -0.300 N 
ATOM      3  C   UNL     1      32.306 -11.861 -22.600  0.00  0.00    +0.249 C 
ATOM      4  H   UNL     1      34.058 -12.865 -22.957  0.00  0.00    +0.150 HD
ENDROOT
BRANCH   2   6
ATOM      5  N   UNL     1      34.919 -15.914 -21.366  0.00  0.00    +0.385 N 
ATOM      6  C   UNL     1      32.649 -14.305 -22.339  0.00  0.00    +0.095 C 
ATOM      7  C   UNL     1      33.334 -15.381 -23.192  0.00  0.00    +0.112 C 
ATOM      8  C   UNL     1      32.863 -14.607 -20.852  0.00  0.00    -0.001 C 
ATOM      9  C   UNL     1      34.796 -15.581 -22.786  0.00  0.00    -0.050 C 
ATOM     10  C   UNL     1      34.338 -14.865 -20.525  0.00  0.00    -0.080 C 
ATOM     11  H   UNL     1      35.907 -16.018 -21.134  0.00  0.00    -0.084 HD
ATOM     12  H   UNL     1      34.416 -16.783 -21.193  0.00  0.00    -0.084 HD
BRANCH   7  13
ATOM     13  O   UNL     1      33.269 -15.051 -24.575  0.00  0.00    -0.354 OA
ATOM     14  C   UNL     1      33.873 -16.055 -25.377  0.00  0.00    +0.174 C 
ENDBRANCH   7  13
ENDBRANCH   2   6
BRANCH   3  16
ATOM     15 CL   UNL     1      32.597  -6.776 -21.890  0.00  0.00    -0.081 Cl
ATOM     16  C   UNL     1      32.934 -10.576 -22.999  0.00  0.00    +0.088 C 
ATOM     17  C   UNL     1      33.890 -10.558 -23.995  0.00  0.00    +0.144 C 
ATOM     18  C   UNL     1      32.532  -9.426 -22.348  0.00  0.00    +0.020 C 
ATOM     19  C   UNL     1      34.467  -9.341 -24.356  0.00  0.00    +0.052 C 
ATOM     20  C   UNL     1      33.110  -8.209 -22.709  0.00  0.00    +0.071 C 
ATOM     21  C   UNL     1      34.078  -8.167 -23.713  0.00  0.00    +0.055 C 
BRANCH  21  22
ATOM     22  N   UNL     1      34.681  -6.949 -24.101  0.00  0.00    -0.356 N 
ATOM     23  H   UNL     1      34.390  -6.103 -23.689  0.00  0.00    +0.142 HD
ATOM     24  H   UNL     1      35.389  -6.946 -24.784  0.00  0.00    +0.142 HD
ENDBRANCH  21  22
BRANCH  17  25
ATOM     25  O   UNL     1      34.282 -11.696 -24.636  0.00  0.00    -0.471 OA
ATOM     26  C   UNL     1      33.921 -11.820 -26.010  0.00  0.00    +0.252 C 
ENDBRANCH  17  25
ENDBRANCH   3  16
TORSDOF 5
ENDMDL
MODEL 7
REMARK VINA RESULT:      -7.5     10.241     13.825
REMARK  Name = 216236
REMARK  5 active torsions:
REMARK  status: ('A' for Active; 'I' for Inactive)
REMARK    1  A    between atoms: N_2  and  C_6
REMARK    2  A    between atoms: C_3  and  C_16
REMARK    3  A    between atoms: C_7  and  O_13
REMARK    4  A    between atoms: C_17  and  O_25
REMARK    5  A    between atoms: C_21  and  N_22
REMARK                            x       y       z     vdW  Elec       q    Type
REMARK                         _______ _______ _______ _____ _____    ______ ____
ROOT
ATOM      1  O   UNL     1      32.714 -14.240 -25.209  0.00  0.00    -0.270 OA
ATOM      2  N   UNL     1      33.907 -12.580 -24.113  0.00  0.00    -0.300 N 
ATOM      3  C   UNL     1      33.487 -13.883 -24.323  0.00  0.00    +0.249 C 
ATOM      4  H   UNL     1      34.530 -12.395 -23.374  0.00  0.00    +0.150 HD
ENDROOT
BRANCH   2   6
ATOM      5  N   UNL     1      35.058  -9.088 -24.297  0.00  0.00    +0.385 N 
ATOM      6  C   UNL     1      33.462 -11.480 -24.943  0.00  0.00    +0.095 C 
ATOM      7  C   UNL     1      32.919 -10.318 -24.100  0.00  0.00    +0.112 C 
ATOM      8  C   UNL     1      34.594 -10.982 -25.846  0.00  0.00    -0.001 C 
ATOM      9  C   UNL     1      34.039  -9.577 -23.367  0.00  0.00    -0.050 C 
ATOM     10  C   UNL     1      35.647 -10.189 -25.063  0.00  0.00    -0.080 C 
ATOM     11  H   UNL     1      35.794  -8.620 -23.768  0.00  0.00    -0.084 HD
ATOM     12  H   UNL     1      34.618  -8.440 -24.949  0.00  0.00    -0.084 HD
BRANCH   7  13
ATOM     13  O   UNL     1      31.961 -10.780 -23.155  0.00  0.00    -0.354 OA
ATOM     14  C   UNL     1      31.979  -9.994 -21.971  0.00  0.00    +0.174 C 
ENDBRANCH   7  13
ENDBRANCH   2   6
BRANCH   3  16
ATOM     15 CL   UNL     1      35.696 -18.479 -23.660  0.00  0.00    -0.081 Cl
ATOM     16  C   UNL     1      34.013 -14.892 -23.369  0.00  0.00    +0.088 C 
ATOM     17  C   UNL     1      33.964 -14.646 -22.012  0.00  0.00    +0.144 C 
ATOM     18  C   UNL     1      34.542 -16.060 -23.885  0.00  0.00    +0.020 C 
ATOM     19  C   UNL     1      34.462 -15.607 -21.133  0.00  0.00    +0.052 C 
ATOM     20  C   UNL     1      35.040 -17.021 -23.005  0.00  0.00    +0.071 C 
ATOM     21  C   UNL     1      35.001 -16.793 -21.629  0.00  0.00    +0.055 C 
BRANCH  21  22
ATOM     22  N   UNL     1      35.498 -17.748 -20.712  0.00  0.00    -0.356 N 
ATOM     23  H   UNL     1      34.891 -18.419 -20.324  0.00  0.00    +0.142 HD
ATOM     24  H   UNL     1      36.450 -17.741 -20.462  0.00  0.00    +0.142 HD
ENDBRANCH  21  22
BRANCH  17  25
ATOM     25  O   UNL     1      33.440 -13.493 -21.509  0.00  0.00    -0.471 OA
ATOM     26  C   UNL     1      32.354 -13.622 -20.593  0.00  0.00    +0.252 C 
ENDBRANCH  17  25
ENDBRANCH   3  16
TORSDOF 5
ENDMDL
MODEL 8
REMARK VINA RESULT:      -7.2     11.960     15.314
REMARK  Name = 216236
REMARK  5 active torsions:
REMARK  status: ('A' for Active; 'I' for Inactive)
REMARK    1  A    between atoms: N_2  and  C_6
REMARK    2  A    between atoms: C_3  and  C_16
REMARK    3  A    between atoms: C_7  and  O_13
REMARK    4  A    between atoms: C_17  and  O_25
REMARK    5  A    between atoms: C_21  and  N_22
REMARK                            x       y       z     vdW  Elec       q    Type
REMARK                         _______ _______ _______ _____ _____    ______ ____
ROOT
ATOM      1  O   UNL     1      30.462 -11.597 -21.659  0.00  0.00    -0.270 OA
ATOM      2  N   UNL     1      32.164 -10.189 -22.364  0.00  0.00    -0.300 N 
ATOM      3  C   UNL     1      31.584 -11.424 -22.128  0.00  0.00    +0.249 C 
ATOM      4  H   UNL     1      33.072 -10.155 -22.744  0.00  0.00    +0.150 HD
ENDROOT
BRANCH   2   6
ATOM      5  N   UNL     1      33.152  -6.700 -22.999  0.00  0.00    +0.385 N 
ATOM      6  C   UNL     1      31.482  -8.946 -22.074  0.00  0.00    +0.095 C 
ATOM      7  C   UNL     1      32.295  -8.063 -21.118  0.00  0.00    +0.112 C 
ATOM      8  C   UNL     1      31.178  -8.174 -23.362  0.00  0.00    -0.001 C 
ATOM      9  C   UNL     1      33.523  -7.463 -21.806  0.00  0.00    -0.050 C 
ATOM     10  C   UNL     1      32.438  -7.540 -23.963  0.00  0.00    -0.080 C 
ATOM     11  H   UNL     1      33.999  -6.336 -23.437  0.00  0.00    -0.084 HD
ATOM     12  H   UNL     1      32.537  -5.937 -22.717  0.00  0.00    -0.084 HD
BRANCH   7  13
ATOM     13  O   UNL     1      32.709  -8.800 -19.973  0.00  0.00    -0.354 OA
ATOM     14  C   UNL     1      31.594  -9.285 -19.238  0.00  0.00    +0.174 C 
ENDBRANCH   7  13
ENDBRANCH   2   6
BRANCH   3  16
ATOM     15 CL   UNL     1      33.015 -16.203 -20.880  0.00  0.00    -0.081 Cl
ATOM     16  C   UNL     1      32.424 -12.605 -22.455  0.00  0.00    +0.088 C 
ATOM     17  C   UNL     1      33.255 -12.572 -23.556  0.00  0.00    +0.144 C 
ATOM     18  C   UNL     1      32.342 -13.710 -21.629  0.00  0.00    +0.020 C 
ATOM     19  C   UNL     1      34.037 -13.691 -23.845  0.00  0.00    +0.052 C 
ATOM     20  C   UNL     1      33.124 -14.828 -21.920  0.00  0.00    +0.071 C 
ATOM     21  C   UNL     1      33.971 -14.818 -23.028  0.00  0.00    +0.055 C 
BRANCH  21  22
ATOM     22  N   UNL     1      34.776 -15.936 -23.347  0.00  0.00    -0.356 N 
ATOM     23  H   UNL     1      34.378 -16.836 -23.380  0.00  0.00    +0.142 HD
ATOM     24  H   UNL     1      35.735 -15.814 -23.534  0.00  0.00    +0.142 HD
ENDBRANCH  21  22
BRANCH  17  25
ATOM     25  O   UNL     1      33.335 -11.479 -24.366  0.00  0.00    -0.471 OA
ATOM     26  C   UNL     1      34.032 -11.637 -25.600  0.00  0.00    +0.252 C 
ENDBRANCH  17  25
ENDBRANCH   3  16
TORSDOF 5
ENDMDL
MODEL 9
REMARK VINA RESULT:      -7.2      1.954      3.440
REMARK  Name = 216236
REMARK  5 active torsions:
REMARK  status: ('A' for Active; 'I' for Inactive)
REMARK    1  A    between atoms: N_2  and  C_6
REMARK    2  A    between atoms: C_3  and  C_16
REMARK    3  A    between atoms: C_7  and  O_13
REMARK    4  A    between atoms: C_17  and  O_25
REMARK    5  A    between atoms: C_21  and  N_22
REMARK                            x       y       z     vdW  Elec       q    Type
REMARK                         _______ _______ _______ _____ _____    ______ ____
ROOT
ATOM      1  O   UNL     1      32.688 -23.620 -16.746  0.00  0.00    -0.270 OA
ATOM      2  N   UNL     1      34.848 -23.769 -15.915  0.00  0.00    -0.300 N 
ATOM      3  C   UNL     1      33.879 -23.322 -16.797  0.00  0.00    +0.249 C 
ATOM      4  H   UNL     1      35.778 -23.472 -16.040  0.00  0.00    +0.150 HD
ENDROOT
BRANCH   2   6
ATOM      5  N   UNL     1      36.631 -24.384 -12.752  0.00  0.00    +0.385 N 
ATOM      6  C   UNL     1      34.542 -24.658 -14.814  0.00  0.00    +0.095 C 
ATOM      7  C   UNL     1      35.647 -25.702 -14.603  0.00  0.00    +0.112 C 
ATOM      8  C   UNL     1      34.317 -23.871 -13.519  0.00  0.00    -0.001 C 
ATOM      9  C   UNL     1      36.912 -25.077 -14.011  0.00  0.00    -0.050 C 
ATOM     10  C   UNL     1      35.630 -23.331 -12.941  0.00  0.00    -0.080 C 
ATOM     11  H   UNL     1      37.493 -23.965 -12.404  0.00  0.00    -0.084 HD
ATOM     12  H   UNL     1      36.264 -25.062 -12.085  0.00  0.00    -0.084 HD
BRANCH   7  13
ATOM     13  O   UNL     1      35.971 -26.353 -15.827  0.00  0.00    -0.354 OA
ATOM     14  C   UNL     1      37.130 -27.164 -15.692  0.00  0.00    +0.174 C 
ENDBRANCH   7  13
ENDBRANCH   2   6
BRANCH   3  16
ATOM     15 CL   UNL     1      32.679 -20.443 -20.886  0.00  0.00    -0.081 Cl
ATOM     16  C   UNL     1      34.359 -22.436 -17.888  0.00  0.00    +0.088 C 
ATOM     17  C   UNL     1      35.705 -22.155 -18.002  0.00  0.00    +0.144 C 
ATOM     18  C   UNL     1      33.424 -21.917 -18.763  0.00  0.00    +0.020 C 
ATOM     19  C   UNL     1      36.136 -21.322 -19.035  0.00  0.00    +0.052 C 
ATOM     20  C   UNL     1      33.856 -21.084 -19.795  0.00  0.00    +0.071 C 
ATOM     21  C   UNL     1      35.212 -20.786 -19.930  0.00  0.00    +0.055 C 
BRANCH  21  22
ATOM     22  N   UNL     1      35.679 -19.945 -20.966  0.00  0.00    -0.356 N 
ATOM     23  H   UNL     1      36.643 -19.763 -21.055  0.00  0.00    +0.142 HD
ATOM     24  H   UNL     1      35.041 -19.541 -21.597  0.00  0.00    +0.142 HD
ENDBRANCH  21  22
BRANCH  17  25
ATOM     25  O   UNL     1      36.624 -22.671 -17.137  0.00  0.00    -0.471 OA
ATOM     26  C   UNL     1      37.420 -21.739 -16.408  0.00  0.00    +0.252 C 
ENDBRANCH  17  25
ENDBRANCH   3  16
TORSDOF 5
ENDMDL
