MODEL 1
REMARK VINA RESULT:      -7.1      0.000      0.000
REMARK  Name = 657119
REMARK  13 active torsions:
REMARK  status: ('A' for Active; 'I' for Inactive)
REMARK    1  A    between atoms: C_1  and  O_2
REMARK    2  A    between atoms: C_1  and  C_4
REMARK    3  A    between atoms: C_1  and  C_13
REMARK    4  A    between atoms: C_4  and  O_5
REMARK    5  A    between atoms: O_5  and  C_7
REMARK    6  A    between atoms: C_7  and  C_8
REMARK    7  A    between atoms: C_8  and  C_9
REMARK    8  A    between atoms: C_9  and  C_10
REMARK    9  A    between atoms: C_10  and  C_11
REMARK   10  A    between atoms: C_13  and  O_14
REMARK   11  A    between atoms: O_14  and  P_15
REMARK   12  A    between atoms: P_15  and  O_17
REMARK   13  A    between atoms: P_15  and  O_19
REMARK                            x       y       z     vdW  Elec       q    Type
REMARK                         _______ _______ _______ _____ _____    ______ ____
ROOT
ATOM      1  C   UNL     1      36.855 -25.876 -15.326  0.00  0.00    +0.184 C 
ENDROOT
BRANCH   1   2
ATOM      2  O   UNL     1      36.109 -26.981 -15.841  0.00  0.00    -0.378 OA
ATOM      3  H   UNL     1      35.919 -26.833 -16.781  0.00  0.00    +0.211 HD
ENDBRANCH   1   2
BRANCH   1   4
ATOM      4  C   UNL     1      35.876 -24.757 -15.001  0.00  0.00    +0.240 C 
BRANCH   4   5
ATOM      5  O   UNL     1      36.090 -23.672 -15.911  0.00  0.00    -0.446 OA
BRANCH   5   7
ATOM      6  O   UNL     1      37.629 -22.753 -14.460  0.00  0.00    -0.250 OA
ATOM      7  C   UNL     1      37.031 -22.760 -15.527  0.00  0.00    +0.317 C 
BRANCH   7   8
ATOM      8  C   UNL     1      37.244 -21.771 -16.652  0.00  0.00    +0.110 C 
BRANCH   8   9
ATOM      9  C   UNL     1      36.254 -21.947 -17.804  0.00  0.00    +0.012 C 
BRANCH   9  10
ATOM     10  C   UNL     1      36.655 -21.148 -19.048  0.00  0.00    +0.001 C 
BRANCH  10  11
ATOM     11  C   UNL     1      35.721 -21.446 -20.221  0.00  0.00    +0.000 C 
ATOM     12  C   UNL     1      34.538 -20.491 -20.246  0.00  0.00    +0.000 C 
ENDBRANCH  10  11
ENDBRANCH   9  10
ENDBRANCH   8   9
ENDBRANCH   7   8
ENDBRANCH   5   7
ENDBRANCH   4   5
ENDBRANCH   1   4
BRANCH   1  13
ATOM     13  C   UNL     1      37.611 -26.334 -14.084  0.00  0.00    +0.187 C 
BRANCH  13  14
ATOM     14  O   UNL     1      38.831 -26.961 -14.464  0.00  0.00    -0.271 OA
BRANCH  14  15
ATOM     15  P   UNL     1      40.169 -26.057 -14.531  0.00  0.00    +0.473 P 
ATOM     16  O   UNL     1      41.396 -26.691 -13.944  0.00  0.00    -0.227 OA
BRANCH  15  17
ATOM     17  O   UNL     1      40.273 -25.694 -16.104  0.00  0.00    -0.303 OA
ATOM     18  H   UNL     1      39.855 -26.396 -16.626  0.00  0.00    +0.222 HD
ENDBRANCH  15  17
BRANCH  15  19
ATOM     19  O   UNL     1      39.722 -24.658 -13.854  0.00  0.00    -0.303 OA
ATOM     20  H   UNL     1      40.497 -24.082 -13.762  0.00  0.00    +0.222 HD
ENDBRANCH  15  19
ENDBRANCH  14  15
ENDBRANCH  13  14
ENDBRANCH   1  13
TORSDOF 13
ENDMDL
MODEL 2
REMARK VINA RESULT:      -7.0      2.626      3.452
REMARK  Name = 657119
REMARK  13 active torsions:
REMARK  status: ('A' for Active; 'I' for Inactive)
REMARK    1  A    between atoms: C_1  and  O_2
REMARK    2  A    between atoms: C_1  and  C_4
REMARK    3  A    between atoms: C_1  and  C_13
REMARK    4  A    between atoms: C_4  and  O_5
REMARK    5  A    between atoms: O_5  and  C_7
REMARK    6  A    between atoms: C_7  and  C_8
REMARK    7  A    between atoms: C_8  and  C_9
REMARK    8  A    between atoms: C_9  and  C_10
REMARK    9  A    between atoms: C_10  and  C_11
REMARK   10  A    between atoms: C_13  and  O_14
REMARK   11  A    between atoms: O_14  and  P_15
REMARK   12  A    between atoms: P_15  and  O_17
REMARK   13  A    between atoms: P_15  and  O_19
REMARK                            x       y       z     vdW  Elec       q    Type
REMARK                         _______ _______ _______ _____ _____    ______ ____
ROOT
ATOM      1  C   UNL     1      37.844 -26.012 -13.797  0.00  0.00    +0.184 C 
ENDROOT
BRANCH   1   2
ATOM      2  O   UNL     1      36.486 -26.372 -14.058  0.00  0.00    -0.378 OA
ATOM      3  H   UNL     1      36.075 -25.699 -14.621  0.00  0.00    +0.211 HD
ENDBRANCH   1   2
BRANCH   1   4
ATOM      4  C   UNL     1      38.287 -25.033 -14.876  0.00  0.00    +0.240 C 
BRANCH   4   5
ATOM      5  O   UNL     1      37.915 -23.708 -14.483  0.00  0.00    -0.446 OA
BRANCH   5   7
ATOM      6  O   UNL     1      35.649 -23.377 -14.752  0.00  0.00    -0.250 OA
ATOM      7  C   UNL     1      36.807 -23.200 -15.100  0.00  0.00    +0.317 C 
BRANCH   7   8
ATOM      8  C   UNL     1      37.245 -22.348 -16.271  0.00  0.00    +0.110 C 
BRANCH   8   9
ATOM      9  C   UNL     1      36.114 -22.046 -17.253  0.00  0.00    +0.012 C 
BRANCH   9  10
ATOM     10  C   UNL     1      36.630 -21.559 -18.611  0.00  0.00    +0.001 C 
BRANCH  10  11
ATOM     11  C   UNL     1      35.525 -21.590 -19.666  0.00  0.00    +0.000 C 
ATOM     12  C   UNL     1      35.504 -20.310 -20.487  0.00  0.00    +0.000 C 
ENDBRANCH  10  11
ENDBRANCH   9  10
ENDBRANCH   8   9
ENDBRANCH   7   8
ENDBRANCH   5   7
ENDBRANCH   4   5
ENDBRANCH   1   4
BRANCH   1  13
ATOM     13  C   UNL     1      37.925 -25.386 -12.409  0.00  0.00    +0.187 C 
BRANCH  13  14
ATOM     14  O   UNL     1      36.754 -25.703 -11.666  0.00  0.00    -0.271 OA
BRANCH  14  15
ATOM     15  P   UNL     1      35.761 -24.497 -11.249  0.00  0.00    +0.473 P 
ATOM     16  O   UNL     1      35.335 -24.493  -9.810  0.00  0.00    -0.227 OA
BRANCH  15  17
ATOM     17  O   UNL     1      36.578 -23.185 -11.725  0.00  0.00    -0.303 OA
ATOM     18  H   UNL     1      37.392 -23.105 -11.204  0.00  0.00    +0.222 HD
ENDBRANCH  15  17
BRANCH  15  19
ATOM     19  O   UNL     1      34.559 -24.599 -12.326  0.00  0.00    -0.303 OA
ATOM     20  H   UNL     1      34.799 -24.106 -13.125  0.00  0.00    +0.222 HD
ENDBRANCH  15  19
ENDBRANCH  14  15
ENDBRANCH  13  14
ENDBRANCH   1  13
TORSDOF 13
ENDMDL
MODEL 3
REMARK VINA RESULT:      -6.9      2.737      3.865
REMARK  Name = 657119
REMARK  13 active torsions:
REMARK  status: ('A' for Active; 'I' for Inactive)
REMARK    1  A    between atoms: C_1  and  O_2
REMARK    2  A    between atoms: C_1  and  C_4
REMARK    3  A    between atoms: C_1  and  C_13
REMARK    4  A    between atoms: C_4  and  O_5
REMARK    5  A    between atoms: O_5  and  C_7
REMARK    6  A    between atoms: C_7  and  C_8
REMARK    7  A    between atoms: C_8  and  C_9
REMARK    8  A    between atoms: C_9  and  C_10
REMARK    9  A    between atoms: C_10  and  C_11
REMARK   10  A    between atoms: C_13  and  O_14
REMARK   11  A    between atoms: O_14  and  P_15
REMARK   12  A    between atoms: P_15  and  O_17
REMARK   13  A    between atoms: P_15  and  O_19
REMARK                            x       y       z     vdW  Elec       q    Type
REMARK                         _______ _______ _______ _____ _____    ______ ____
ROOT
ATOM      1  C   UNL     1      37.440 -23.905 -11.892  0.00  0.00    +0.184 C 
ENDROOT
BRANCH   1   2
ATOM      2  O   UNL     1      38.298 -22.794 -11.624  0.00  0.00    -0.378 OA
ATOM      3  H   UNL     1      37.985 -22.328 -10.833  0.00  0.00    +0.211 HD
ENDBRANCH   1   2
BRANCH   1   4
ATOM      4  C   UNL     1      36.478 -23.501 -13.000  0.00  0.00    +0.240 C 
BRANCH   4   5
ATOM      5  O   UNL     1      35.894 -24.681 -13.562  0.00  0.00    -0.446 OA
BRANCH   5   7
ATOM      6  O   UNL     1      36.089 -25.482 -15.716  0.00  0.00    -0.250 OA
ATOM      7  C   UNL     1      35.690 -24.651 -14.912  0.00  0.00    +0.317 C 
BRANCH   7   8
ATOM      8  C   UNL     1      34.856 -23.437 -15.256  0.00  0.00    +0.110 C 
BRANCH   8   9
ATOM      9  C   UNL     1      33.352 -23.709 -15.219  0.00  0.00    +0.012 C 
BRANCH   9  10
ATOM     10  C   UNL     1      32.643 -23.256 -16.499  0.00  0.00    +0.001 C 
BRANCH  10  11
ATOM     11  C   UNL     1      31.142 -23.086 -16.269  0.00  0.00    +0.000 C 
ATOM     12  C   UNL     1      30.833 -22.779 -14.812  0.00  0.00    +0.000 C 
ENDBRANCH  10  11
ENDBRANCH   9  10
ENDBRANCH   8   9
ENDBRANCH   7   8
ENDBRANCH   5   7
ENDBRANCH   4   5
ENDBRANCH   1   4
BRANCH   1  13
ATOM     13  C   UNL     1      38.299 -25.096 -12.305  0.00  0.00    +0.187 C 
BRANCH  13  14
ATOM     14  O   UNL     1      39.378 -24.654 -13.120  0.00  0.00    -0.271 OA
BRANCH  14  15
ATOM     15  P   UNL     1      39.628 -25.400 -14.532  0.00  0.00    +0.473 P 
ATOM     16  O   UNL     1      41.029 -25.891 -14.754  0.00  0.00    -0.227 OA
BRANCH  15  17
ATOM     17  O   UNL     1      38.492 -26.550 -14.531  0.00  0.00    -0.303 OA
ATOM     18  H   UNL     1      38.628 -27.138 -13.772  0.00  0.00    +0.222 HD
ENDBRANCH  15  17
BRANCH  15  19
ATOM     19  O   UNL     1      39.085 -24.341 -15.628  0.00  0.00    -0.303 OA
ATOM     20  H   UNL     1      39.563 -23.503 -15.531  0.00  0.00    +0.222 HD
ENDBRANCH  15  19
ENDBRANCH  14  15
ENDBRANCH  13  14
ENDBRANCH   1  13
TORSDOF 13
ENDMDL
MODEL 4
REMARK VINA RESULT:      -6.8      1.782      2.564
REMARK  Name = 657119
REMARK  13 active torsions:
REMARK  status: ('A' for Active; 'I' for Inactive)
REMARK    1  A    between atoms: C_1  and  O_2
REMARK    2  A    between atoms: C_1  and  C_4
REMARK    3  A    between atoms: C_1  and  C_13
REMARK    4  A    between atoms: C_4  and  O_5
REMARK    5  A    between atoms: O_5  and  C_7
REMARK    6  A    between atoms: C_7  and  C_8
REMARK    7  A    between atoms: C_8  and  C_9
REMARK    8  A    between atoms: C_9  and  C_10
REMARK    9  A    between atoms: C_10  and  C_11
REMARK   10  A    between atoms: C_13  and  O_14
REMARK   11  A    between atoms: O_14  and  P_15
REMARK   12  A    between atoms: P_15  and  O_17
REMARK   13  A    between atoms: P_15  and  O_19
REMARK                            x       y       z     vdW  Elec       q    Type
REMARK                         _______ _______ _______ _____ _____    ______ ____
ROOT
ATOM      1  C   UNL     1      36.378 -25.033 -15.143  0.00  0.00    +0.184 C 
ENDROOT
BRANCH   1   2
ATOM      2  O   UNL     1      36.088 -26.306 -14.561  0.00  0.00    -0.378 OA
ATOM      3  H   UNL     1      36.230 -26.263 -13.602  0.00  0.00    +0.211 HD
ENDBRANCH   1   2
BRANCH   1   4
ATOM      4  C   UNL     1      35.093 -24.217 -15.154  0.00  0.00    +0.240 C 
BRANCH   4   5
ATOM      5  O   UNL     1      34.811 -23.812 -16.498  0.00  0.00    -0.446 OA
BRANCH   5   7
ATOM      6  O   UNL     1      32.632 -23.340 -15.908  0.00  0.00    -0.250 OA
ATOM      7  C   UNL     1      33.549 -23.335 -16.716  0.00  0.00    +0.317 C 
BRANCH   7   8
ATOM      8  C   UNL     1      33.476 -22.763 -18.115  0.00  0.00    +0.110 C 
BRANCH   8   9
ATOM      9  C   UNL     1      34.829 -22.286 -18.643  0.00  0.00    +0.012 C 
BRANCH   9  10
ATOM     10  C   UNL     1      34.692 -21.192 -19.707  0.00  0.00    +0.001 C 
BRANCH  10  11
ATOM     11  C   UNL     1      33.223 -20.892 -20.004  0.00  0.00    +0.000 C 
ATOM     12  C   UNL     1      33.072 -19.650 -20.867  0.00  0.00    +0.000 C 
ENDBRANCH  10  11
ENDBRANCH   9  10
ENDBRANCH   8   9
ENDBRANCH   7   8
ENDBRANCH   5   7
ENDBRANCH   4   5
ENDBRANCH   1   4
BRANCH   1  13
ATOM     13  C   UNL     1      37.464 -24.353 -14.317  0.00  0.00    +0.187 C 
BRANCH  13  14
ATOM     14  O   UNL     1      38.660 -24.252 -15.080  0.00  0.00    -0.271 OA
BRANCH  14  15
ATOM     15  P   UNL     1      39.869 -25.273 -14.748  0.00  0.00    +0.473 P 
ATOM     16  O   UNL     1      40.996 -24.686 -13.950  0.00  0.00    -0.227 OA
BRANCH  15  17
ATOM     17  O   UNL     1      39.104 -26.511 -14.044  0.00  0.00    -0.303 OA
ATOM     18  H   UNL     1      39.364 -27.339 -14.478  0.00  0.00    +0.222 HD
ENDBRANCH  15  17
BRANCH  15  19
ATOM     19  O   UNL     1      40.282 -25.864 -16.196  0.00  0.00    -0.303 OA
ATOM     20  H   UNL     1      39.806 -25.381 -16.889  0.00  0.00    +0.222 HD
ENDBRANCH  15  19
ENDBRANCH  14  15
ENDBRANCH  13  14
ENDBRANCH   1  13
TORSDOF 13
ENDMDL
MODEL 5
REMARK VINA RESULT:      -6.8      2.762      3.956
REMARK  Name = 657119
REMARK  13 active torsions:
REMARK  status: ('A' for Active; 'I' for Inactive)
REMARK    1  A    between atoms: C_1  and  O_2
REMARK    2  A    between atoms: C_1  and  C_4
REMARK    3  A    between atoms: C_1  and  C_13
REMARK    4  A    between atoms: C_4  and  O_5
REMARK    5  A    between atoms: O_5  and  C_7
REMARK    6  A    between atoms: C_7  and  C_8
REMARK    7  A    between atoms: C_8  and  C_9
REMARK    8  A    between atoms: C_9  and  C_10
REMARK    9  A    between atoms: C_10  and  C_11
REMARK   10  A    between atoms: C_13  and  O_14
REMARK   11  A    between atoms: O_14  and  P_15
REMARK   12  A    between atoms: P_15  and  O_17
REMARK   13  A    between atoms: P_15  and  O_19
REMARK                            x       y       z     vdW  Elec       q    Type
REMARK                         _______ _______ _______ _____ _____    ______ ____
ROOT
ATOM      1  C   UNL     1      36.870 -25.741 -15.173  0.00  0.00    +0.184 C 
ENDROOT
BRANCH   1   2
ATOM      2  O   UNL     1      36.145 -26.818 -15.770  0.00  0.00    -0.378 OA
ATOM      3  H   UNL     1      35.494 -27.160 -15.138  0.00  0.00    +0.211 HD
ENDBRANCH   1   2
BRANCH   1   4
ATOM      4  C   UNL     1      35.870 -24.666 -14.771  0.00  0.00    +0.240 C 
BRANCH   4   5
ATOM      5  O   UNL     1      35.900 -23.615 -15.743  0.00  0.00    -0.446 OA
BRANCH   5   7
ATOM      6  O   UNL     1      34.544 -23.034 -17.516  0.00  0.00    -0.250 OA
ATOM      7  C   UNL     1      34.705 -23.332 -16.341  0.00  0.00    +0.317 C 
BRANCH   7   8
ATOM      8  C   UNL     1      33.599 -23.481 -15.320  0.00  0.00    +0.110 C 
BRANCH   8   9
ATOM      9  C   UNL     1      32.201 -23.334 -15.921  0.00  0.00    +0.012 C 
BRANCH   9  10
ATOM     10  C   UNL     1      31.188 -22.771 -14.919  0.00  0.00    +0.001 C 
BRANCH  10  11
ATOM     11  C   UNL     1      29.912 -23.613 -14.890  0.00  0.00    +0.000 C 
ATOM     12  C   UNL     1      30.186 -25.052 -15.299  0.00  0.00    +0.000 C 
ENDBRANCH  10  11
ENDBRANCH   9  10
ENDBRANCH   8   9
ENDBRANCH   7   8
ENDBRANCH   5   7
ENDBRANCH   4   5
ENDBRANCH   1   4
BRANCH   1  13
ATOM     13  C   UNL     1      37.631 -26.275 -13.965  0.00  0.00    +0.187 C 
BRANCH  13  14
ATOM     14  O   UNL     1      38.852 -26.870 -14.387  0.00  0.00    -0.271 OA
BRANCH  14  15
ATOM     15  P   UNL     1      40.157 -25.927 -14.528  0.00  0.00    +0.473 P 
ATOM     16  O   UNL     1      40.073 -24.613 -13.807  0.00  0.00    -0.227 OA
BRANCH  15  17
ATOM     17  O   UNL     1      41.353 -26.899 -14.040  0.00  0.00    -0.303 OA
ATOM     18  H   UNL     1      41.096 -27.824 -14.183  0.00  0.00    +0.222 HD
ENDBRANCH  15  17
BRANCH  15  19
ATOM     19  O   UNL     1      40.388 -25.825 -16.126  0.00  0.00    -0.303 OA
ATOM     20  H   UNL     1      40.716 -26.673 -16.459  0.00  0.00    +0.222 HD
ENDBRANCH  15  19
ENDBRANCH  14  15
ENDBRANCH  13  14
ENDBRANCH   1  13
TORSDOF 13
ENDMDL
MODEL 6
REMARK VINA RESULT:      -6.7      2.134      3.721
REMARK  Name = 657119
REMARK  13 active torsions:
REMARK  status: ('A' for Active; 'I' for Inactive)
REMARK    1  A    between atoms: C_1  and  O_2
REMARK    2  A    between atoms: C_1  and  C_4
REMARK    3  A    between atoms: C_1  and  C_13
REMARK    4  A    between atoms: C_4  and  O_5
REMARK    5  A    between atoms: O_5  and  C_7
REMARK    6  A    between atoms: C_7  and  C_8
REMARK    7  A    between atoms: C_8  and  C_9
REMARK    8  A    between atoms: C_9  and  C_10
REMARK    9  A    between atoms: C_10  and  C_11
REMARK   10  A    between atoms: C_13  and  O_14
REMARK   11  A    between atoms: O_14  and  P_15
REMARK   12  A    between atoms: P_15  and  O_17
REMARK   13  A    between atoms: P_15  and  O_19
REMARK                            x       y       z     vdW  Elec       q    Type
REMARK                         _______ _______ _______ _____ _____    ______ ____
ROOT
ATOM      1  C   UNL     1      35.949 -23.070 -15.637  0.00  0.00    +0.184 C 
ENDROOT
BRANCH   1   2
ATOM      2  O   UNL     1      37.077 -23.174 -16.508  0.00  0.00    -0.378 OA
ATOM      3  H   UNL     1      36.820 -23.648 -17.315  0.00  0.00    +0.211 HD
ENDBRANCH   1   2
BRANCH   1   4
ATOM      4  C   UNL     1      34.690 -23.088 -16.492  0.00  0.00    +0.240 C 
BRANCH   4   5
ATOM      5  O   UNL     1      35.012 -22.614 -17.804  0.00  0.00    -0.446 OA
BRANCH   5   7
ATOM      6  O   UNL     1      32.802 -22.728 -18.454  0.00  0.00    -0.250 OA
ATOM      7  C   UNL     1      33.943 -22.314 -18.601  0.00  0.00    +0.317 C 
BRANCH   7   8
ATOM      8  C   UNL     1      34.390 -21.354 -19.680  0.00  0.00    +0.110 C 
BRANCH   8   9
ATOM      9  C   UNL     1      33.247 -20.513 -20.250  0.00  0.00    +0.012 C 
BRANCH   9  10
ATOM     10  C   UNL     1      33.747 -19.268 -20.990  0.00  0.00    +0.001 C 
BRANCH  10  11
ATOM     11  C   UNL     1      34.838 -19.626 -22.000  0.00  0.00    +0.000 C 
ATOM     12  C   UNL     1      35.397 -18.385 -22.678  0.00  0.00    +0.000 C 
ENDBRANCH  10  11
ENDBRANCH   9  10
ENDBRANCH   8   9
ENDBRANCH   7   8
ENDBRANCH   5   7
ENDBRANCH   4   5
ENDBRANCH   1   4
BRANCH   1  13
ATOM     13  C   UNL     1      35.976 -24.240 -14.660  0.00  0.00    +0.187 C 
BRANCH  13  14
ATOM     14  O   UNL     1      37.284 -24.798 -14.610  0.00  0.00    -0.271 OA
BRANCH  14  15
ATOM     15  P   UNL     1      37.432 -26.407 -14.622  0.00  0.00    +0.473 P 
ATOM     16  O   UNL     1      38.833 -26.917 -14.795  0.00  0.00    -0.227 OA
BRANCH  15  17
ATOM     17  O   UNL     1      36.713 -26.839 -13.239  0.00  0.00    -0.303 OA
ATOM     18  H   UNL     1      36.710 -27.806 -13.165  0.00  0.00    +0.222 HD
ENDBRANCH  15  17
BRANCH  15  19
ATOM     19  O   UNL     1      36.378 -26.882 -15.753  0.00  0.00    -0.303 OA
ATOM     20  H   UNL     1      36.138 -27.809 -15.602  0.00  0.00    +0.222 HD
ENDBRANCH  15  19
ENDBRANCH  14  15
ENDBRANCH  13  14
ENDBRANCH   1  13
TORSDOF 13
ENDMDL
MODEL 7
REMARK VINA RESULT:      -6.7      5.837      7.809
REMARK  Name = 657119
REMARK  13 active torsions:
REMARK  status: ('A' for Active; 'I' for Inactive)
REMARK    1  A    between atoms: C_1  and  O_2
REMARK    2  A    between atoms: C_1  and  C_4
REMARK    3  A    between atoms: C_1  and  C_13
REMARK    4  A    between atoms: C_4  and  O_5
REMARK    5  A    between atoms: O_5  and  C_7
REMARK    6  A    between atoms: C_7  and  C_8
REMARK    7  A    between atoms: C_8  and  C_9
REMARK    8  A    between atoms: C_9  and  C_10
REMARK    9  A    between atoms: C_10  and  C_11
REMARK   10  A    between atoms: C_13  and  O_14
REMARK   11  A    between atoms: O_14  and  P_15
REMARK   12  A    between atoms: P_15  and  O_17
REMARK   13  A    between atoms: P_15  and  O_19
REMARK                            x       y       z     vdW  Elec       q    Type
REMARK                         _______ _______ _______ _____ _____    ______ ____
ROOT
ATOM      1  C   UNL     1      30.789 -23.686 -14.168  0.00  0.00    +0.184 C 
ENDROOT
BRANCH   1   2
ATOM      2  O   UNL     1      30.816 -24.213 -12.839  0.00  0.00    -0.378 OA
ATOM      3  H   UNL     1      31.736 -24.312 -12.549  0.00  0.00    +0.211 HD
ENDBRANCH   1   2
BRANCH   1   4
ATOM      4  C   UNL     1      32.151 -23.936 -14.801  0.00  0.00    +0.240 C 
BRANCH   4   5
ATOM      5  O   UNL     1      32.079 -23.622 -16.196  0.00  0.00    -0.446 OA
BRANCH   5   7
ATOM      6  O   UNL     1      34.370 -23.773 -16.413  0.00  0.00    -0.250 OA
ATOM      7  C   UNL     1      33.277 -23.392 -16.810  0.00  0.00    +0.317 C 
BRANCH   7   8
ATOM      8  C   UNL     1      33.035 -22.616 -18.085  0.00  0.00    +0.110 C 
BRANCH   8   9
ATOM      9  C   UNL     1      34.201 -22.695 -19.070  0.00  0.00    +0.012 C 
BRANCH   9  10
ATOM     10  C   UNL     1      34.541 -21.335 -19.687  0.00  0.00    +0.001 C 
BRANCH  10  11
ATOM     11  C   UNL     1      33.274 -20.557 -20.043  0.00  0.00    +0.000 C 
ATOM     12  C   UNL     1      33.570 -19.427 -21.017  0.00  0.00    +0.000 C 
ENDBRANCH  10  11
ENDBRANCH   9  10
ENDBRANCH   8   9
ENDBRANCH   7   8
ENDBRANCH   5   7
ENDBRANCH   4   5
ENDBRANCH   1   4
BRANCH   1  13
ATOM     13  C   UNL     1      29.676 -24.378 -14.946  0.00  0.00    +0.187 C 
BRANCH  13  14
ATOM     14  O   UNL     1      28.600 -23.472 -15.160  0.00  0.00    -0.271 OA
BRANCH  14  15
ATOM     15  P   UNL     1      28.308 -22.971 -16.669  0.00  0.00    +0.473 P 
ATOM     16  O   UNL     1      27.666 -23.990 -17.565  0.00  0.00    -0.227 OA
BRANCH  15  17
ATOM     17  O   UNL     1      27.444 -21.625 -16.435  0.00  0.00    -0.303 OA
ATOM     18  H   UNL     1      27.363 -21.143 -17.273  0.00  0.00    +0.222 HD
ENDBRANCH  15  17
BRANCH  15  19
ATOM     19  O   UNL     1      29.740 -22.413 -17.172  0.00  0.00    -0.303 OA
ATOM     20  H   UNL     1      29.785 -21.457 -17.021  0.00  0.00    +0.222 HD
ENDBRANCH  15  19
ENDBRANCH  14  15
ENDBRANCH  13  14
ENDBRANCH   1  13
TORSDOF 13
ENDMDL
MODEL 8
REMARK VINA RESULT:      -6.7      6.233      8.269
REMARK  Name = 657119
REMARK  13 active torsions:
REMARK  status: ('A' for Active; 'I' for Inactive)
REMARK    1  A    between atoms: C_1  and  O_2
REMARK    2  A    between atoms: C_1  and  C_4
REMARK    3  A    between atoms: C_1  and  C_13
REMARK    4  A    between atoms: C_4  and  O_5
REMARK    5  A    between atoms: O_5  and  C_7
REMARK    6  A    between atoms: C_7  and  C_8
REMARK    7  A    between atoms: C_8  and  C_9
REMARK    8  A    between atoms: C_9  and  C_10
REMARK    9  A    between atoms: C_10  and  C_11
REMARK   10  A    between atoms: C_13  and  O_14
REMARK   11  A    between atoms: O_14  and  P_15
REMARK   12  A    between atoms: P_15  and  O_17
REMARK   13  A    between atoms: P_15  and  O_19
REMARK                            x       y       z     vdW  Elec       q    Type
REMARK                         _______ _______ _______ _____ _____    ______ ____
ROOT
ATOM      1  C   UNL     1      31.664 -22.795 -16.049  0.00  0.00    +0.184 C 
ENDROOT
BRANCH   1   2
ATOM      2  O   UNL     1      32.100 -23.193 -14.748  0.00  0.00    -0.378 OA
ATOM      3  H   UNL     1      32.477 -22.429 -14.285  0.00  0.00    +0.211 HD
ENDBRANCH   1   2
BRANCH   1   4
ATOM      4  C   UNL     1      32.693 -23.283 -17.060  0.00  0.00    +0.240 C 
BRANCH   4   5
ATOM      5  O   UNL     1      32.585 -22.494 -18.250  0.00  0.00    -0.446 OA
BRANCH   5   7
ATOM      6  O   UNL     1      34.074 -23.641 -19.587  0.00  0.00    -0.250 OA
ATOM      7  C   UNL     1      33.632 -22.600 -19.122  0.00  0.00    +0.317 C 
BRANCH   7   8
ATOM      8  C   UNL     1      34.138 -21.214 -19.452  0.00  0.00    +0.110 C 
BRANCH   8   9
ATOM      9  C   UNL     1      33.247 -20.467 -20.445  0.00  0.00    +0.012 C 
BRANCH   9  10
ATOM     10  C   UNL     1      33.919 -19.210 -21.006  0.00  0.00    +0.001 C 
BRANCH  10  11
ATOM     11  C   UNL     1      34.833 -19.550 -22.183  0.00  0.00    +0.000 C 
ATOM     12  C   UNL     1      34.771 -18.480 -23.262  0.00  0.00    +0.000 C 
ENDBRANCH  10  11
ENDBRANCH   9  10
ENDBRANCH   8   9
ENDBRANCH   7   8
ENDBRANCH   5   7
ENDBRANCH   4   5
ENDBRANCH   1   4
BRANCH   1  13
ATOM     13  C   UNL     1      30.291 -23.404 -16.312  0.00  0.00    +0.187 C 
BRANCH  13  14
ATOM     14  O   UNL     1      29.410 -22.408 -16.819  0.00  0.00    -0.271 OA
BRANCH  14  15
ATOM     15  P   UNL     1      27.835 -22.758 -16.917  0.00  0.00    +0.473 P 
ATOM     16  O   UNL     1      27.500 -23.964 -17.746  0.00  0.00    -0.227 OA
BRANCH  15  17
ATOM     17  O   UNL     1      27.394 -22.851 -15.364  0.00  0.00    -0.303 OA
ATOM     18  H   UNL     1      28.180 -22.777 -14.801  0.00  0.00    +0.222 HD
ENDBRANCH  15  17
BRANCH  15  19
ATOM     19  O   UNL     1      27.163 -21.372 -17.412  0.00  0.00    -0.303 OA
ATOM     20  H   UNL     1      26.682 -21.524 -18.240  0.00  0.00    +0.222 HD
ENDBRANCH  15  19
ENDBRANCH  14  15
ENDBRANCH  13  14
ENDBRANCH   1  13
TORSDOF 13
ENDMDL
MODEL 9
REMARK VINA RESULT:      -6.7      2.963      4.103
REMARK  Name = 657119
REMARK  13 active torsions:
REMARK  status: ('A' for Active; 'I' for Inactive)
REMARK    1  A    between atoms: C_1  and  O_2
REMARK    2  A    between atoms: C_1  and  C_4
REMARK    3  A    between atoms: C_1  and  C_13
REMARK    4  A    between atoms: C_4  and  O_5
REMARK    5  A    between atoms: O_5  and  C_7
REMARK    6  A    between atoms: C_7  and  C_8
REMARK    7  A    between atoms: C_8  and  C_9
REMARK    8  A    between atoms: C_9  and  C_10
REMARK    9  A    between atoms: C_10  and  C_11
REMARK   10  A    between atoms: C_13  and  O_14
REMARK   11  A    between atoms: O_14  and  P_15
REMARK   12  A    between atoms: P_15  and  O_17
REMARK   13  A    between atoms: P_15  and  O_19
REMARK                            x       y       z     vdW  Elec       q    Type
REMARK                         _______ _______ _______ _____ _____    ______ ____
ROOT
ATOM      1  C   UNL     1      35.619 -23.910 -15.524  0.00  0.00    +0.184 C 
ENDROOT
BRANCH   1   2
ATOM      2  O   UNL     1      35.658 -25.339 -15.543  0.00  0.00    -0.378 OA
ATOM      3  H   UNL     1      34.772 -25.689 -15.360  0.00  0.00    +0.211 HD
ENDBRANCH   1   2
BRANCH   1   4
ATOM      4  C   UNL     1      34.348 -23.464 -16.235  0.00  0.00    +0.240 C 
BRANCH   4   5
ATOM      5  O   UNL     1      34.696 -22.930 -17.517  0.00  0.00    -0.446 OA
BRANCH   5   7
ATOM      6  O   UNL     1      32.462 -22.720 -18.048  0.00  0.00    -0.250 OA
ATOM      7  C   UNL     1      33.645 -22.530 -18.292  0.00  0.00    +0.317 C 
BRANCH   7   8
ATOM      8  C   UNL     1      34.178 -21.778 -19.491  0.00  0.00    +0.110 C 
BRANCH   8   9
ATOM      9  C   UNL     1      33.222 -20.698 -19.999  0.00  0.00    +0.012 C 
BRANCH   9  10
ATOM     10  C   UNL     1      33.932 -19.638 -20.847  0.00  0.00    +0.001 C 
BRANCH  10  11
ATOM     11  C   UNL     1      35.445 -19.854 -20.849  0.00  0.00    +0.000 C 
ATOM     12  C   UNL     1      36.176 -18.667 -21.456  0.00  0.00    +0.000 C 
ENDBRANCH  10  11
ENDBRANCH   9  10
ENDBRANCH   8   9
ENDBRANCH   7   8
ENDBRANCH   5   7
ENDBRANCH   4   5
ENDBRANCH   1   4
BRANCH   1  13
ATOM     13  C   UNL     1      35.641 -23.439 -14.074  0.00  0.00    +0.187 C 
BRANCH  13  14
ATOM     14  O   UNL     1      36.654 -24.134 -13.356  0.00  0.00    -0.271 OA
BRANCH  14  15
ATOM     15  P   UNL     1      36.272 -24.782 -11.926  0.00  0.00    +0.473 P 
ATOM     16  O   UNL     1      36.788 -24.036 -10.730  0.00  0.00    -0.227 OA
BRANCH  15  17
ATOM     17  O   UNL     1      34.662 -24.906 -12.011  0.00  0.00    -0.303 OA
ATOM     18  H   UNL     1      34.317 -25.233 -11.166  0.00  0.00    +0.222 HD
ENDBRANCH  15  17
BRANCH  15  19
ATOM     19  O   UNL     1      36.771 -26.315 -12.052  0.00  0.00    -0.303 OA
ATOM     20  H   UNL     1      36.398 -26.837 -11.325  0.00  0.00    +0.222 HD
ENDBRANCH  15  19
ENDBRANCH  14  15
ENDBRANCH  13  14
ENDBRANCH   1  13
TORSDOF 13
ENDMDL
