MODEL 1
REMARK VINA RESULT:      -6.8      0.000      0.000
REMARK  Name = 5496597
REMARK  8 active torsions:
REMARK  status: ('A' for Active; 'I' for Inactive)
REMARK    1  A    between atoms: C_1  and  C_3
REMARK    2  A    between atoms: C_1  and  C_9
REMARK    3  A    between atoms: C_1  and  C_12
REMARK    4  A    between atoms: C_3  and  C_5
REMARK    5  A    between atoms: C_5  and  O_6
REMARK    6  A    between atoms: C_9  and  O_10
REMARK    7  A    between atoms: C_12  and  C_14
REMARK    8  A    between atoms: C_14  and  O_15
REMARK                            x       y       z     vdW  Elec       q    Type
REMARK                         _______ _______ _______ _____ _____    ______ ____
ROOT
ATOM      1  C   UNL     1      38.045 -26.010 -13.647  0.00  0.00    +0.178 C 
ENDROOT
BRANCH   1   3
ATOM      2  O   UNL     1      36.770 -25.889 -11.556  0.00  0.00    -0.284 OA
ATOM      3  C   UNL     1      37.429 -25.340 -12.426  0.00  0.00    +0.258 C 
BRANCH   3   5
ATOM      4  O   UNL     1      38.517 -23.385 -11.608  0.00  0.00    -0.242 OA
ATOM      5  C   UNL     1      37.626 -23.856 -12.284  0.00  0.00    +0.374 C 
BRANCH   5   6
ATOM      6  O   UNL     1      36.663 -23.203 -12.947  0.00  0.00    -0.475 OA
ATOM      7  H   UNL     1      35.923 -22.862 -12.484  0.00  0.00    +0.295 HD
ENDBRANCH   5   6
ENDBRANCH   3   5
ENDBRANCH   1   3
BRANCH   1   9
ATOM      8  O   UNL     1      37.295 -26.901 -15.801  0.00  0.00    -0.250 OA
ATOM      9  C   UNL     1      37.055 -26.308 -14.760  0.00  0.00    +0.322 C 
BRANCH   9  10
ATOM     10  O   UNL     1      35.831 -25.802 -14.453  0.00  0.00    -0.480 OA
ATOM     11  H   UNL     1      35.368 -26.120 -13.703  0.00  0.00    +0.295 HD
ENDBRANCH   9  10
ENDBRANCH   1   9
BRANCH   1  12
ATOM     12  C   UNL     1      39.172 -25.136 -14.229  0.00  0.00    +0.129 C 
BRANCH  12  14
ATOM     13  O   UNL     1      41.161 -26.547 -14.084  0.00  0.00    -0.250 OA
ATOM     14  C   UNL     1      40.339 -25.944 -14.760  0.00  0.00    +0.315 C 
BRANCH  14  15
ATOM     15  O   UNL     1      40.377 -25.923 -16.119  0.00  0.00    -0.480 OA
ATOM     16  H   UNL     1      41.124 -26.261 -16.572  0.00  0.00    +0.295 HD
ENDBRANCH  14  15
ENDBRANCH  12  14
ENDBRANCH   1  12
TORSDOF 8
ENDMDL
MODEL 2
REMARK VINA RESULT:      -6.7      1.374      4.015
REMARK  Name = 5496597
REMARK  8 active torsions:
REMARK  status: ('A' for Active; 'I' for Inactive)
REMARK    1  A    between atoms: C_1  and  C_3
REMARK    2  A    between atoms: C_1  and  C_9
REMARK    3  A    between atoms: C_1  and  C_12
REMARK    4  A    between atoms: C_3  and  C_5
REMARK    5  A    between atoms: C_5  and  O_6
REMARK    6  A    between atoms: C_9  and  O_10
REMARK    7  A    between atoms: C_12  and  C_14
REMARK    8  A    between atoms: C_14  and  O_15
REMARK                            x       y       z     vdW  Elec       q    Type
REMARK                         _______ _______ _______ _____ _____    ______ ____
ROOT
ATOM      1  C   UNL     1      37.976 -24.674 -13.921  0.00  0.00    +0.178 C 
ENDROOT
BRANCH   1   3
ATOM      2  O   UNL     1      38.548 -26.982 -14.520  0.00  0.00    -0.284 OA
ATOM      3  C   UNL     1      38.854 -25.801 -14.446  0.00  0.00    +0.258 C 
BRANCH   3   5
ATOM      4  O   UNL     1      40.967 -24.721 -14.238  0.00  0.00    -0.242 OA
ATOM      5  C   UNL     1      40.242 -25.439 -14.896  0.00  0.00    +0.374 C 
BRANCH   5   6
ATOM      6  O   UNL     1      40.485 -25.969 -16.102  0.00  0.00    -0.475 OA
ATOM      7  H   UNL     1      40.981 -25.488 -16.735  0.00  0.00    +0.295 HD
ENDBRANCH   5   6
ENDBRANCH   3   5
ENDBRANCH   1   3
BRANCH   1   9
ATOM      8  O   UNL     1      36.056 -23.376 -14.711  0.00  0.00    -0.250 OA
ATOM      9  C   UNL     1      36.772 -24.363 -14.792  0.00  0.00    +0.322 C 
BRANCH   9  10
ATOM     10  O   UNL     1      36.570 -25.360 -15.694  0.00  0.00    -0.480 OA
ATOM     11  H   UNL     1      37.302 -25.773 -16.107  0.00  0.00    +0.295 HD
ENDBRANCH   9  10
ENDBRANCH   1   9
BRANCH   1  12
ATOM     12  C   UNL     1      37.470 -25.003 -12.503  0.00  0.00    +0.129 C 
BRANCH  12  14
ATOM     13  O   UNL     1      38.370 -22.895 -11.655  0.00  0.00    -0.250 OA
ATOM     14  C   UNL     1      37.605 -23.842 -11.538  0.00  0.00    +0.315 C 
BRANCH  14  15
ATOM     15  O   UNL     1      36.752 -23.973 -10.487  0.00  0.00    -0.480 OA
ATOM     16  H   UNL     1      35.954 -23.482 -10.468  0.00  0.00    +0.295 HD
ENDBRANCH  14  15
ENDBRANCH  12  14
ENDBRANCH   1  12
TORSDOF 8
ENDMDL
MODEL 3
REMARK VINA RESULT:      -6.5      1.236      3.151
REMARK  Name = 5496597
REMARK  8 active torsions:
REMARK  status: ('A' for Active; 'I' for Inactive)
REMARK    1  A    between atoms: C_1  and  C_3
REMARK    2  A    between atoms: C_1  and  C_9
REMARK    3  A    between atoms: C_1  and  C_12
REMARK    4  A    between atoms: C_3  and  C_5
REMARK    5  A    between atoms: C_5  and  O_6
REMARK    6  A    between atoms: C_9  and  O_10
REMARK    7  A    between atoms: C_12  and  C_14
REMARK    8  A    between atoms: C_14  and  O_15
REMARK                            x       y       z     vdW  Elec       q    Type
REMARK                         _______ _______ _______ _____ _____    ______ ____
ROOT
ATOM      1  C   UNL     1      38.192 -24.602 -13.444  0.00  0.00    +0.178 C 
ENDROOT
BRANCH   1   3
ATOM      2  O   UNL     1      36.812 -26.563 -12.934  0.00  0.00    -0.284 OA
ATOM      3  C   UNL     1      37.164 -25.692 -13.715  0.00  0.00    +0.258 C 
BRANCH   3   5
ATOM      4  O   UNL     1      36.060 -26.734 -15.550  0.00  0.00    -0.242 OA
ATOM      5  C   UNL     1      36.537 -25.721 -15.081  0.00  0.00    +0.374 C 
BRANCH   5   6
ATOM      6  O   UNL     1      36.652 -24.520 -15.662  0.00  0.00    -0.475 OA
ATOM      7  H   UNL     1      35.883 -24.037 -15.896  0.00  0.00    +0.295 HD
ENDBRANCH   5   6
ENDBRANCH   3   5
ENDBRANCH   1   3
BRANCH   1   9
ATOM      8  O   UNL     1      38.111 -22.673 -11.938  0.00  0.00    -0.250 OA
ATOM      9  C   UNL     1      37.998 -23.875 -12.125  0.00  0.00    +0.322 C 
BRANCH   9  10
ATOM     10  O   UNL     1      37.691 -24.759 -11.139  0.00  0.00    -0.480 OA
ATOM     11  H   UNL     1      37.702 -24.484 -10.243  0.00  0.00    +0.295 HD
ENDBRANCH   9  10
ENDBRANCH   1   9
BRANCH   1  12
ATOM     12  C   UNL     1      39.616 -25.188 -13.465  0.00  0.00    +0.129 C 
BRANCH  12  14
ATOM     13  O   UNL     1      40.942 -26.221 -15.238  0.00  0.00    -0.250 OA
ATOM     14  C   UNL     1      40.178 -25.343 -14.864  0.00  0.00    +0.315 C 
BRANCH  14  15
ATOM     15  O   UNL     1      39.723 -24.362 -15.690  0.00  0.00    -0.480 OA
ATOM     16  H   UNL     1      39.391 -24.581 -16.538  0.00  0.00    +0.295 HD
ENDBRANCH  14  15
ENDBRANCH  12  14
ENDBRANCH   1  12
TORSDOF 8
ENDMDL
MODEL 4
REMARK VINA RESULT:      -6.5      1.258      2.052
REMARK  Name = 5496597
REMARK  8 active torsions:
REMARK  status: ('A' for Active; 'I' for Inactive)
REMARK    1  A    between atoms: C_1  and  C_3
REMARK    2  A    between atoms: C_1  and  C_9
REMARK    3  A    between atoms: C_1  and  C_12
REMARK    4  A    between atoms: C_3  and  C_5
REMARK    5  A    between atoms: C_5  and  O_6
REMARK    6  A    between atoms: C_9  and  O_10
REMARK    7  A    between atoms: C_12  and  C_14
REMARK    8  A    between atoms: C_14  and  O_15
REMARK                            x       y       z     vdW  Elec       q    Type
REMARK                         _______ _______ _______ _____ _____    ______ ____
ROOT
ATOM      1  C   UNL     1      38.217 -25.158 -13.274  0.00  0.00    +0.178 C 
ENDROOT
BRANCH   1   3
ATOM      2  O   UNL     1      37.566 -23.092 -14.422  0.00  0.00    -0.284 OA
ATOM      3  C   UNL     1      37.579 -23.783 -13.415  0.00  0.00    +0.258 C 
BRANCH   3   5
ATOM      4  O   UNL     1      37.566 -22.827 -11.232  0.00  0.00    -0.242 OA
ATOM      5  C   UNL     1      36.924 -23.201 -12.193  0.00  0.00    +0.374 C 
BRANCH   5   6
ATOM      6  O   UNL     1      35.592 -23.227 -12.332  0.00  0.00    -0.475 OA
ATOM      7  H   UNL     1      35.074 -22.512 -12.019  0.00  0.00    +0.295 HD
ENDBRANCH   5   6
ENDBRANCH   3   5
ENDBRANCH   1   3
BRANCH   1   9
ATOM      8  O   UNL     1      36.934 -26.503 -11.680  0.00  0.00    -0.250 OA
ATOM      9  C   UNL     1      37.257 -26.248 -12.831  0.00  0.00    +0.322 C 
BRANCH   9  10
ATOM     10  O   UNL     1      36.798 -26.941 -13.907  0.00  0.00    -0.480 OA
ATOM     11  H   UNL     1      37.081 -26.708 -14.769  0.00  0.00    +0.295 HD
ENDBRANCH   9  10
ENDBRANCH   1   9
BRANCH   1  12
ATOM     12  C   UNL     1      38.856 -25.594 -14.606  0.00  0.00    +0.129 C 
BRANCH  12  14
ATOM     13  O   UNL     1      40.992 -26.780 -14.613  0.00  0.00    -0.250 OA
ATOM     14  C   UNL     1      40.363 -25.735 -14.526  0.00  0.00    +0.315 C 
BRANCH  14  15
ATOM     15  O   UNL     1      40.962 -24.529 -14.339  0.00  0.00    -0.480 OA
ATOM     16  H   UNL     1      41.669 -24.447 -13.730  0.00  0.00    +0.295 HD
ENDBRANCH  14  15
ENDBRANCH  12  14
ENDBRANCH   1  12
TORSDOF 8
ENDMDL
MODEL 5
REMARK VINA RESULT:      -6.4      1.005      3.218
REMARK  Name = 5496597
REMARK  8 active torsions:
REMARK  status: ('A' for Active; 'I' for Inactive)
REMARK    1  A    between atoms: C_1  and  C_3
REMARK    2  A    between atoms: C_1  and  C_9
REMARK    3  A    between atoms: C_1  and  C_12
REMARK    4  A    between atoms: C_3  and  C_5
REMARK    5  A    between atoms: C_5  and  O_6
REMARK    6  A    between atoms: C_9  and  O_10
REMARK    7  A    between atoms: C_12  and  C_14
REMARK    8  A    between atoms: C_14  and  O_15
REMARK                            x       y       z     vdW  Elec       q    Type
REMARK                         _______ _______ _______ _____ _____    ______ ____
ROOT
ATOM      1  C   UNL     1      38.507 -25.306 -14.171  0.00  0.00    +0.178 C 
ENDROOT
BRANCH   1   3
ATOM      2  O   UNL     1      38.950 -23.961 -12.169  0.00  0.00    -0.284 OA
ATOM      3  C   UNL     1      38.179 -24.616 -12.854  0.00  0.00    +0.258 C 
BRANCH   3   5
ATOM      4  O   UNL     1      36.507 -25.568 -11.449  0.00  0.00    -0.242 OA
ATOM      5  C   UNL     1      36.780 -24.774 -12.326  0.00  0.00    +0.374 C 
BRANCH   5   6
ATOM      6  O   UNL     1      35.944 -23.974 -13.001  0.00  0.00    -0.475 OA
ATOM      7  H   UNL     1      35.618 -23.192 -12.600  0.00  0.00    +0.295 HD
ENDBRANCH   5   6
ENDBRANCH   3   5
ENDBRANCH   1   3
BRANCH   1   9
ATOM      8  O   UNL     1      40.408 -26.803 -14.548  0.00  0.00    -0.250 OA
ATOM      9  C   UNL     1      39.970 -25.683 -14.330  0.00  0.00    +0.322 C 
BRANCH   9  10
ATOM     10  O   UNL     1      40.760 -24.588 -14.177  0.00  0.00    -0.480 OA
ATOM     11  H   UNL     1      41.292 -24.291 -14.889  0.00  0.00    +0.295 HD
ENDBRANCH   9  10
ENDBRANCH   1   9
BRANCH   1  12
ATOM     12  C   UNL     1      37.662 -26.583 -14.335  0.00  0.00    +0.129 C 
BRANCH  12  14
ATOM     13  O   UNL     1      35.732 -25.674 -15.526  0.00  0.00    -0.250 OA
ATOM     14  C   UNL     1      36.644 -26.485 -15.454  0.00  0.00    +0.315 C 
BRANCH  14  15
ATOM     15  O   UNL     1      36.861 -27.435 -16.403  0.00  0.00    -0.480 OA
ATOM     16  H   UNL     1      37.721 -27.558 -16.753  0.00  0.00    +0.295 HD
ENDBRANCH  14  15
ENDBRANCH  12  14
ENDBRANCH   1  12
TORSDOF 8
ENDMDL
MODEL 6
REMARK VINA RESULT:      -6.3      1.848      3.980
REMARK  Name = 5496597
REMARK  8 active torsions:
REMARK  status: ('A' for Active; 'I' for Inactive)
REMARK    1  A    between atoms: C_1  and  C_3
REMARK    2  A    between atoms: C_1  and  C_9
REMARK    3  A    between atoms: C_1  and  C_12
REMARK    4  A    between atoms: C_3  and  C_5
REMARK    5  A    between atoms: C_5  and  O_6
REMARK    6  A    between atoms: C_9  and  O_10
REMARK    7  A    between atoms: C_12  and  C_14
REMARK    8  A    between atoms: C_14  and  O_15
REMARK                            x       y       z     vdW  Elec       q    Type
REMARK                         _______ _______ _______ _____ _____    ______ ____
ROOT
ATOM      1  C   UNL     1      37.813 -25.014 -14.854  0.00  0.00    +0.178 C 
ENDROOT
BRANCH   1   3
ATOM      2  O   UNL     1      39.365 -24.727 -12.978  0.00  0.00    -0.284 OA
ATOM      3  C   UNL     1      39.123 -25.163 -14.093  0.00  0.00    +0.258 C 
BRANCH   3   5
ATOM      4  O   UNL     1      41.101 -26.489 -14.169  0.00  0.00    -0.242 OA
ATOM      5  C   UNL     1      40.240 -25.895 -14.785  0.00  0.00    +0.374 C 
BRANCH   5   6
ATOM      6  O   UNL     1      40.145 -25.725 -16.110  0.00  0.00    -0.475 OA
ATOM      7  H   UNL     1      39.336 -25.905 -16.548  0.00  0.00    +0.295 HD
ENDBRANCH   5   6
ENDBRANCH   3   5
ENDBRANCH   1   3
BRANCH   1   9
ATOM      8  O   UNL     1      36.306 -26.708 -15.778  0.00  0.00    -0.250 OA
ATOM      9  C   UNL     1      36.936 -26.254 -14.835  0.00  0.00    +0.322 C 
BRANCH   9  10
ATOM     10  O   UNL     1      36.923 -26.806 -13.592  0.00  0.00    -0.480 OA
ATOM     11  H   UNL     1      36.180 -27.300 -13.307  0.00  0.00    +0.295 HD
ENDBRANCH   9  10
ENDBRANCH   1   9
BRANCH   1  12
ATOM     12  C   UNL     1      36.993 -23.839 -14.288  0.00  0.00    +0.129 C 
BRANCH  12  14
ATOM     13  O   UNL     1      36.329 -23.103 -16.522  0.00  0.00    -0.250 OA
ATOM     14  C   UNL     1      36.101 -23.182 -15.323  0.00  0.00    +0.315 C 
BRANCH  14  15
ATOM     15  O   UNL     1      34.979 -22.668 -14.752  0.00  0.00    -0.480 OA
ATOM     16  H   UNL     1      34.415 -22.109 -15.248  0.00  0.00    +0.295 HD
ENDBRANCH  14  15
ENDBRANCH  12  14
ENDBRANCH   1  12
TORSDOF 8
ENDMDL
MODEL 7
REMARK VINA RESULT:      -6.3      1.728      3.247
REMARK  Name = 5496597
REMARK  8 active torsions:
REMARK  status: ('A' for Active; 'I' for Inactive)
REMARK    1  A    between atoms: C_1  and  C_3
REMARK    2  A    between atoms: C_1  and  C_9
REMARK    3  A    between atoms: C_1  and  C_12
REMARK    4  A    between atoms: C_3  and  C_5
REMARK    5  A    between atoms: C_5  and  O_6
REMARK    6  A    between atoms: C_9  and  O_10
REMARK    7  A    between atoms: C_12  and  C_14
REMARK    8  A    between atoms: C_14  and  O_15
REMARK                            x       y       z     vdW  Elec       q    Type
REMARK                         _______ _______ _______ _____ _____    ______ ____
ROOT
ATOM      1  C   UNL     1      38.566 -24.636 -13.905  0.00  0.00    +0.178 C 
ENDROOT
BRANCH   1   3
ATOM      2  O   UNL     1      37.938 -26.085 -12.028  0.00  0.00    -0.284 OA
ATOM      3  C   UNL     1      38.066 -24.967 -12.505  0.00  0.00    +0.258 C 
BRANCH   3   5
ATOM      4  O   UNL     1      36.891 -23.944 -10.703  0.00  0.00    -0.242 OA
ATOM      5  C   UNL     1      37.666 -23.813 -11.628  0.00  0.00    +0.374 C 
BRANCH   5   6
ATOM      6  O   UNL     1      38.239 -22.685 -12.067  0.00  0.00    -0.475 OA
ATOM      7  H   UNL     1      38.520 -22.619 -12.959  0.00  0.00    +0.295 HD
ENDBRANCH   5   6
ENDBRANCH   3   5
ENDBRANCH   1   3
BRANCH   1   9
ATOM      8  O   UNL     1      40.914 -25.000 -14.494  0.00  0.00    -0.250 OA
ATOM      9  C   UNL     1      39.783 -25.435 -14.338  0.00  0.00    +0.322 C 
BRANCH   9  10
ATOM     10  O   UNL     1      39.445 -26.733 -14.554  0.00  0.00    -0.480 OA
ATOM     11  H   UNL     1      38.635 -27.068 -14.222  0.00  0.00    +0.295 HD
ENDBRANCH   9  10
ENDBRANCH   1   9
BRANCH   1  12
ATOM     12  C   UNL     1      37.449 -24.863 -14.942  0.00  0.00    +0.129 C 
BRANCH  12  14
ATOM     13  O   UNL     1      35.905 -23.477 -16.231  0.00  0.00    -0.250 OA
ATOM     14  C   UNL     1      36.870 -23.573 -15.487  0.00  0.00    +0.315 C 
BRANCH  14  15
ATOM     15  O   UNL     1      37.568 -22.493 -15.043  0.00  0.00    -0.480 OA
ATOM     16  H   UNL     1      38.187 -22.072 -15.607  0.00  0.00    +0.295 HD
ENDBRANCH  14  15
ENDBRANCH  12  14
ENDBRANCH   1  12
TORSDOF 8
ENDMDL
MODEL 8
REMARK VINA RESULT:      -6.3      2.182      3.192
REMARK  Name = 5496597
REMARK  8 active torsions:
REMARK  status: ('A' for Active; 'I' for Inactive)
REMARK    1  A    between atoms: C_1  and  C_3
REMARK    2  A    between atoms: C_1  and  C_9
REMARK    3  A    between atoms: C_1  and  C_12
REMARK    4  A    between atoms: C_3  and  C_5
REMARK    5  A    between atoms: C_5  and  O_6
REMARK    6  A    between atoms: C_9  and  O_10
REMARK    7  A    between atoms: C_12  and  C_14
REMARK    8  A    between atoms: C_14  and  O_15
REMARK                            x       y       z     vdW  Elec       q    Type
REMARK                         _______ _______ _______ _____ _____    ______ ____
ROOT
ATOM      1  C   UNL     1      36.014 -24.716 -13.603  0.00  0.00    +0.178 C 
ENDROOT
BRANCH   1   3
ATOM      2  O   UNL     1      37.684 -22.992 -14.108  0.00  0.00    -0.284 OA
ATOM      3  C   UNL     1      37.193 -23.793 -13.326  0.00  0.00    +0.258 C 
BRANCH   3   5
ATOM      4  O   UNL     1      37.758 -24.888 -11.287  0.00  0.00    -0.242 OA
ATOM      5  C   UNL     1      37.837 -23.888 -11.971  0.00  0.00    +0.374 C 
BRANCH   5   6
ATOM      6  O   UNL     1      38.420 -22.723 -11.659  0.00  0.00    -0.475 OA
ATOM      7  H   UNL     1      39.284 -22.533 -11.970  0.00  0.00    +0.295 HD
ENDBRANCH   5   6
ENDBRANCH   3   5
ENDBRANCH   1   3
BRANCH   1   9
ATOM      8  O   UNL     1      33.711 -24.424 -12.823  0.00  0.00    -0.250 OA
ATOM      9  C   UNL     1      34.657 -24.043 -13.497  0.00  0.00    +0.322 C 
BRANCH   9  10
ATOM     10  O   UNL     1      34.615 -22.936 -14.285  0.00  0.00    -0.480 OA
ATOM     11  H   UNL     1      34.982 -22.130 -13.980  0.00  0.00    +0.295 HD
ENDBRANCH   9  10
ENDBRANCH   1   9
BRANCH   1  12
ATOM     12  C   UNL     1      36.135 -25.336 -15.008  0.00  0.00    +0.129 C 
BRANCH  12  14
ATOM     13  O   UNL     1      37.569 -27.088 -14.091  0.00  0.00    -0.250 OA
ATOM     14  C   UNL     1      36.924 -26.630 -15.023  0.00  0.00    +0.315 C 
BRANCH  14  15
ATOM     15  O   UNL     1      36.836 -27.247 -16.232  0.00  0.00    -0.480 OA
ATOM     16  H   UNL     1      36.082 -27.764 -16.439  0.00  0.00    +0.295 HD
ENDBRANCH  14  15
ENDBRANCH  12  14
ENDBRANCH   1  12
TORSDOF 8
ENDMDL
MODEL 9
REMARK VINA RESULT:      -6.2      1.801      3.987
REMARK  Name = 5496597
REMARK  8 active torsions:
REMARK  status: ('A' for Active; 'I' for Inactive)
REMARK    1  A    between atoms: C_1  and  C_3
REMARK    2  A    between atoms: C_1  and  C_9
REMARK    3  A    between atoms: C_1  and  C_12
REMARK    4  A    between atoms: C_3  and  C_5
REMARK    5  A    between atoms: C_5  and  O_6
REMARK    6  A    between atoms: C_9  and  O_10
REMARK    7  A    between atoms: C_12  and  C_14
REMARK    8  A    between atoms: C_14  and  O_15
REMARK                            x       y       z     vdW  Elec       q    Type
REMARK                         _______ _______ _______ _____ _____    ______ ____
ROOT
ATOM      1  C   UNL     1      37.014 -24.406 -13.169  0.00  0.00    +0.178 C 
ENDROOT
BRANCH   1   3
ATOM      2  O   UNL     1      37.083 -26.521 -11.929  0.00  0.00    -0.284 OA
ATOM      3  C   UNL     1      37.096 -25.916 -12.991  0.00  0.00    +0.258 C 
BRANCH   3   5
ATOM      4  O   UNL     1      38.297 -27.220 -14.583  0.00  0.00    -0.242 OA
ATOM      5  C   UNL     1      37.233 -26.748 -14.236  0.00  0.00    +0.374 C 
BRANCH   5   6
ATOM      6  O   UNL     1      36.057 -26.813 -14.873  0.00  0.00    -0.475 OA
ATOM      7  H   UNL     1      36.029 -27.030 -15.785  0.00  0.00    +0.295 HD
ENDBRANCH   5   6
ENDBRANCH   3   5
ENDBRANCH   1   3
BRANCH   1   9
ATOM      8  O   UNL     1      38.273 -22.700 -11.943  0.00  0.00    -0.250 OA
ATOM      9  C   UNL     1      37.457 -23.610 -11.953  0.00  0.00    +0.322 C 
BRANCH   9  10
ATOM     10  O   UNL     1      36.827 -24.062 -10.837  0.00  0.00    -0.480 OA
ATOM     11  H   UNL     1      36.420 -24.906 -10.838  0.00  0.00    +0.295 HD
ENDBRANCH   9  10
ENDBRANCH   1   9
BRANCH   1  12
ATOM     12  C   UNL     1      37.867 -23.959 -14.372  0.00  0.00    +0.129 C 
BRANCH  12  14
ATOM     13  O   UNL     1      37.308 -22.081 -15.831  0.00  0.00    -0.250 OA
ATOM     14  C   UNL     1      37.071 -23.208 -15.420  0.00  0.00    +0.315 C 
BRANCH  14  15
ATOM     15  O   UNL     1      36.024 -23.950 -15.870  0.00  0.00    -0.480 OA
ATOM     16  H   UNL     1      35.645 -23.766 -16.707  0.00  0.00    +0.295 HD
ENDBRANCH  14  15
ENDBRANCH  12  14
ENDBRANCH   1  12
TORSDOF 8
ENDMDL
