MODEL 1
REMARK VINA RESULT:      -6.1      0.000      0.000
REMARK  Name = 448124
REMARK  9 active torsions:
REMARK  status: ('A' for Active; 'I' for Inactive)
REMARK    1  A    between atoms: C_1  and  C_3
REMARK    2  A    between atoms: C_1  and  C_10
REMARK    3  A    between atoms: C_3  and  C_4
REMARK    4  A    between atoms: C_4  and  N_6
REMARK    5  A    between atoms: C_10  and  C_11
REMARK    6  A    between atoms: C_11  and  C_12
REMARK    7  A    between atoms: C_12  and  C_13
REMARK    8  A    between atoms: C_13  and  C_15
REMARK    9  A    between atoms: C_15  and  O_16
REMARK                            x       y       z     vdW  Elec       q    Type
REMARK                         _______ _______ _______ _____ _____    ______ ____
ROOT
ATOM      1  C   UNL     1      32.393 -23.102 -16.843  0.00  0.00    +0.062 C 
ENDROOT
BRANCH   1   3
ATOM      2  O   UNL     1      34.785 -23.400 -16.756  0.00  0.00    -0.298 OA
ATOM      3  C   UNL     1      33.802 -23.072 -17.420  0.00  0.00    +0.130 C 
BRANCH   3   4
ATOM      4  C   UNL     1      33.915 -22.644 -18.880  0.00  0.00    -0.006 C 
ATOM      5  C   UNL     1      35.226 -21.908 -19.119  0.00  0.00    -0.016 C 
BRANCH   4   6
ATOM      6  N   UNL     1      32.770 -21.792 -19.191  0.00  0.00    +0.386 N 
ATOM      7  H   UNL     1      32.772 -21.571 -20.187  0.00  0.00    -0.089 HD
ATOM      8  H   UNL     1      32.832 -20.929 -18.651  0.00  0.00    -0.089 HD
ATOM      9  H   UNL     1      31.907 -22.281 -18.953  0.00  0.00    -0.089 HD
ENDBRANCH   4   6
ENDBRANCH   3   4
ENDBRANCH   1   3
BRANCH   1  10
ATOM     10  C   UNL     1      32.381 -23.377 -15.340  0.00  0.00    +0.008 C 
BRANCH  10  11
ATOM     11  C   UNL     1      31.053 -23.991 -14.897  0.00  0.00    +0.001 C 
BRANCH  11  12
ATOM     12  C   UNL     1      29.898 -23.001 -15.073  0.00  0.00    +0.012 C 
BRANCH  12  13
ATOM     13  C   UNL     1      28.606 -23.683 -15.523  0.00  0.00    +0.109 C 
BRANCH  13  15
ATOM     14  O   UNL     1      27.604 -23.955 -17.726  0.00  0.00    -0.250 OA
ATOM     15  C   UNL     1      28.139 -23.239 -16.891  0.00  0.00    +0.314 C 
BRANCH  15  16
ATOM     16  O   UNL     1      28.367 -21.914 -17.089  0.00  0.00    -0.480 OA
ATOM     17  H   UNL     1      27.931 -21.463 -17.786  0.00  0.00    +0.295 HD
ENDBRANCH  15  16
ENDBRANCH  13  15
ENDBRANCH  12  13
ENDBRANCH  11  12
ENDBRANCH  10  11
ENDBRANCH   1  10
TORSDOF 9
ENDMDL
MODEL 2
REMARK VINA RESULT:      -6.1      7.231      9.562
REMARK  Name = 448124
REMARK  9 active torsions:
REMARK  status: ('A' for Active; 'I' for Inactive)
REMARK    1  A    between atoms: C_1  and  C_3
REMARK    2  A    between atoms: C_1  and  C_10
REMARK    3  A    between atoms: C_3  and  C_4
REMARK    4  A    between atoms: C_4  and  N_6
REMARK    5  A    between atoms: C_10  and  C_11
REMARK    6  A    between atoms: C_11  and  C_12
REMARK    7  A    between atoms: C_12  and  C_13
REMARK    8  A    between atoms: C_13  and  C_15
REMARK    9  A    between atoms: C_15  and  O_16
REMARK                            x       y       z     vdW  Elec       q    Type
REMARK                         _______ _______ _______ _____ _____    ______ ____
ROOT
ATOM      1  C   UNL     1      34.862 -16.489 -20.879  0.00  0.00    +0.062 C 
ENDROOT
BRANCH   1   3
ATOM      2  O   UNL     1      36.148 -18.509 -20.587  0.00  0.00    -0.298 OA
ATOM      3  C   UNL     1      35.141 -17.976 -21.054  0.00  0.00    +0.130 C 
BRANCH   3   4
ATOM      4  C   UNL     1      34.080 -18.769 -21.811  0.00  0.00    -0.006 C 
ATOM      5  C   UNL     1      33.447 -19.813 -20.901  0.00  0.00    -0.016 C 
BRANCH   4   6
ATOM      6  N   UNL     1      34.722 -19.397 -22.963  0.00  0.00    +0.386 N 
ATOM      7  H   UNL     1      34.653 -18.776 -23.770  0.00  0.00    -0.089 HD
ATOM      8  H   UNL     1      34.256 -20.280 -23.172  0.00  0.00    -0.089 HD
ATOM      9  H   UNL     1      35.704 -19.572 -22.752  0.00  0.00    -0.089 HD
ENDBRANCH   4   6
ENDBRANCH   3   4
ENDBRANCH   1   3
BRANCH   1  10
ATOM     10  C   UNL     1      33.401 -16.132 -21.145  0.00  0.00    +0.008 C 
BRANCH  10  11
ATOM     11  C   UNL     1      33.280 -14.807 -21.899  0.00  0.00    +0.001 C 
BRANCH  11  12
ATOM     12  C   UNL     1      34.289 -14.728 -23.047  0.00  0.00    +0.012 C 
BRANCH  12  13
ATOM     13  C   UNL     1      33.693 -15.174 -24.382  0.00  0.00    +0.109 C 
BRANCH  13  15
ATOM     14  O   UNL     1      33.824 -17.163 -25.781  0.00  0.00    -0.250 OA
ATOM     15  C   UNL     1      34.312 -16.445 -24.920  0.00  0.00    +0.314 C 
BRANCH  15  16
ATOM     16  O   UNL     1      35.514 -16.697 -24.340  0.00  0.00    -0.480 OA
ATOM     17  H   UNL     1      36.262 -16.181 -24.571  0.00  0.00    +0.295 HD
ENDBRANCH  15  16
ENDBRANCH  13  15
ENDBRANCH  12  13
ENDBRANCH  11  12
ENDBRANCH  10  11
ENDBRANCH   1  10
TORSDOF 9
ENDMDL
MODEL 3
REMARK VINA RESULT:      -6.1      5.389      8.042
REMARK  Name = 448124
REMARK  9 active torsions:
REMARK  status: ('A' for Active; 'I' for Inactive)
REMARK    1  A    between atoms: C_1  and  C_3
REMARK    2  A    between atoms: C_1  and  C_10
REMARK    3  A    between atoms: C_3  and  C_4
REMARK    4  A    between atoms: C_4  and  N_6
REMARK    5  A    between atoms: C_10  and  C_11
REMARK    6  A    between atoms: C_11  and  C_12
REMARK    7  A    between atoms: C_12  and  C_13
REMARK    8  A    between atoms: C_13  and  C_15
REMARK    9  A    between atoms: C_15  and  O_16
REMARK                            x       y       z     vdW  Elec       q    Type
REMARK                         _______ _______ _______ _____ _____    ______ ____
ROOT
ATOM      1  C   UNL     1      36.313 -21.043 -19.727  0.00  0.00    +0.062 C 
ENDROOT
BRANCH   1   3
ATOM      2  O   UNL     1      34.895 -22.555 -18.494  0.00  0.00    -0.298 OA
ATOM      3  C   UNL     1      35.935 -21.896 -18.524  0.00  0.00    +0.130 C 
BRANCH   3   4
ATOM      4  C   UNL     1      36.939 -21.910 -17.375  0.00  0.00    -0.006 C 
ATOM      5  C   UNL     1      36.320 -22.543 -16.137  0.00  0.00    -0.016 C 
BRANCH   4   6
ATOM      6  N   UNL     1      37.346 -20.532 -17.113  0.00  0.00    +0.386 N 
ATOM      7  H   UNL     1      38.157 -20.302 -17.688  0.00  0.00    -0.089 HD
ATOM      8  H   UNL     1      37.589 -20.431 -16.127  0.00  0.00    -0.089 HD
ATOM      9  H   UNL     1      36.578 -19.901 -17.341  0.00  0.00    -0.089 HD
ENDBRANCH   4   6
ENDBRANCH   3   4
ENDBRANCH   1   3
BRANCH   1  10
ATOM     10  C   UNL     1      35.101 -20.384 -20.383  0.00  0.00    +0.008 C 
BRANCH  10  11
ATOM     11  C   UNL     1      35.525 -19.301 -21.376  0.00  0.00    +0.001 C 
BRANCH  11  12
ATOM     12  C   UNL     1      34.435 -19.049 -22.421  0.00  0.00    +0.012 C 
BRANCH  12  13
ATOM     13  C   UNL     1      34.975 -19.084 -23.851  0.00  0.00    +0.109 C 
BRANCH  13  15
ATOM     14  O   UNL     1      34.269 -17.551 -25.608  0.00  0.00    -0.250 OA
ATOM     15  C   UNL     1      34.872 -17.754 -24.563  0.00  0.00    +0.314 C 
BRANCH  15  16
ATOM     16  O   UNL     1      35.524 -16.774 -23.883  0.00  0.00    -0.480 OA
ATOM     17  H   UNL     1      36.203 -16.284 -24.305  0.00  0.00    +0.295 HD
ENDBRANCH  15  16
ENDBRANCH  13  15
ENDBRANCH  12  13
ENDBRANCH  11  12
ENDBRANCH  10  11
ENDBRANCH   1  10
TORSDOF 9
ENDMDL
MODEL 4
REMARK VINA RESULT:      -6.1      7.061      9.683
REMARK  Name = 448124
REMARK  9 active torsions:
REMARK  status: ('A' for Active; 'I' for Inactive)
REMARK    1  A    between atoms: C_1  and  C_3
REMARK    2  A    between atoms: C_1  and  C_10
REMARK    3  A    between atoms: C_3  and  C_4
REMARK    4  A    between atoms: C_4  and  N_6
REMARK    5  A    between atoms: C_10  and  C_11
REMARK    6  A    between atoms: C_11  and  C_12
REMARK    7  A    between atoms: C_12  and  C_13
REMARK    8  A    between atoms: C_13  and  C_15
REMARK    9  A    between atoms: C_15  and  O_16
REMARK                            x       y       z     vdW  Elec       q    Type
REMARK                         _______ _______ _______ _____ _____    ______ ____
ROOT
ATOM      1  C   UNL     1      35.733 -18.320 -22.947  0.00  0.00    +0.062 C 
ENDROOT
BRANCH   1   3
ATOM      2  O   UNL     1      35.310 -17.542 -20.703  0.00  0.00    -0.298 OA
ATOM      3  C   UNL     1      35.304 -18.485 -21.495  0.00  0.00    +0.130 C 
BRANCH   3   4
ATOM      4  C   UNL     1      34.835 -19.880 -21.093  0.00  0.00    -0.006 C 
ATOM      5  C   UNL     1      33.376 -19.846 -20.661  0.00  0.00    -0.016 C 
BRANCH   4   6
ATOM      6  N   UNL     1      35.693 -20.350 -20.008  0.00  0.00    +0.386 N 
ATOM      7  H   UNL     1      36.445 -19.678 -19.854  0.00  0.00    -0.089 HD
ATOM      8  H   UNL     1      36.092 -21.255 -20.257  0.00  0.00    -0.089 HD
ATOM      9  H   UNL     1      35.142 -20.444 -19.154  0.00  0.00    -0.089 HD
ENDBRANCH   4   6
ENDBRANCH   3   4
ENDBRANCH   1   3
BRANCH   1  10
ATOM     10  C   UNL     1      34.948 -19.224 -23.896  0.00  0.00    +0.008 C 
BRANCH  10  11
ATOM     11  C   UNL     1      34.238 -18.411 -24.980  0.00  0.00    +0.001 C 
BRANCH  11  12
ATOM     12  C   UNL     1      34.867 -17.024 -25.133  0.00  0.00    +0.012 C 
BRANCH  12  13
ATOM     13  C   UNL     1      33.826 -15.904 -25.123  0.00  0.00    +0.109 C 
BRANCH  13  15
ATOM     14  O   UNL     1      34.881 -14.967 -23.138  0.00  0.00    -0.250 OA
ATOM     15  C   UNL     1      33.950 -14.981 -23.931  0.00  0.00    +0.314 C 
BRANCH  15  16
ATOM     16  O   UNL     1      32.895 -14.130 -23.849  0.00  0.00    -0.480 OA
ATOM     17  H   UNL     1      32.987 -13.311 -23.402  0.00  0.00    +0.295 HD
ENDBRANCH  15  16
ENDBRANCH  13  15
ENDBRANCH  12  13
ENDBRANCH  11  12
ENDBRANCH  10  11
ENDBRANCH   1  10
TORSDOF 9
ENDMDL
MODEL 5
REMARK VINA RESULT:      -6.0      5.312      7.141
REMARK  Name = 448124
REMARK  9 active torsions:
REMARK  status: ('A' for Active; 'I' for Inactive)
REMARK    1  A    between atoms: C_1  and  C_3
REMARK    2  A    between atoms: C_1  and  C_10
REMARK    3  A    between atoms: C_3  and  C_4
REMARK    4  A    between atoms: C_4  and  N_6
REMARK    5  A    between atoms: C_10  and  C_11
REMARK    6  A    between atoms: C_11  and  C_12
REMARK    7  A    between atoms: C_12  and  C_13
REMARK    8  A    between atoms: C_13  and  C_15
REMARK    9  A    between atoms: C_15  and  O_16
REMARK                            x       y       z     vdW  Elec       q    Type
REMARK                         _______ _______ _______ _____ _____    ______ ____
ROOT
ATOM      1  C   UNL     1      33.760 -18.666 -21.263  0.00  0.00    +0.062 C 
ENDROOT
BRANCH   1   3
ATOM      2  O   UNL     1      36.056 -18.430 -20.563  0.00  0.00    -0.298 OA
ATOM      3  C   UNL     1      35.088 -17.933 -21.139  0.00  0.00    +0.130 C 
BRANCH   3   4
ATOM      4  C   UNL     1      35.156 -16.560 -21.802  0.00  0.00    -0.006 C 
ATOM      5  C   UNL     1      33.860 -15.796 -21.576  0.00  0.00    -0.016 C 
BRANCH   4   6
ATOM      6  N   UNL     1      35.407 -16.759 -23.227  0.00  0.00    +0.386 N 
ATOM      7  H   UNL     1      36.057 -16.047 -23.560  0.00  0.00    -0.089 HD
ATOM      8  H   UNL     1      34.529 -16.684 -23.741  0.00  0.00    -0.089 HD
ATOM      9  H   UNL     1      35.811 -17.684 -23.377  0.00  0.00    -0.089 HD
ENDBRANCH   4   6
ENDBRANCH   3   4
ENDBRANCH   1   3
BRANCH   1  10
ATOM     10  C   UNL     1      33.895 -20.169 -21.024  0.00  0.00    +0.008 C 
BRANCH  10  11
ATOM     11  C   UNL     1      33.007 -20.631 -19.868  0.00  0.00    +0.001 C 
BRANCH  11  12
ATOM     12  C   UNL     1      33.618 -21.834 -19.146  0.00  0.00    +0.012 C 
BRANCH  12  13
ATOM     13  C   UNL     1      35.066 -22.093 -19.561  0.00  0.00    +0.109 C 
BRANCH  13  15
ATOM     14  O   UNL     1      36.312 -22.323 -17.480  0.00  0.00    -0.250 OA
ATOM     15  C   UNL     1      36.072 -21.697 -18.503  0.00  0.00    +0.314 C 
BRANCH  15  16
ATOM     16  O   UNL     1      36.716 -20.547 -18.834  0.00  0.00    -0.480 OA
ATOM     17  H   UNL     1      36.239 -19.838 -19.222  0.00  0.00    +0.295 HD
ENDBRANCH  15  16
ENDBRANCH  13  15
ENDBRANCH  12  13
ENDBRANCH  11  12
ENDBRANCH  10  11
ENDBRANCH   1  10
TORSDOF 9
ENDMDL
MODEL 6
REMARK VINA RESULT:      -6.0      6.534      8.962
REMARK  Name = 448124
REMARK  9 active torsions:
REMARK  status: ('A' for Active; 'I' for Inactive)
REMARK    1  A    between atoms: C_1  and  C_3
REMARK    2  A    between atoms: C_1  and  C_10
REMARK    3  A    between atoms: C_3  and  C_4
REMARK    4  A    between atoms: C_4  and  N_6
REMARK    5  A    between atoms: C_10  and  C_11
REMARK    6  A    between atoms: C_11  and  C_12
REMARK    7  A    between atoms: C_12  and  C_13
REMARK    8  A    between atoms: C_13  and  C_15
REMARK    9  A    between atoms: C_15  and  O_16
REMARK                            x       y       z     vdW  Elec       q    Type
REMARK                         _______ _______ _______ _____ _____    ______ ____
ROOT
ATOM      1  C   UNL     1      34.680 -19.438 -20.976  0.00  0.00    +0.062 C 
ENDROOT
BRANCH   1   3
ATOM      2  O   UNL     1      32.520 -20.486 -20.740  0.00  0.00    -0.298 OA
ATOM      3  C   UNL     1      33.700 -20.446 -20.390  0.00  0.00    +0.130 C 
BRANCH   3   4
ATOM      4  C   UNL     1      34.278 -21.424 -19.372  0.00  0.00    -0.006 C 
ATOM      5  C   UNL     1      35.775 -21.597 -19.592  0.00  0.00    -0.016 C 
BRANCH   4   6
ATOM      6  N   UNL     1      33.576 -22.697 -19.518  0.00  0.00    +0.386 N 
ATOM      7  H   UNL     1      32.727 -22.556 -20.065  0.00  0.00    -0.089 HD
ATOM      8  H   UNL     1      33.330 -23.057 -18.595  0.00  0.00    -0.089 HD
ATOM      9  H   UNL     1      34.180 -23.367 -19.994  0.00  0.00    -0.089 HD
ENDBRANCH   4   6
ENDBRANCH   3   4
ENDBRANCH   1   3
BRANCH   1  10
ATOM     10  C   UNL     1      34.588 -19.348 -22.498  0.00  0.00    +0.008 C 
BRANCH  10  11
ATOM     11  C   UNL     1      35.609 -18.358 -23.059  0.00  0.00    +0.001 C 
BRANCH  11  12
ATOM     12  C   UNL     1      34.934 -17.056 -23.501  0.00  0.00    +0.012 C 
BRANCH  12  13
ATOM     13  C   UNL     1      34.662 -17.020 -25.005  0.00  0.00    +0.109 C 
BRANCH  13  15
ATOM     14  O   UNL     1      33.442 -15.612 -26.574  0.00  0.00    -0.250 OA
ATOM     15  C   UNL     1      33.782 -15.864 -25.426  0.00  0.00    +0.314 C 
BRANCH  15  16
ATOM     16  O   UNL     1      33.380 -15.130 -24.357  0.00  0.00    -0.480 OA
ATOM     17  H   UNL     1      33.206 -14.213 -24.457  0.00  0.00    +0.295 HD
ENDBRANCH  15  16
ENDBRANCH  13  15
ENDBRANCH  12  13
ENDBRANCH  11  12
ENDBRANCH  10  11
ENDBRANCH   1  10
TORSDOF 9
ENDMDL
MODEL 7
REMARK VINA RESULT:      -6.0      5.208      7.652
REMARK  Name = 448124
REMARK  9 active torsions:
REMARK  status: ('A' for Active; 'I' for Inactive)
REMARK    1  A    between atoms: C_1  and  C_3
REMARK    2  A    between atoms: C_1  and  C_10
REMARK    3  A    between atoms: C_3  and  C_4
REMARK    4  A    between atoms: C_4  and  N_6
REMARK    5  A    between atoms: C_10  and  C_11
REMARK    6  A    between atoms: C_11  and  C_12
REMARK    7  A    between atoms: C_12  and  C_13
REMARK    8  A    between atoms: C_13  and  C_15
REMARK    9  A    between atoms: C_15  and  O_16
REMARK                            x       y       z     vdW  Elec       q    Type
REMARK                         _______ _______ _______ _____ _____    ______ ____
ROOT
ATOM      1  C   UNL     1      35.470 -17.784 -22.031  0.00  0.00    +0.062 C 
ENDROOT
BRANCH   1   3
ATOM      2  O   UNL     1      34.980 -16.037 -20.442  0.00  0.00    -0.298 OA
ATOM      3  C   UNL     1      34.858 -16.461 -21.591  0.00  0.00    +0.130 C 
BRANCH   3   4
ATOM      4  C   UNL     1      34.116 -15.679 -22.670  0.00  0.00    -0.006 C 
ATOM      5  C   UNL     1      34.401 -16.267 -24.044  0.00  0.00    -0.016 C 
BRANCH   4   6
ATOM      6  N   UNL     1      34.548 -14.285 -22.596  0.00  0.00    +0.386 N 
ATOM      7  H   UNL     1      34.928 -13.999 -23.498  0.00  0.00    -0.089 HD
ATOM      8  H   UNL     1      35.267 -14.190 -21.879  0.00  0.00    -0.089 HD
ATOM      9  H   UNL     1      33.751 -13.693 -22.359  0.00  0.00    -0.089 HD
ENDBRANCH   4   6
ENDBRANCH   3   4
ENDBRANCH   1   3
BRANCH   1  10
ATOM     10  C   UNL     1      35.200 -18.914 -21.038  0.00  0.00    +0.008 C 
BRANCH  10  11
ATOM     11  C   UNL     1      33.741 -19.368 -21.095  0.00  0.00    +0.001 C 
BRANCH  11  12
ATOM     12  C   UNL     1      33.503 -20.584 -20.196  0.00  0.00    +0.012 C 
BRANCH  12  13
ATOM     13  C   UNL     1      34.807 -21.222 -19.717  0.00  0.00    +0.109 C 
BRANCH  13  15
ATOM     14  O   UNL     1      34.991 -22.609 -17.723  0.00  0.00    -0.250 OA
ATOM     15  C   UNL     1      34.595 -22.457 -18.870  0.00  0.00    +0.314 C 
BRANCH  15  16
ATOM     16  O   UNL     1      33.875 -23.397 -19.535  0.00  0.00    -0.480 OA
ATOM     17  H   UNL     1      33.055 -23.169 -19.928  0.00  0.00    +0.295 HD
ENDBRANCH  15  16
ENDBRANCH  13  15
ENDBRANCH  12  13
ENDBRANCH  11  12
ENDBRANCH  10  11
ENDBRANCH   1  10
TORSDOF 9
ENDMDL
MODEL 8
REMARK VINA RESULT:      -6.0      8.354     10.361
REMARK  Name = 448124
REMARK  9 active torsions:
REMARK  status: ('A' for Active; 'I' for Inactive)
REMARK    1  A    between atoms: C_1  and  C_3
REMARK    2  A    between atoms: C_1  and  C_10
REMARK    3  A    between atoms: C_3  and  C_4
REMARK    4  A    between atoms: C_4  and  N_6
REMARK    5  A    between atoms: C_10  and  C_11
REMARK    6  A    between atoms: C_11  and  C_12
REMARK    7  A    between atoms: C_12  and  C_13
REMARK    8  A    between atoms: C_13  and  C_15
REMARK    9  A    between atoms: C_15  and  O_16
REMARK                            x       y       z     vdW  Elec       q    Type
REMARK                         _______ _______ _______ _____ _____    ______ ____
ROOT
ATOM      1  C   UNL     1      34.574 -15.846 -20.960  0.00  0.00    +0.062 C 
ENDROOT
BRANCH   1   3
ATOM      2  O   UNL     1      35.682 -17.929 -20.458  0.00  0.00    -0.298 OA
ATOM      3  C   UNL     1      35.057 -17.255 -21.277  0.00  0.00    +0.130 C 
BRANCH   3   4
ATOM      4  C   UNL     1      34.687 -17.792 -22.656  0.00  0.00    -0.006 C 
ATOM      5  C   UNL     1      34.583 -19.310 -22.625  0.00  0.00    -0.016 C 
BRANCH   4   6
ATOM      6  N   UNL     1      35.713 -17.356 -23.601  0.00  0.00    +0.386 N 
ATOM      7  H   UNL     1      35.803 -18.046 -24.346  0.00  0.00    -0.089 HD
ATOM      8  H   UNL     1      36.605 -17.261 -23.115  0.00  0.00    -0.089 HD
ATOM      9  H   UNL     1      35.446 -16.456 -24.001  0.00  0.00    -0.089 HD
ENDBRANCH   4   6
ENDBRANCH   3   4
ENDBRANCH   1   3
BRANCH   1  10
ATOM     10  C   UNL     1      33.185 -15.561 -21.529  0.00  0.00    +0.008 C 
BRANCH  10  11
ATOM     11  C   UNL     1      33.158 -14.238 -22.295  0.00  0.00    +0.001 C 
BRANCH  11  12
ATOM     12  C   UNL     1      33.937 -14.342 -23.610  0.00  0.00    +0.012 C 
BRANCH  12  13
ATOM     13  C   UNL     1      33.020 -14.360 -24.833  0.00  0.00    +0.109 C 
BRANCH  13  15
ATOM     14  O   UNL     1      33.708 -16.510 -25.749  0.00  0.00    -0.250 OA
ATOM     15  C   UNL     1      33.478 -15.319 -25.909  0.00  0.00    +0.314 C 
BRANCH  15  16
ATOM     16  O   UNL     1      33.587 -14.700 -27.113  0.00  0.00    -0.480 OA
ATOM     17  H   UNL     1      33.875 -13.809 -27.157  0.00  0.00    +0.295 HD
ENDBRANCH  15  16
ENDBRANCH  13  15
ENDBRANCH  12  13
ENDBRANCH  11  12
ENDBRANCH  10  11
ENDBRANCH   1  10
TORSDOF 9
ENDMDL
MODEL 9
REMARK VINA RESULT:      -6.0      4.421      6.558
REMARK  Name = 448124
REMARK  9 active torsions:
REMARK  status: ('A' for Active; 'I' for Inactive)
REMARK    1  A    between atoms: C_1  and  C_3
REMARK    2  A    between atoms: C_1  and  C_10
REMARK    3  A    between atoms: C_3  and  C_4
REMARK    4  A    between atoms: C_4  and  N_6
REMARK    5  A    between atoms: C_10  and  C_11
REMARK    6  A    between atoms: C_11  and  C_12
REMARK    7  A    between atoms: C_12  and  C_13
REMARK    8  A    between atoms: C_13  and  C_15
REMARK    9  A    between atoms: C_15  and  O_16
REMARK                            x       y       z     vdW  Elec       q    Type
REMARK                         _______ _______ _______ _____ _____    ______ ____
ROOT
ATOM      1  C   UNL     1      35.766 -19.201 -21.629  0.00  0.00    +0.062 C 
ENDROOT
BRANCH   1   3
ATOM      2  O   UNL     1      35.270 -17.015 -20.740  0.00  0.00    -0.298 OA
ATOM      3  C   UNL     1      35.227 -17.779 -21.704  0.00  0.00    +0.130 C 
BRANCH   3   4
ATOM      4  C   UNL     1      34.664 -17.351 -23.055  0.00  0.00    -0.006 C 
ATOM      5  C   UNL     1      34.721 -18.505 -24.045  0.00  0.00    -0.016 C 
BRANCH   4   6
ATOM      6  N   UNL     1      35.446 -16.212 -23.530  0.00  0.00    +0.386 N 
ATOM      7  H   UNL     1      34.819 -15.505 -23.913  0.00  0.00    -0.089 HD
ATOM      8  H   UNL     1      36.092 -16.523 -24.257  0.00  0.00    -0.089 HD
ATOM      9  H   UNL     1      35.974 -15.814 -22.754  0.00  0.00    -0.089 HD
ENDBRANCH   4   6
ENDBRANCH   3   4
ENDBRANCH   1   3
BRANCH   1  10
ATOM     10  C   UNL     1      35.087 -20.029 -20.539  0.00  0.00    +0.008 C 
BRANCH  10  11
ATOM     11  C   UNL     1      33.564 -19.952 -20.650  0.00  0.00    +0.001 C 
BRANCH  11  12
ATOM     12  C   UNL     1      32.887 -20.922 -19.677  0.00  0.00    +0.012 C 
BRANCH  12  13
ATOM     13  C   UNL     1      33.855 -21.968 -19.125  0.00  0.00    +0.109 C 
BRANCH  13  15
ATOM     14  O   UNL     1      32.080 -22.825 -17.695  0.00  0.00    -0.250 OA
ATOM     15  C   UNL     1      33.258 -22.815 -18.023  0.00  0.00    +0.314 C 
BRANCH  15  16
ATOM     16  O   UNL     1      34.198 -23.601 -17.436  0.00  0.00    -0.480 OA
ATOM     17  H   UNL     1      35.086 -23.307 -17.381  0.00  0.00    +0.295 HD
ENDBRANCH  15  16
ENDBRANCH  13  15
ENDBRANCH  12  13
ENDBRANCH  11  12
ENDBRANCH  10  11
ENDBRANCH   1  10
TORSDOF 9
ENDMDL
