MODEL 1
REMARK VINA RESULT:      -7.9      0.000      0.000
REMARK  Name = 11159621
REMARK  1 active torsions:
REMARK  status: ('A' for Active; 'I' for Inactive)
REMARK    1  A    between atoms: C_8  and  C_14
REMARK                            x       y       z     vdW  Elec       q    Type
REMARK                         _______ _______ _______ _____ _____    ______ ____
ROOT
ATOM      1  N   UNL     1      29.657 -25.481 -14.108  0.00  0.00    -0.279 N 
ATOM      2  N   UNL     1      28.585 -25.023 -14.805  0.00  0.00    -0.163 NA
ATOM      3  C   UNL     1      31.581 -22.943 -15.601  0.00  0.00    +0.030 C 
ATOM      4  C   UNL     1      32.774 -23.759 -14.978  0.00  0.00    +0.011 C 
ATOM      5  C   UNL     1      30.429 -23.789 -15.259  0.00  0.00    +0.020 A 
ATOM      6  C   UNL     1      32.167 -24.768 -13.937  0.00  0.00    +0.045 C 
ATOM      7  C   UNL     1      30.765 -24.758 -14.365  0.00  0.00    +0.050 A 
ATOM      8  C   UNL     1      29.074 -23.984 -15.507  0.00  0.00    +0.162 A 
ATOM      9  H   UNL     1      29.627 -26.248 -13.492  0.00  0.00    +0.189 HD
ENDROOT
BRANCH   8  14
ATOM     10  N   UNL     1      27.946 -23.526 -17.648  0.00  0.00    -0.108 NA
ATOM     11  N   UNL     1      27.777 -21.972 -16.010  0.00  0.00    -0.085 NA
ATOM     12  N   UNL     1      27.222 -22.450 -17.988  0.00  0.00    -0.140 N 
ATOM     13  N   UNL     1      27.095 -21.504 -17.048  0.00  0.00    -0.022 NA
ATOM     14  C   UNL     1      28.271 -23.180 -16.401  0.00  0.00    +0.093 C 
ATOM     15  H   UNL     1      26.807 -22.361 -18.877  0.00  0.00    +0.197 HD
ENDBRANCH   8  14
TORSDOF 1
ENDMDL
MODEL 2
REMARK VINA RESULT:      -7.8      8.645      9.463
REMARK  Name = 11159621
REMARK  1 active torsions:
REMARK  status: ('A' for Active; 'I' for Inactive)
REMARK    1  A    between atoms: C_8  and  C_14
REMARK                            x       y       z     vdW  Elec       q    Type
REMARK                         _______ _______ _______ _____ _____    ______ ____
ROOT
ATOM      1  N   UNL     1      36.552 -20.498 -19.790  0.00  0.00    -0.279 N 
ATOM      2  N   UNL     1      36.831 -19.395 -20.531  0.00  0.00    -0.163 NA
ATOM      3  C   UNL     1      33.182 -20.157 -20.741  0.00  0.00    +0.030 C 
ATOM      4  C   UNL     1      32.966 -21.241 -19.621  0.00  0.00    +0.011 C 
ATOM      5  C   UNL     1      34.624 -19.894 -20.629  0.00  0.00    +0.020 A 
ATOM      6  C   UNL     1      34.372 -21.846 -19.267  0.00  0.00    +0.045 C 
ATOM      7  C   UNL     1      35.242 -20.812 -19.836  0.00  0.00    +0.050 A 
ATOM      8  C   UNL     1      35.638 -19.035 -21.040  0.00  0.00    +0.162 A 
ATOM      9  H   UNL     1      37.224 -21.006 -19.282  0.00  0.00    +0.189 HD
ENDROOT
BRANCH   8  14
ATOM     10  N   UNL     1      35.735 -17.879 -23.213  0.00  0.00    -0.108 NA
ATOM     11  N   UNL     1      34.967 -16.715 -21.428  0.00  0.00    -0.085 NA
ATOM     12  N   UNL     1      35.384 -16.616 -23.494  0.00  0.00    -0.140 N 
ATOM     13  N   UNL     1      34.924 -15.889 -22.466  0.00  0.00    -0.022 NA
ATOM     14  C   UNL     1      35.455 -17.893 -21.908  0.00  0.00    +0.093 C 
ATOM     15  H   UNL     1      35.460 -16.244 -24.402  0.00  0.00    +0.197 HD
ENDBRANCH   8  14
TORSDOF 1
ENDMDL
MODEL 3
REMARK VINA RESULT:      -7.7      7.344      8.473
REMARK  Name = 11159621
REMARK  1 active torsions:
REMARK  status: ('A' for Active; 'I' for Inactive)
REMARK    1  A    between atoms: C_8  and  C_14
REMARK                            x       y       z     vdW  Elec       q    Type
REMARK                         _______ _______ _______ _____ _____    ______ ____
ROOT
ATOM      1  N   UNL     1      37.001 -19.751 -20.193  0.00  0.00    -0.279 N 
ATOM      2  N   UNL     1      36.530 -20.710 -19.355  0.00  0.00    -0.163 NA
ATOM      3  C   UNL     1      33.800 -19.588 -21.642  0.00  0.00    +0.030 C 
ATOM      4  C   UNL     1      34.554 -18.727 -22.722  0.00  0.00    +0.011 C 
ATOM      5  C   UNL     1      34.904 -20.000 -20.764  0.00  0.00    +0.020 A 
ATOM      6  C   UNL     1      35.954 -18.335 -22.126  0.00  0.00    +0.045 C 
ATOM      7  C   UNL     1      36.048 -19.315 -21.039  0.00  0.00    +0.050 A 
ATOM      8  C   UNL     1      35.241 -20.852 -19.717  0.00  0.00    +0.162 A 
ATOM      9  H   UNL     1      37.927 -19.416 -20.182  0.00  0.00    +0.189 HD
ENDROOT
BRANCH   8  14
ATOM     10  N   UNL     1      33.006 -21.761 -19.218  0.00  0.00    -0.108 NA
ATOM     11  N   UNL     1      34.797 -22.774 -18.271  0.00  0.00    -0.085 NA
ATOM     12  N   UNL     1      32.694 -22.806 -18.439  0.00  0.00    -0.140 N 
ATOM     13  N   UNL     1      33.723 -23.437 -17.857  0.00  0.00    -0.022 NA
ATOM     14  C   UNL     1      34.333 -21.781 -19.081  0.00  0.00    +0.093 C 
ATOM     15  H   UNL     1      31.762 -23.094 -18.303  0.00  0.00    +0.197 HD
ENDBRANCH   8  14
TORSDOF 1
ENDMDL
MODEL 4
REMARK VINA RESULT:      -7.7      6.407      7.735
REMARK  Name = 11159621
REMARK  1 active torsions:
REMARK  status: ('A' for Active; 'I' for Inactive)
REMARK    1  A    between atoms: C_8  and  C_14
REMARK                            x       y       z     vdW  Elec       q    Type
REMARK                         _______ _______ _______ _____ _____    ______ ____
ROOT
ATOM      1  N   UNL     1      33.239 -19.715 -21.236  0.00  0.00    -0.279 N 
ATOM      2  N   UNL     1      32.682 -20.605 -20.375  0.00  0.00    -0.163 NA
ATOM      3  C   UNL     1      36.394 -20.633 -19.980  0.00  0.00    +0.030 C 
ATOM      4  C   UNL     1      36.862 -19.371 -20.796  0.00  0.00    +0.011 C 
ATOM      5  C   UNL     1      34.937 -20.588 -20.168  0.00  0.00    +0.020 A 
ATOM      6  C   UNL     1      35.690 -18.967 -21.761  0.00  0.00    +0.045 C 
ATOM      7  C   UNL     1      34.582 -19.690 -21.128  0.00  0.00    +0.050 A 
ATOM      8  C   UNL     1      33.736 -21.133 -19.726  0.00  0.00    +0.162 A 
ATOM      9  H   UNL     1      32.724 -19.156 -21.861  0.00  0.00    +0.189 HD
ENDROOT
BRANCH   8  14
ATOM     10  N   UNL     1      32.468 -22.499 -18.116  0.00  0.00    -0.108 NA
ATOM     11  N   UNL     1      34.704 -22.828 -18.252  0.00  0.00    -0.085 NA
ATOM     12  N   UNL     1      32.933 -23.440 -17.283  0.00  0.00    -0.140 N 
ATOM     13  N   UNL     1      34.253 -23.670 -17.329  0.00  0.00    -0.022 NA
ATOM     14  C   UNL     1      33.614 -22.146 -18.701  0.00  0.00    +0.093 C 
ATOM     15  H   UNL     1      32.340 -23.936 -16.673  0.00  0.00    +0.197 HD
ENDBRANCH   8  14
TORSDOF 1
ENDMDL
MODEL 5
REMARK VINA RESULT:      -7.6      9.724     11.058
REMARK  Name = 11159621
REMARK  1 active torsions:
REMARK  status: ('A' for Active; 'I' for Inactive)
REMARK    1  A    between atoms: C_8  and  C_14
REMARK                            x       y       z     vdW  Elec       q    Type
REMARK                         _______ _______ _______ _____ _____    ______ ____
ROOT
ATOM      1  N   UNL     1      35.331 -17.166 -23.967  0.00  0.00    -0.279 N 
ATOM      2  N   UNL     1      35.594 -18.368 -23.392  0.00  0.00    -0.163 NA
ATOM      3  C   UNL     1      34.570 -15.917 -20.768  0.00  0.00    +0.030 C 
ATOM      4  C   UNL     1      34.017 -14.698 -21.596  0.00  0.00    +0.011 C 
ATOM      5  C   UNL     1      34.967 -16.848 -21.834  0.00  0.00    +0.020 A 
ATOM      6  C   UNL     1      34.560 -14.836 -23.065  0.00  0.00    +0.045 C 
ATOM      7  C   UNL     1      34.956 -16.248 -23.055  0.00  0.00    +0.050 A 
ATOM      8  C   UNL     1      35.366 -18.157 -22.082  0.00  0.00    +0.162 A 
ATOM      9  H   UNL     1      35.405 -16.989 -24.932  0.00  0.00    +0.189 HD
ENDROOT
BRANCH   8  14
ATOM     10  N   UNL     1      34.558 -20.003 -20.665  0.00  0.00    -0.108 NA
ATOM     11  N   UNL     1      36.723 -19.374 -20.451  0.00  0.00    -0.085 NA
ATOM     12  N   UNL     1      35.245 -20.710 -19.756  0.00  0.00    -0.140 N 
ATOM     13  N   UNL     1      36.532 -20.372 -19.596  0.00  0.00    -0.022 NA
ATOM     14  C   UNL     1      35.526 -19.180 -21.072  0.00  0.00    +0.093 C 
ATOM     15  H   UNL     1      34.829 -21.436 -19.237  0.00  0.00    +0.197 HD
ENDBRANCH   8  14
TORSDOF 1
ENDMDL
MODEL 6
REMARK VINA RESULT:      -7.5      1.539      2.151
REMARK  Name = 11159621
REMARK  1 active torsions:
REMARK  status: ('A' for Active; 'I' for Inactive)
REMARK    1  A    between atoms: C_8  and  C_14
REMARK                            x       y       z     vdW  Elec       q    Type
REMARK                         _______ _______ _______ _____ _____    ______ ____
ROOT
ATOM      1  N   UNL     1      31.736 -23.381 -13.835  0.00  0.00    -0.279 N 
ATOM      2  N   UNL     1      30.430 -23.391 -14.209  0.00  0.00    -0.163 NA
ATOM      3  C   UNL     1      32.600 -23.065 -17.230  0.00  0.00    +0.030 C 
ATOM      4  C   UNL     1      34.044 -23.371 -16.683  0.00  0.00    +0.011 C 
ATOM      5  C   UNL     1      31.785 -23.195 -16.014  0.00  0.00    +0.020 A 
ATOM      6  C   UNL     1      34.006 -23.202 -15.121  0.00  0.00    +0.045 C 
ATOM      7  C   UNL     1      32.558 -23.265 -14.896  0.00  0.00    +0.050 A 
ATOM      8  C   UNL     1      30.476 -23.276 -15.550  0.00  0.00    +0.162 A 
ATOM      9  H   UNL     1      32.042 -23.451 -12.903  0.00  0.00    +0.189 HD
ENDROOT
BRANCH   8  14
ATOM     10  N   UNL     1      28.777 -22.131 -16.918  0.00  0.00    -0.108 NA
ATOM     11  N   UNL     1      28.618 -24.379 -16.694  0.00  0.00    -0.085 NA
ATOM     12  N   UNL     1      27.739 -22.672 -17.570  0.00  0.00    -0.140 N 
ATOM     13  N   UNL     1      27.604 -24.002 -17.465  0.00  0.00    -0.022 NA
ATOM     14  C   UNL     1      29.297 -23.239 -16.386  0.00  0.00    +0.093 C 
ATOM     15  H   UNL     1      27.111 -22.125 -18.095  0.00  0.00    +0.197 HD
ENDBRANCH   8  14
TORSDOF 1
ENDMDL
MODEL 7
REMARK VINA RESULT:      -7.4      9.451     10.738
REMARK  Name = 11159621
REMARK  1 active torsions:
REMARK  status: ('A' for Active; 'I' for Inactive)
REMARK    1  A    between atoms: C_8  and  C_14
REMARK                            x       y       z     vdW  Elec       q    Type
REMARK                         _______ _______ _______ _____ _____    ______ ____
ROOT
ATOM      1  N   UNL     1      34.889 -16.200 -21.859  0.00  0.00    -0.279 N 
ATOM      2  N   UNL     1      35.156 -17.038 -20.824  0.00  0.00    -0.163 NA
ATOM      3  C   UNL     1      34.673 -19.021 -23.950  0.00  0.00    +0.030 C 
ATOM      4  C   UNL     1      34.679 -17.930 -25.084  0.00  0.00    +0.011 C 
ATOM      5  C   UNL     1      34.857 -18.200 -22.744  0.00  0.00    +0.020 A 
ATOM      6  C   UNL     1      34.406 -16.538 -24.407  0.00  0.00    +0.045 C 
ATOM      7  C   UNL     1      34.708 -16.874 -23.012  0.00  0.00    +0.050 A 
ATOM      8  C   UNL     1      35.133 -18.263 -21.383  0.00  0.00    +0.162 A 
ATOM      9  H   UNL     1      34.836 -15.221 -21.776  0.00  0.00    +0.189 HD
ENDROOT
BRANCH   8  14
ATOM     10  N   UNL     1      34.462 -20.446 -20.462  0.00  0.00    -0.108 NA
ATOM     11  N   UNL     1      36.570 -19.727 -20.052  0.00  0.00    -0.085 NA
ATOM     12  N   UNL     1      35.196 -21.295 -19.729  0.00  0.00    -0.140 N 
ATOM     13  N   UNL     1      36.451 -20.911 -19.461  0.00  0.00    -0.022 NA
ATOM     14  C   UNL     1      35.366 -19.481 -20.639  0.00  0.00    +0.093 C 
ATOM     15  H   UNL     1      34.834 -22.152 -19.406  0.00  0.00    +0.197 HD
ENDBRANCH   8  14
TORSDOF 1
ENDMDL
MODEL 8
REMARK VINA RESULT:      -7.4     10.863     12.006
REMARK  Name = 11159621
REMARK  1 active torsions:
REMARK  status: ('A' for Active; 'I' for Inactive)
REMARK    1  A    between atoms: C_8  and  C_14
REMARK                            x       y       z     vdW  Elec       q    Type
REMARK                         _______ _______ _______ _____ _____    ______ ____
ROOT
ATOM      1  N   UNL     1      34.912 -15.911 -21.316  0.00  0.00    -0.279 N 
ATOM      2  N   UNL     1      34.417 -15.067 -22.257  0.00  0.00    -0.163 NA
ATOM      3  C   UNL     1      34.765 -18.492 -23.700  0.00  0.00    +0.030 C 
ATOM      4  C   UNL     1      35.047 -19.396 -22.444  0.00  0.00    +0.011 C 
ATOM      5  C   UNL     1      34.643 -17.160 -23.091  0.00  0.00    +0.020 A 
ATOM      6  C   UNL     1      35.519 -18.454 -21.277  0.00  0.00    +0.045 C 
ATOM      7  C   UNL     1      35.054 -17.163 -21.793  0.00  0.00    +0.050 A 
ATOM      8  C   UNL     1      34.257 -15.848 -23.342  0.00  0.00    +0.162 A 
ATOM      9  H   UNL     1      35.138 -15.640 -20.397  0.00  0.00    +0.189 HD
ENDROOT
BRANCH   8  14
ATOM     10  N   UNL     1      32.980 -14.279 -24.747  0.00  0.00    -0.108 NA
ATOM     11  N   UNL     1      34.032 -16.003 -25.772  0.00  0.00    -0.085 NA
ATOM     12  N   UNL     1      32.817 -14.305 -26.077  0.00  0.00    -0.140 N 
ATOM     13  N   UNL     1      33.422 -15.309 -26.726  0.00  0.00    -0.022 NA
ATOM     14  C   UNL     1      33.747 -15.361 -24.605  0.00  0.00    +0.093 C 
ATOM     15  H   UNL     1      32.284 -13.626 -26.550  0.00  0.00    +0.197 HD
ENDBRANCH   8  14
TORSDOF 1
ENDMDL
MODEL 9
REMARK VINA RESULT:      -7.4      8.157      9.037
REMARK  Name = 11159621
REMARK  1 active torsions:
REMARK  status: ('A' for Active; 'I' for Inactive)
REMARK    1  A    between atoms: C_8  and  C_14
REMARK                            x       y       z     vdW  Elec       q    Type
REMARK                         _______ _______ _______ _____ _____    ______ ____
ROOT
ATOM      1  N   UNL     1      32.942 -20.675 -20.291  0.00  0.00    -0.279 N 
ATOM      2  N   UNL     1      32.952 -19.686 -21.222  0.00  0.00    -0.163 NA
ATOM      3  C   UNL     1      36.443 -20.391 -20.100  0.00  0.00    +0.030 C 
ATOM      4  C   UNL     1      36.305 -21.726 -19.279  0.00  0.00    +0.011 C 
ATOM      5  C   UNL     1      35.053 -20.148 -20.513  0.00  0.00    +0.020 A 
ATOM      6  C   UNL     1      34.789 -21.897 -18.900  0.00  0.00    +0.045 C 
ATOM      7  C   UNL     1      34.184 -20.964 -19.857  0.00  0.00    +0.050 A 
ATOM      8  C   UNL     1      34.255 -19.372 -21.347  0.00  0.00    +0.162 A 
ATOM      9  H   UNL     1      32.126 -21.126 -19.975  0.00  0.00    +0.189 HD
ENDROOT
BRANCH   8  14
ATOM     10  N   UNL     1      35.083 -18.554 -23.518  0.00  0.00    -0.108 NA
ATOM     11  N   UNL     1      34.893 -17.060 -21.826  0.00  0.00    -0.085 NA
ATOM     12  N   UNL     1      35.447 -17.306 -23.847  0.00  0.00    -0.140 N 
ATOM     13  N   UNL     1      35.351 -16.388 -22.876  0.00  0.00    -0.022 NA
ATOM     14  C   UNL     1      34.744 -18.348 -22.244  0.00  0.00    +0.093 C 
ATOM     15  H   UNL     1      35.767 -17.078 -24.750  0.00  0.00    +0.197 HD
ENDBRANCH   8  14
TORSDOF 1
ENDMDL
