MODEL 1
REMARK VINA RESULT:      -6.8      0.000      0.000
REMARK  Name = 448012
REMARK  11 active torsions:
REMARK  status: ('A' for Active; 'I' for Inactive)
REMARK    1  A    between atoms: P_1  and  O_3
REMARK    2  A    between atoms: P_1  and  O_5
REMARK    3  A    between atoms: P_1  and  O_14
REMARK    4  A    between atoms: O_5  and  C_6
REMARK    5  A    between atoms: C_6  and  C_7
REMARK    6  A    between atoms: C_7  and  C_8
REMARK    7  A    between atoms: C_8  and  C_11
REMARK    8  A    between atoms: C_8  and  O_12
REMARK    9  A    between atoms: O_14  and  P_15
REMARK   10  A    between atoms: P_15  and  O_17
REMARK   11  A    between atoms: P_15  and  O_19
REMARK                            x       y       z     vdW  Elec       q    Type
REMARK                         _______ _______ _______ _____ _____    ______ ____
ROOT
ATOM      1  P   UNL     1      37.508 -25.107 -12.606  0.00  0.00    +0.484 P 
ATOM      2  O   UNL     1      37.445 -24.506 -11.231  0.00  0.00    -0.227 OA
ENDROOT
BRANCH   1   3
ATOM      3  O   UNL     1      36.915 -26.609 -12.706  0.00  0.00    -0.302 OA
ATOM      4  H   UNL     1      36.844 -26.867 -13.638  0.00  0.00    +0.222 HD
ENDBRANCH   1   3
BRANCH   1   5
ATOM      5  O   UNL     1      36.706 -24.278 -13.738  0.00  0.00    -0.273 OA
BRANCH   5   6
ATOM      6  C   UNL     1      35.424 -24.724 -14.165  0.00  0.00    +0.156 C 
BRANCH   6   7
ATOM      7  C   UNL     1      34.370 -24.281 -13.158  0.00  0.00    +0.060 C 
BRANCH   7   8
ATOM      8  C   UNL     1      33.009 -23.866 -13.757  0.00  0.00    +0.101 C 
ATOM      9  C   UNL     1      32.040 -25.057 -13.778  0.00  0.00    +0.030 C 
BRANCH   8  11
ATOM     10 BR   UNL     1      31.340 -23.237 -16.061  0.00  0.00    -0.078 Br
ATOM     11  C   UNL     1      33.075 -23.268 -15.166  0.00  0.00    +0.094 C 
ENDBRANCH   8  11
BRANCH   8  12
ATOM     12  O   UNL     1      32.427 -22.880 -12.890  0.00  0.00    -0.386 OA
ATOM     13  H   UNL     1      32.052 -22.163 -13.423  0.00  0.00    +0.210 HD
ENDBRANCH   8  12
ENDBRANCH   7   8
ENDBRANCH   6   7
ENDBRANCH   5   6
ENDBRANCH   1   5
BRANCH   1  14
ATOM     14  O   UNL     1      39.006 -25.260 -13.195  0.00  0.00    -0.186 OA
BRANCH  14  15
ATOM     15  P   UNL     1      39.534 -25.503 -14.702  0.00  0.00    +0.481 P 
ATOM     16  O   UNL     1      40.941 -26.015 -14.798  0.00  0.00    -0.227 OA
BRANCH  15  17
ATOM     17  O   UNL     1      39.268 -24.079 -15.418  0.00  0.00    -0.302 OA
ATOM     18  H   UNL     1      39.128 -24.216 -16.368  0.00  0.00    +0.222 HD
ENDBRANCH  15  17
BRANCH  15  19
ATOM     19  O   UNL     1      38.404 -26.465 -15.343  0.00  0.00    -0.302 OA
ATOM     20  H   UNL     1      38.710 -27.385 -15.314  0.00  0.00    +0.222 HD
ENDBRANCH  15  19
ENDBRANCH  14  15
ENDBRANCH   1  14
TORSDOF 11
ENDMDL
MODEL 2
REMARK VINA RESULT:      -6.8      2.014      2.199
REMARK  Name = 448012
REMARK  11 active torsions:
REMARK  status: ('A' for Active; 'I' for Inactive)
REMARK    1  A    between atoms: P_1  and  O_3
REMARK    2  A    between atoms: P_1  and  O_5
REMARK    3  A    between atoms: P_1  and  O_14
REMARK    4  A    between atoms: O_5  and  C_6
REMARK    5  A    between atoms: C_6  and  C_7
REMARK    6  A    between atoms: C_7  and  C_8
REMARK    7  A    between atoms: C_8  and  C_11
REMARK    8  A    between atoms: C_8  and  O_12
REMARK    9  A    between atoms: O_14  and  P_15
REMARK   10  A    between atoms: P_15  and  O_17
REMARK   11  A    between atoms: P_15  and  O_19
REMARK                            x       y       z     vdW  Elec       q    Type
REMARK                         _______ _______ _______ _____ _____    ______ ____
ROOT
ATOM      1  P   UNL     1      37.976 -24.396 -12.417  0.00  0.00    +0.484 P 
ATOM      2  O   UNL     1      38.061 -23.303 -11.390  0.00  0.00    -0.227 OA
ENDROOT
BRANCH   1   3
ATOM      3  O   UNL     1      37.442 -25.811 -11.844  0.00  0.00    -0.302 OA
ATOM      4  H   UNL     1      36.504 -25.731 -11.609  0.00  0.00    +0.222 HD
ENDBRANCH   1   3
BRANCH   1   5
ATOM      5  O   UNL     1      37.003 -24.069 -13.665  0.00  0.00    -0.273 OA
BRANCH   5   6
ATOM      6  C   UNL     1      35.745 -24.727 -13.771  0.00  0.00    +0.156 C 
BRANCH   6   7
ATOM      7  C   UNL     1      35.264 -24.677 -15.216  0.00  0.00    +0.060 C 
BRANCH   7   8
ATOM      8  C   UNL     1      34.653 -23.334 -15.669  0.00  0.00    +0.101 C 
ATOM      9  C   UNL     1      33.134 -23.464 -15.851  0.00  0.00    +0.030 C 
BRANCH   8  11
ATOM     10 BR   UNL     1      37.007 -21.946 -16.681  0.00  0.00    -0.078 Br
ATOM     11  C   UNL     1      35.249 -22.750 -16.955  0.00  0.00    +0.094 C 
ENDBRANCH   8  11
BRANCH   8  12
ATOM     12  O   UNL     1      34.859 -22.378 -14.618  0.00  0.00    -0.386 OA
ATOM     13  H   UNL     1      34.624 -21.493 -14.936  0.00  0.00    +0.210 HD
ENDBRANCH   8  12
ENDBRANCH   7   8
ENDBRANCH   6   7
ENDBRANCH   5   6
ENDBRANCH   1   5
BRANCH   1  14
ATOM     14  O   UNL     1      39.393 -24.781 -13.094  0.00  0.00    -0.186 OA
BRANCH  14  15
ATOM     15  P   UNL     1      39.736 -25.537 -14.480  0.00  0.00    +0.481 P 
ATOM     16  O   UNL     1      41.132 -26.081 -14.568  0.00  0.00    -0.227 OA
BRANCH  15  17
ATOM     17  O   UNL     1      39.351 -24.440 -15.602  0.00  0.00    -0.302 OA
ATOM     18  H   UNL     1      38.410 -24.217 -15.527  0.00  0.00    +0.222 HD
ENDBRANCH  15  17
BRANCH  15  19
ATOM     19  O   UNL     1      38.558 -26.637 -14.606  0.00  0.00    -0.302 OA
ATOM     20  H   UNL     1      38.943 -27.527 -14.582  0.00  0.00    +0.222 HD
ENDBRANCH  15  19
ENDBRANCH  14  15
ENDBRANCH   1  14
TORSDOF 11
ENDMDL
MODEL 3
REMARK VINA RESULT:      -6.8      1.208      1.528
REMARK  Name = 448012
REMARK  11 active torsions:
REMARK  status: ('A' for Active; 'I' for Inactive)
REMARK    1  A    between atoms: P_1  and  O_3
REMARK    2  A    between atoms: P_1  and  O_5
REMARK    3  A    between atoms: P_1  and  O_14
REMARK    4  A    between atoms: O_5  and  C_6
REMARK    5  A    between atoms: C_6  and  C_7
REMARK    6  A    between atoms: C_7  and  C_8
REMARK    7  A    between atoms: C_8  and  C_11
REMARK    8  A    between atoms: C_8  and  O_12
REMARK    9  A    between atoms: O_14  and  P_15
REMARK   10  A    between atoms: P_15  and  O_17
REMARK   11  A    between atoms: P_15  and  O_19
REMARK                            x       y       z     vdW  Elec       q    Type
REMARK                         _______ _______ _______ _____ _____    ______ ____
ROOT
ATOM      1  P   UNL     1      37.705 -25.250 -12.532  0.00  0.00    +0.484 P 
ATOM      2  O   UNL     1      37.754 -24.730 -11.125  0.00  0.00    -0.227 OA
ENDROOT
BRANCH   1   3
ATOM      3  O   UNL     1      36.874 -26.628 -12.706  0.00  0.00    -0.302 OA
ATOM      4  H   UNL     1      35.924 -26.442 -12.649  0.00  0.00    +0.222 HD
ENDBRANCH   1   3
BRANCH   1   5
ATOM      5  O   UNL     1      37.038 -24.236 -13.599  0.00  0.00    -0.273 OA
BRANCH   5   6
ATOM      6  C   UNL     1      36.138 -23.229 -13.150  0.00  0.00    +0.156 C 
BRANCH   6   7
ATOM      7  C   UNL     1      34.765 -23.845 -12.906  0.00  0.00    +0.060 C 
BRANCH   7   8
ATOM      8  C   UNL     1      34.011 -24.313 -14.169  0.00  0.00    +0.101 C 
ATOM      9  C   UNL     1      34.123 -23.266 -15.287  0.00  0.00    +0.030 C 
BRANCH   8  11
ATOM     10 BR   UNL     1      31.343 -23.199 -14.530  0.00  0.00    -0.078 Br
ATOM     11  C   UNL     1      32.529 -24.640 -13.956  0.00  0.00    +0.094 C 
ENDBRANCH   8  11
BRANCH   8  12
ATOM     12  O   UNL     1      34.656 -25.500 -14.654  0.00  0.00    -0.386 OA
ATOM     13  H   UNL     1      35.041 -25.986 -13.909  0.00  0.00    +0.210 HD
ENDBRANCH   8  12
ENDBRANCH   7   8
ENDBRANCH   6   7
ENDBRANCH   5   6
ENDBRANCH   1   5
BRANCH   1  14
ATOM     14  O   UNL     1      39.152 -25.608 -13.157  0.00  0.00    -0.186 OA
BRANCH  14  15
ATOM     15  P   UNL     1      39.625 -25.813 -14.689  0.00  0.00    +0.481 P 
ATOM     16  O   UNL     1      40.933 -26.530 -14.850  0.00  0.00    -0.227 OA
BRANCH  15  17
ATOM     17  O   UNL     1      39.582 -24.314 -15.290  0.00  0.00    -0.302 OA
ATOM     18  H   UNL     1      40.486 -23.968 -15.360  0.00  0.00    +0.222 HD
ENDBRANCH  15  17
BRANCH  15  19
ATOM     19  O   UNL     1      38.353 -26.534 -15.379  0.00  0.00    -0.302 OA
ATOM     20  H   UNL     1      37.574 -26.425 -14.812  0.00  0.00    +0.222 HD
ENDBRANCH  15  19
ENDBRANCH  14  15
ENDBRANCH   1  14
TORSDOF 11
ENDMDL
MODEL 4
REMARK VINA RESULT:      -6.4      2.069      3.651
REMARK  Name = 448012
REMARK  11 active torsions:
REMARK  status: ('A' for Active; 'I' for Inactive)
REMARK    1  A    between atoms: P_1  and  O_3
REMARK    2  A    between atoms: P_1  and  O_5
REMARK    3  A    between atoms: P_1  and  O_14
REMARK    4  A    between atoms: O_5  and  C_6
REMARK    5  A    between atoms: C_6  and  C_7
REMARK    6  A    between atoms: C_7  and  C_8
REMARK    7  A    between atoms: C_8  and  C_11
REMARK    8  A    between atoms: C_8  and  O_12
REMARK    9  A    between atoms: O_14  and  P_15
REMARK   10  A    between atoms: P_15  and  O_17
REMARK   11  A    between atoms: P_15  and  O_19
REMARK                            x       y       z     vdW  Elec       q    Type
REMARK                         _______ _______ _______ _____ _____    ______ ____
ROOT
ATOM      1  P   UNL     1      36.526 -24.469 -14.333  0.00  0.00    +0.484 P 
ATOM      2  O   UNL     1      36.836 -25.492 -15.388  0.00  0.00    -0.227 OA
ENDROOT
BRANCH   1   3
ATOM      3  O   UNL     1      37.718 -23.410 -14.059  0.00  0.00    -0.302 OA
ATOM      4  H   UNL     1      38.572 -23.868 -14.097  0.00  0.00    +0.222 HD
ENDBRANCH   1   3
BRANCH   1   5
ATOM      5  O   UNL     1      35.233 -23.552 -14.648  0.00  0.00    -0.273 OA
BRANCH   5   6
ATOM      6  C   UNL     1      34.089 -24.131 -15.267  0.00  0.00    +0.156 C 
BRANCH   6   7
ATOM      7  C   UNL     1      32.909 -23.173 -15.151  0.00  0.00    +0.060 C 
BRANCH   7   8
ATOM      8  C   UNL     1      31.839 -23.558 -14.108  0.00  0.00    +0.101 C 
ATOM      9  C   UNL     1      31.907 -25.059 -13.790  0.00  0.00    +0.030 C 
BRANCH   8  11
ATOM     10 BR   UNL     1      29.372 -24.762 -15.084  0.00  0.00    -0.078 Br
ATOM     11  C   UNL     1      30.398 -23.209 -14.497  0.00  0.00    +0.094 C 
ENDBRANCH   8  11
BRANCH   8  12
ATOM     12  O   UNL     1      32.142 -22.867 -12.888  0.00  0.00    -0.386 OA
ATOM     13  H   UNL     1      31.637 -23.260 -12.159  0.00  0.00    +0.210 HD
ENDBRANCH   8  12
ENDBRANCH   7   8
ENDBRANCH   6   7
ENDBRANCH   5   6
ENDBRANCH   1   5
BRANCH   1  14
ATOM     14  O   UNL     1      36.239 -25.091 -12.869  0.00  0.00    -0.186 OA
BRANCH  14  15
ATOM     15  P   UNL     1      35.785 -24.387 -11.488  0.00  0.00    +0.481 P 
ATOM     16  O   UNL     1      35.349 -25.341 -10.413  0.00  0.00    -0.227 OA
BRANCH  15  17
ATOM     17  O   UNL     1      34.662 -23.330 -11.967  0.00  0.00    -0.302 OA
ATOM     18  H   UNL     1      34.996 -22.824 -12.724  0.00  0.00    +0.222 HD
ENDBRANCH  15  17
BRANCH  15  19
ATOM     19  O   UNL     1      37.049 -23.454 -11.111  0.00  0.00    -0.302 OA
ATOM     20  H   UNL     1      37.055 -22.672 -11.684  0.00  0.00    +0.222 HD
ENDBRANCH  15  19
ENDBRANCH  14  15
ENDBRANCH   1  14
TORSDOF 11
ENDMDL
MODEL 5
REMARK VINA RESULT:      -6.3      1.987      2.358
REMARK  Name = 448012
REMARK  11 active torsions:
REMARK  status: ('A' for Active; 'I' for Inactive)
REMARK    1  A    between atoms: P_1  and  O_3
REMARK    2  A    between atoms: P_1  and  O_5
REMARK    3  A    between atoms: P_1  and  O_14
REMARK    4  A    between atoms: O_5  and  C_6
REMARK    5  A    between atoms: C_6  and  C_7
REMARK    6  A    between atoms: C_7  and  C_8
REMARK    7  A    between atoms: C_8  and  C_11
REMARK    8  A    between atoms: C_8  and  O_12
REMARK    9  A    between atoms: O_14  and  P_15
REMARK   10  A    between atoms: P_15  and  O_17
REMARK   11  A    between atoms: P_15  and  O_19
REMARK                            x       y       z     vdW  Elec       q    Type
REMARK                         _______ _______ _______ _____ _____    ______ ____
ROOT
ATOM      1  P   UNL     1      35.764 -24.387 -12.762  0.00  0.00    +0.484 P 
ATOM      2  O   UNL     1      36.478 -23.101 -12.460  0.00  0.00    -0.227 OA
ENDROOT
BRANCH   1   3
ATOM      3  O   UNL     1      34.933 -24.998 -11.516  0.00  0.00    -0.302 OA
ATOM      4  H   UNL     1      34.667 -24.279 -10.921  0.00  0.00    +0.222 HD
ENDBRANCH   1   3
BRANCH   1   5
ATOM      5  O   UNL     1      34.685 -24.289 -13.961  0.00  0.00    -0.273 OA
BRANCH   5   6
ATOM      6  C   UNL     1      33.332 -24.665 -13.727  0.00  0.00    +0.156 C 
BRANCH   6   7
ATOM      7  C   UNL     1      32.416 -23.869 -14.649  0.00  0.00    +0.060 C 
BRANCH   7   8
ATOM      8  C   UNL     1      30.919 -23.882 -14.274  0.00  0.00    +0.101 C 
ATOM      9  C   UNL     1      30.275 -25.222 -14.657  0.00  0.00    +0.030 C 
BRANCH   8  11
ATOM     10 BR   UNL     1      28.872 -23.371 -16.283  0.00  0.00    -0.078 Br
ATOM     11  C   UNL     1      30.087 -22.750 -14.887  0.00  0.00    +0.094 C 
ENDBRANCH   8  11
BRANCH   8  12
ATOM     12  O   UNL     1      30.820 -23.774 -12.846  0.00  0.00    -0.386 OA
ATOM     13  H   UNL     1      31.072 -24.617 -12.440  0.00  0.00    +0.210 HD
ENDBRANCH   8  12
ENDBRANCH   7   8
ENDBRANCH   6   7
ENDBRANCH   5   6
ENDBRANCH   1   5
BRANCH   1  14
ATOM     14  O   UNL     1      36.740 -25.603 -13.189  0.00  0.00    -0.186 OA
BRANCH  14  15
ATOM     15  P   UNL     1      37.151 -26.172 -14.644  0.00  0.00    +0.481 P 
ATOM     16  O   UNL     1      38.388 -27.023 -14.656  0.00  0.00    -0.227 OA
BRANCH  15  17
ATOM     17  O   UNL     1      37.223 -24.839 -15.553  0.00  0.00    -0.302 OA
ATOM     18  H   UNL     1      36.963 -25.054 -16.463  0.00  0.00    +0.222 HD
ENDBRANCH  15  17
BRANCH  15  19
ATOM     19  O   UNL     1      35.804 -26.906 -15.152  0.00  0.00    -0.302 OA
ATOM     20  H   UNL     1      35.077 -26.265 -15.175  0.00  0.00    +0.222 HD
ENDBRANCH  15  19
ENDBRANCH  14  15
ENDBRANCH   1  14
TORSDOF 11
ENDMDL
MODEL 6
REMARK VINA RESULT:      -6.2      1.670      2.471
REMARK  Name = 448012
REMARK  11 active torsions:
REMARK  status: ('A' for Active; 'I' for Inactive)
REMARK    1  A    between atoms: P_1  and  O_3
REMARK    2  A    between atoms: P_1  and  O_5
REMARK    3  A    between atoms: P_1  and  O_14
REMARK    4  A    between atoms: O_5  and  C_6
REMARK    5  A    between atoms: C_6  and  C_7
REMARK    6  A    between atoms: C_7  and  C_8
REMARK    7  A    between atoms: C_8  and  C_11
REMARK    8  A    between atoms: C_8  and  O_12
REMARK    9  A    between atoms: O_14  and  P_15
REMARK   10  A    between atoms: P_15  and  O_17
REMARK   11  A    between atoms: P_15  and  O_19
REMARK                            x       y       z     vdW  Elec       q    Type
REMARK                         _______ _______ _______ _____ _____    ______ ____
ROOT
ATOM      1  P   UNL     1      37.174 -23.489 -14.780  0.00  0.00    +0.484 P 
ATOM      2  O   UNL     1      37.766 -22.452 -15.690  0.00  0.00    -0.227 OA
ENDROOT
BRANCH   1   3
ATOM      3  O   UNL     1      38.064 -23.814 -13.469  0.00  0.00    -0.302 OA
ATOM      4  H   UNL     1      37.490 -23.842 -12.687  0.00  0.00    +0.222 HD
ENDBRANCH   1   3
BRANCH   1   5
ATOM      5  O   UNL     1      35.714 -23.114 -14.196  0.00  0.00    -0.273 OA
BRANCH   5   6
ATOM      6  C   UNL     1      34.546 -23.596 -14.851  0.00  0.00    +0.156 C 
BRANCH   6   7
ATOM      7  C   UNL     1      33.627 -24.258 -13.831  0.00  0.00    +0.060 C 
BRANCH   7   8
ATOM      8  C   UNL     1      32.169 -23.752 -13.821  0.00  0.00    +0.101 C 
ATOM      9  C   UNL     1      31.192 -24.922 -13.629  0.00  0.00    +0.030 C 
BRANCH   8  11
ATOM     10 BR   UNL     1      29.853 -23.180 -15.495  0.00  0.00    -0.078 Br
ATOM     11  C   UNL     1      31.746 -22.965 -15.066  0.00  0.00    +0.094 C 
ENDBRANCH   8  11
BRANCH   8  12
ATOM     12  O   UNL     1      32.006 -22.893 -12.683  0.00  0.00    -0.386 OA
ATOM     13  H   UNL     1      32.436 -22.041 -12.857  0.00  0.00    +0.210 HD
ENDBRANCH   8  12
ENDBRANCH   7   8
ENDBRANCH   6   7
ENDBRANCH   5   6
ENDBRANCH   1   5
BRANCH   1  14
ATOM     14  O   UNL     1      36.979 -24.940 -15.465  0.00  0.00    -0.186 OA
BRANCH  14  15
ATOM     15  P   UNL     1      37.386 -26.418 -14.953  0.00  0.00    +0.481 P 
ATOM     16  O   UNL     1      38.858 -26.623 -14.741  0.00  0.00    -0.227 OA
BRANCH  15  17
ATOM     17  O   UNL     1      36.707 -27.387 -16.053  0.00  0.00    -0.302 OA
ATOM     18  H   UNL     1      37.328 -28.095 -16.287  0.00  0.00    +0.222 HD
ENDBRANCH  15  17
BRANCH  15  19
ATOM     19  O   UNL     1      36.464 -26.627 -13.643  0.00  0.00    -0.302 OA
ATOM     20  H   UNL     1      36.246 -27.567 -13.548  0.00  0.00    +0.222 HD
ENDBRANCH  15  19
ENDBRANCH  14  15
ENDBRANCH   1  14
TORSDOF 11
ENDMDL
MODEL 7
REMARK VINA RESULT:      -6.1      1.664      2.955
REMARK  Name = 448012
REMARK  11 active torsions:
REMARK  status: ('A' for Active; 'I' for Inactive)
REMARK    1  A    between atoms: P_1  and  O_3
REMARK    2  A    between atoms: P_1  and  O_5
REMARK    3  A    between atoms: P_1  and  O_14
REMARK    4  A    between atoms: O_5  and  C_6
REMARK    5  A    between atoms: C_6  and  C_7
REMARK    6  A    between atoms: C_7  and  C_8
REMARK    7  A    between atoms: C_8  and  C_11
REMARK    8  A    between atoms: C_8  and  O_12
REMARK    9  A    between atoms: O_14  and  P_15
REMARK   10  A    between atoms: P_15  and  O_17
REMARK   11  A    between atoms: P_15  and  O_19
REMARK                            x       y       z     vdW  Elec       q    Type
REMARK                         _______ _______ _______ _____ _____    ______ ____
ROOT
ATOM      1  P   UNL     1      36.166 -25.345 -14.937  0.00  0.00    +0.484 P 
ATOM      2  O   UNL     1      36.086 -26.639 -15.694  0.00  0.00    -0.227 OA
ENDROOT
BRANCH   1   3
ATOM      3  O   UNL     1      36.899 -24.146 -15.739  0.00  0.00    -0.302 OA
ATOM      4  H   UNL     1      37.846 -24.340 -15.815  0.00  0.00    +0.222 HD
ENDBRANCH   1   3
BRANCH   1   5
ATOM      5  O   UNL     1      34.735 -24.729 -14.507  0.00  0.00    -0.273 OA
BRANCH   5   6
ATOM      6  C   UNL     1      34.305 -23.488 -15.056  0.00  0.00    +0.156 C 
BRANCH   6   7
ATOM      7  C   UNL     1      32.841 -23.594 -15.468  0.00  0.00    +0.060 C 
BRANCH   7   8
ATOM      8  C   UNL     1      31.824 -23.625 -14.308  0.00  0.00    +0.101 C 
ATOM      9  C   UNL     1      31.374 -25.065 -14.020  0.00  0.00    +0.030 C 
BRANCH   8  11
ATOM     10 BR   UNL     1      29.356 -23.490 -15.852  0.00  0.00    -0.078 Br
ATOM     11  C   UNL     1      30.577 -22.758 -14.515  0.00  0.00    +0.094 C 
ENDBRANCH   8  11
BRANCH   8  12
ATOM     12  O   UNL     1      32.488 -23.160 -13.124  0.00  0.00    -0.386 OA
ATOM     13  H   UNL     1      32.060 -23.541 -12.342  0.00  0.00    +0.210 HD
ENDBRANCH   8  12
ENDBRANCH   7   8
ENDBRANCH   6   7
ENDBRANCH   5   6
ENDBRANCH   1   5
BRANCH   1  14
ATOM     14  O   UNL     1      37.004 -25.434 -13.557  0.00  0.00    -0.186 OA
BRANCH  14  15
ATOM     15  P   UNL     1      37.919 -24.339 -12.799  0.00  0.00    +0.481 P 
ATOM     16  O   UNL     1      37.552 -22.912 -13.083  0.00  0.00    -0.227 OA
BRANCH  15  17
ATOM     17  O   UNL     1      39.420 -24.762 -13.220  0.00  0.00    -0.302 OA
ATOM     18  H   UNL     1      39.402 -25.626 -13.659  0.00  0.00    +0.222 HD
ENDBRANCH  15  17
BRANCH  15  19
ATOM     19  O   UNL     1      37.821 -24.781 -11.248  0.00  0.00    -0.302 OA
ATOM     20  H   UNL     1      38.713 -24.837 -10.871  0.00  0.00    +0.222 HD
ENDBRANCH  15  19
ENDBRANCH  14  15
ENDBRANCH   1  14
TORSDOF 11
ENDMDL
MODEL 8
REMARK VINA RESULT:      -6.1     11.198     12.582
REMARK  Name = 448012
REMARK  11 active torsions:
REMARK  status: ('A' for Active; 'I' for Inactive)
REMARK    1  A    between atoms: P_1  and  O_3
REMARK    2  A    between atoms: P_1  and  O_5
REMARK    3  A    between atoms: P_1  and  O_14
REMARK    4  A    between atoms: O_5  and  C_6
REMARK    5  A    between atoms: C_6  and  C_7
REMARK    6  A    between atoms: C_7  and  C_8
REMARK    7  A    between atoms: C_8  and  C_11
REMARK    8  A    between atoms: C_8  and  O_12
REMARK    9  A    between atoms: O_14  and  P_15
REMARK   10  A    between atoms: P_15  and  O_17
REMARK   11  A    between atoms: P_15  and  O_19
REMARK                            x       y       z     vdW  Elec       q    Type
REMARK                         _______ _______ _______ _____ _____    ______ ____
ROOT
ATOM      1  P   UNL     1      33.508 -14.704 -22.511  0.00  0.00    +0.484 P 
ATOM      2  O   UNL     1      32.252 -14.203 -21.859  0.00  0.00    -0.227 OA
ENDROOT
BRANCH   1   3
ATOM      3  O   UNL     1      34.498 -13.538 -23.039  0.00  0.00    -0.302 OA
ATOM      4  H   UNL     1      35.376 -13.912 -23.211  0.00  0.00    +0.222 HD
ENDBRANCH   1   3
BRANCH   1   5
ATOM      5  O   UNL     1      34.437 -15.623 -21.559  0.00  0.00    -0.273 OA
BRANCH   5   6
ATOM      6  C   UNL     1      33.972 -16.902 -21.141  0.00  0.00    +0.156 C 
BRANCH   6   7
ATOM      7  C   UNL     1      35.152 -17.862 -21.034  0.00  0.00    +0.060 C 
BRANCH   7   8
ATOM      8  C   UNL     1      34.821 -19.352 -21.263  0.00  0.00    +0.101 C 
ATOM      9  C   UNL     1      33.374 -19.656 -20.849  0.00  0.00    +0.030 C 
BRANCH   8  11
ATOM     10 BR   UNL     1      34.783 -21.632 -19.449  0.00  0.00    -0.078 Br
ATOM     11  C   UNL     1      35.750 -20.340 -20.549  0.00  0.00    +0.094 C 
ENDBRANCH   8  11
BRANCH   8  12
ATOM     12  O   UNL     1      34.906 -19.612 -22.672  0.00  0.00    -0.386 OA
ATOM     13  H   UNL     1      35.689 -19.170 -23.036  0.00  0.00    +0.210 HD
ENDBRANCH   8  12
ENDBRANCH   7   8
ENDBRANCH   6   7
ENDBRANCH   5   6
ENDBRANCH   1   5
BRANCH   1  14
ATOM     14  O   UNL     1      33.257 -15.604 -23.830  0.00  0.00    -0.186 OA
BRANCH  14  15
ATOM     15  P   UNL     1      34.297 -16.296 -24.856  0.00  0.00    +0.481 P 
ATOM     16  O   UNL     1      34.212 -15.792 -26.267  0.00  0.00    -0.227 OA
BRANCH  15  17
ATOM     17  O   UNL     1      34.002 -17.873 -24.669  0.00  0.00    -0.302 OA
ATOM     18  H   UNL     1      34.020 -18.095 -23.724  0.00  0.00    +0.222 HD
ENDBRANCH  15  17
BRANCH  15  19
ATOM     19  O   UNL     1      35.728 -16.088 -24.134  0.00  0.00    -0.302 OA
ATOM     20  H   UNL     1      36.255 -15.450 -24.639  0.00  0.00    +0.222 HD
ENDBRANCH  15  19
ENDBRANCH  14  15
ENDBRANCH   1  14
TORSDOF 11
ENDMDL
MODEL 9
REMARK VINA RESULT:      -6.1      3.386      4.478
REMARK  Name = 448012
REMARK  11 active torsions:
REMARK  status: ('A' for Active; 'I' for Inactive)
REMARK    1  A    between atoms: P_1  and  O_3
REMARK    2  A    between atoms: P_1  and  O_5
REMARK    3  A    between atoms: P_1  and  O_14
REMARK    4  A    between atoms: O_5  and  C_6
REMARK    5  A    between atoms: C_6  and  C_7
REMARK    6  A    between atoms: C_7  and  C_8
REMARK    7  A    between atoms: C_8  and  C_11
REMARK    8  A    between atoms: C_8  and  O_12
REMARK    9  A    between atoms: O_14  and  P_15
REMARK   10  A    between atoms: P_15  and  O_17
REMARK   11  A    between atoms: P_15  and  O_19
REMARK                            x       y       z     vdW  Elec       q    Type
REMARK                         _______ _______ _______ _____ _____    ______ ____
ROOT
ATOM      1  P   UNL     1      35.935 -23.916 -14.577  0.00  0.00    +0.484 P 
ATOM      2  O   UNL     1      34.682 -24.651 -14.196  0.00  0.00    -0.227 OA
ENDROOT
BRANCH   1   3
ATOM      3  O   UNL     1      36.944 -24.760 -15.519  0.00  0.00    -0.302 OA
ATOM      4  H   UNL     1      36.910 -24.412 -16.423  0.00  0.00    +0.222 HD
ENDBRANCH   1   3
BRANCH   1   5
ATOM      5  O   UNL     1      35.685 -22.538 -15.383  0.00  0.00    -0.273 OA
BRANCH   5   6
ATOM      6  C   UNL     1      35.776 -22.523 -16.803  0.00  0.00    +0.156 C 
BRANCH   6   7
ATOM      7  C   UNL     1      34.411 -22.839 -17.404  0.00  0.00    +0.060 C 
BRANCH   7   8
ATOM      8  C   UNL     1      34.229 -22.450 -18.886  0.00  0.00    +0.101 C 
ATOM      9  C   UNL     1      35.485 -21.746 -19.420  0.00  0.00    +0.030 C 
BRANCH   8  11
ATOM     10 BR   UNL     1      33.374 -20.205 -20.535  0.00  0.00    -0.078 Br
ATOM     11  C   UNL     1      33.014 -21.563 -19.179  0.00  0.00    +0.094 C 
ENDBRANCH   8  11
BRANCH   8  12
ATOM     12  O   UNL     1      34.083 -23.658 -19.646  0.00  0.00    -0.386 OA
ATOM     13  H   UNL     1      33.600 -23.468 -20.465  0.00  0.00    +0.210 HD
ENDBRANCH   8  12
ENDBRANCH   7   8
ENDBRANCH   6   7
ENDBRANCH   5   6
ENDBRANCH   1   5
BRANCH   1  14
ATOM     14  O   UNL     1      36.864 -23.494 -13.323  0.00  0.00    -0.186 OA
BRANCH  14  15
ATOM     15  P   UNL     1      37.981 -24.326 -12.503  0.00  0.00    +0.481 P 
ATOM     16  O   UNL     1      37.458 -25.534 -11.783  0.00  0.00    -0.227 OA
BRANCH  15  17
ATOM     17  O   UNL     1      38.658 -23.202 -11.561  0.00  0.00    -0.302 OA
ATOM     18  H   UNL     1      38.028 -22.477 -11.420  0.00  0.00    +0.222 HD
ENDBRANCH  15  17
BRANCH  15  19
ATOM     19  O   UNL     1      39.116 -24.623 -13.615  0.00  0.00    -0.302 OA
ATOM     20  H   UNL     1      39.343 -23.798 -14.073  0.00  0.00    +0.222 HD
ENDBRANCH  15  19
ENDBRANCH  14  15
ENDBRANCH   1  14
TORSDOF 11
ENDMDL
