MODEL 1
REMARK VINA RESULT:      -5.0      0.000      0.000
REMARK  Name = 6971018
REMARK  3 active torsions:
REMARK  status: ('A' for Active; 'I' for Inactive)
REMARK    1  A    between atoms: CA_1  and  N_2
REMARK    2  A    between atoms: CA_1  and  C_8
REMARK    3  A    between atoms: CA_1  and  CB_9
REMARK                            x       y       z     vdW  Elec       q    Type
REMARK                         _______ _______ _______ _____ _____    ______ ____
ROOT
ATOM      1  CA  VAL A   1      39.025 -25.187 -14.381  0.00  0.00    +0.040 C 
ENDROOT
BRANCH   1   2
ATOM      2  N   VAL A   1      37.912 -25.417 -15.352  0.00  0.00    +0.389 N 
ATOM      3  H1  VAL A   1      37.410 -24.543 -15.508  0.00  0.00    -0.088 HD
ATOM      4  H2  VAL A   1      37.271 -26.115 -14.976  0.00  0.00    -0.088 HD
ATOM      5  H3  VAL A   1      38.296 -25.750 -16.236  0.00  0.00    -0.088 HD
ENDBRANCH   1   2
BRANCH   1   8
ATOM      6  O   VAL A   1      40.922 -26.458 -13.719  0.00  0.00    -0.248 OA
ATOM      7  OXT VAL A   1      40.611 -26.004 -15.936  0.00  0.00    -0.248 OA
ATOM      8  C   VAL A   1      40.316 -25.957 -14.707  0.00  0.00    +0.345 C 
ENDBRANCH   1   8
BRANCH   1   9
ATOM      9  CB  VAL A   1      38.556 -25.473 -12.937  0.00  0.00    -0.009 C 
ATOM     10  CG1 VAL A   1      38.350 -24.186 -12.131  0.00  0.00    -0.002 C 
ATOM     11  CG2 VAL A   1      37.288 -26.333 -12.869  0.00  0.00    -0.002 C 
ENDBRANCH   1   9
TORSDOF 3
ENDMDL
MODEL 2
REMARK VINA RESULT:      -5.0      1.052      1.340
REMARK  Name = 6971018
REMARK  3 active torsions:
REMARK  status: ('A' for Active; 'I' for Inactive)
REMARK    1  A    between atoms: CA_1  and  N_2
REMARK    2  A    between atoms: CA_1  and  C_8
REMARK    3  A    between atoms: CA_1  and  CB_9
REMARK                            x       y       z     vdW  Elec       q    Type
REMARK                         _______ _______ _______ _____ _____    ______ ____
ROOT
ATOM      1  CA  VAL A   1      39.025 -25.334 -14.375  0.00  0.00    +0.040 C 
ENDROOT
BRANCH   1   2
ATOM      2  N   VAL A   1      38.533 -24.368 -15.404  0.00  0.00    +0.389 N 
ATOM      3  H1  VAL A   1      39.321 -23.837 -15.776  0.00  0.00    -0.088 HD
ATOM      4  H2  VAL A   1      37.863 -23.729 -14.978  0.00  0.00    -0.088 HD
ATOM      5  H3  VAL A   1      38.081 -24.880 -16.162  0.00  0.00    -0.088 HD
ENDBRANCH   1   2
BRANCH   1   8
ATOM      6  O   VAL A   1      41.001 -26.511 -13.772  0.00  0.00    -0.248 OA
ATOM      7  OXT VAL A   1      40.629 -26.027 -15.973  0.00  0.00    -0.248 OA
ATOM      8  C   VAL A   1      40.352 -26.023 -14.738  0.00  0.00    +0.345 C 
ENDBRANCH   1   8
BRANCH   1   9
ATOM      9  CB  VAL A   1      37.933 -26.374 -14.037  0.00  0.00    -0.009 C 
ATOM     10  CG1 VAL A   1      37.266 -26.091 -12.687  0.00  0.00    -0.002 C 
ATOM     11  CG2 VAL A   1      36.861 -26.504 -15.125  0.00  0.00    -0.002 C 
ENDBRANCH   1   9
TORSDOF 3
ENDMDL
MODEL 3
REMARK VINA RESULT:      -4.9     10.033     10.771
REMARK  Name = 6971018
REMARK  3 active torsions:
REMARK  status: ('A' for Active; 'I' for Inactive)
REMARK    1  A    between atoms: CA_1  and  N_2
REMARK    2  A    between atoms: CA_1  and  C_8
REMARK    3  A    between atoms: CA_1  and  CB_9
REMARK                            x       y       z     vdW  Elec       q    Type
REMARK                         _______ _______ _______ _____ _____    ______ ____
ROOT
ATOM      1  CA  VAL A   1      29.601 -23.394 -16.574  0.00  0.00    +0.040 C 
ENDROOT
BRANCH   1   2
ATOM      2  N   VAL A   1      30.724 -22.505 -17.001  0.00  0.00    +0.389 N 
ATOM      3  H1  VAL A   1      30.986 -22.726 -17.962  0.00  0.00    -0.088 HD
ATOM      4  H2  VAL A   1      31.525 -22.650 -16.387  0.00  0.00    -0.088 HD
ATOM      5  H3  VAL A   1      30.426 -21.531 -16.946  0.00  0.00    -0.088 HD
ENDBRANCH   1   2
BRANCH   1   8
ATOM      6  O   VAL A   1      27.906 -21.732 -16.716  0.00  0.00    -0.248 OA
ATOM      7  OXT VAL A   1      27.540 -23.772 -17.675  0.00  0.00    -0.248 OA
ATOM      8  C   VAL A   1      28.211 -22.917 -17.028  0.00  0.00    +0.345 C 
ENDBRANCH   1   8
BRANCH   1   9
ATOM      9  CB  VAL A   1      29.638 -23.625 -15.047  0.00  0.00    -0.009 C 
ATOM     10  CG1 VAL A   1      29.419 -25.097 -14.681  0.00  0.00    -0.002 C 
ATOM     11  CG2 VAL A   1      30.924 -23.114 -14.387  0.00  0.00    -0.002 C 
ENDBRANCH   1   9
TORSDOF 3
ENDMDL
MODEL 4
REMARK VINA RESULT:      -4.8     10.031     10.732
REMARK  Name = 6971018
REMARK  3 active torsions:
REMARK  status: ('A' for Active; 'I' for Inactive)
REMARK    1  A    between atoms: CA_1  and  N_2
REMARK    2  A    between atoms: CA_1  and  C_8
REMARK    3  A    between atoms: CA_1  and  CB_9
REMARK                            x       y       z     vdW  Elec       q    Type
REMARK                         _______ _______ _______ _____ _____    ______ ____
ROOT
ATOM      1  CA  VAL A   1      28.871 -23.449 -15.458  0.00  0.00    +0.040 C 
ENDROOT
BRANCH   1   2
ATOM      2  N   VAL A   1      28.982 -24.929 -15.281  0.00  0.00    +0.389 N 
ATOM      3  H1  VAL A   1      29.382 -25.134 -14.366  0.00  0.00    -0.088 HD
ATOM      4  H2  VAL A   1      29.582 -25.315 -16.010  0.00  0.00    -0.088 HD
ATOM      5  H3  VAL A   1      28.055 -25.350 -15.348  0.00  0.00    -0.088 HD
ENDBRANCH   1   2
BRANCH   1   8
ATOM      6  O   VAL A   1      27.819 -23.953 -17.529  0.00  0.00    -0.248 OA
ATOM      7  OXT VAL A   1      27.984 -21.772 -16.873  0.00  0.00    -0.248 OA
ATOM      8  C   VAL A   1      28.157 -23.019 -16.750  0.00  0.00    +0.345 C 
ENDBRANCH   1   8
BRANCH   1   9
ATOM      9  CB  VAL A   1      30.259 -22.781 -15.340  0.00  0.00    -0.009 C 
ATOM     10  CG1 VAL A   1      30.993 -23.196 -14.060  0.00  0.00    -0.002 C 
ATOM     11  CG2 VAL A   1      31.159 -23.032 -16.555  0.00  0.00    -0.002 C 
ENDBRANCH   1   9
TORSDOF 3
ENDMDL
MODEL 5
REMARK VINA RESULT:      -4.6      9.417     10.048
REMARK  Name = 6971018
REMARK  3 active torsions:
REMARK  status: ('A' for Active; 'I' for Inactive)
REMARK    1  A    between atoms: CA_1  and  N_2
REMARK    2  A    between atoms: CA_1  and  C_8
REMARK    3  A    between atoms: CA_1  and  CB_9
REMARK                            x       y       z     vdW  Elec       q    Type
REMARK                         _______ _______ _______ _____ _____    ______ ____
ROOT
ATOM      1  CA  VAL A   1      35.348 -20.265 -20.667  0.00  0.00    +0.040 C 
ENDROOT
BRANCH   1   2
ATOM      2  N   VAL A   1      36.483 -20.488 -19.720  0.00  0.00    +0.389 N 
ATOM      3  H1  VAL A   1      36.436 -21.437 -19.351  0.00  0.00    -0.088 HD
ATOM      4  H2  VAL A   1      36.421 -19.820 -18.952  0.00  0.00    -0.088 HD
ATOM      5  H3  VAL A   1      37.367 -20.358 -20.212  0.00  0.00    -0.088 HD
ENDBRANCH   1   2
BRANCH   1   8
ATOM      6  O   VAL A   1      35.465 -17.890 -20.645  0.00  0.00    -0.248 OA
ATOM      7  OXT VAL A   1      35.344 -18.974 -22.651  0.00  0.00    -0.248 OA
ATOM      8  C   VAL A   1      35.385 -18.907 -21.389  0.00  0.00    +0.345 C 
ENDBRANCH   1   8
BRANCH   1   9
ATOM      9  CB  VAL A   1      33.994 -20.480 -19.956  0.00  0.00    -0.009 C 
ATOM     10  CG1 VAL A   1      32.806 -20.114 -20.853  0.00  0.00    -0.002 C 
ATOM     11  CG2 VAL A   1      33.812 -21.903 -19.415  0.00  0.00    -0.002 C 
ENDBRANCH   1   9
TORSDOF 3
ENDMDL
MODEL 6
REMARK VINA RESULT:      -4.6      8.169      8.830
REMARK  Name = 6971018
REMARK  3 active torsions:
REMARK  status: ('A' for Active; 'I' for Inactive)
REMARK    1  A    between atoms: CA_1  and  N_2
REMARK    2  A    between atoms: CA_1  and  C_8
REMARK    3  A    between atoms: CA_1  and  CB_9
REMARK                            x       y       z     vdW  Elec       q    Type
REMARK                         _______ _______ _______ _____ _____    ______ ____
ROOT
ATOM      1  CA  VAL A   1      34.520 -21.645 -19.854  0.00  0.00    +0.040 C 
ENDROOT
BRANCH   1   2
ATOM      2  N   VAL A   1      33.248 -22.347 -19.505  0.00  0.00    +0.389 N 
ATOM      3  H1  VAL A   1      32.884 -22.822 -20.331  0.00  0.00    -0.088 HD
ATOM      4  H2  VAL A   1      32.564 -21.667 -19.174  0.00  0.00    -0.088 HD
ATOM      5  H3  VAL A   1      33.429 -23.032 -18.772  0.00  0.00    -0.088 HD
ENDBRANCH   1   2
BRANCH   1   8
ATOM      6  O   VAL A   1      35.415 -22.547 -17.844  0.00  0.00    -0.248 OA
ATOM      7  OXT VAL A   1      36.515 -20.830 -18.873  0.00  0.00    -0.248 OA
ATOM      8  C   VAL A   1      35.584 -21.677 -18.744  0.00  0.00    +0.345 C 
ENDBRANCH   1   8
BRANCH   1   9
ATOM      9  CB  VAL A   1      34.236 -20.196 -20.311  0.00  0.00    -0.009 C 
ATOM     10  CG1 VAL A   1      34.996 -19.835 -21.592  0.00  0.00    -0.002 C 
ATOM     11  CG2 VAL A   1      32.743 -19.899 -20.494  0.00  0.00    -0.002 C 
ENDBRANCH   1   9
TORSDOF 3
ENDMDL
MODEL 7
REMARK VINA RESULT:      -4.6      1.765      2.385
REMARK  Name = 6971018
REMARK  3 active torsions:
REMARK  status: ('A' for Active; 'I' for Inactive)
REMARK    1  A    between atoms: CA_1  and  N_2
REMARK    2  A    between atoms: CA_1  and  C_8
REMARK    3  A    between atoms: CA_1  and  CB_9
REMARK                            x       y       z     vdW  Elec       q    Type
REMARK                         _______ _______ _______ _____ _____    ______ ____
ROOT
ATOM      1  CA  VAL A   1      38.965 -25.723 -13.796  0.00  0.00    +0.040 C 
ENDROOT
BRANCH   1   2
ATOM      2  N   VAL A   1      38.654 -24.728 -12.724  0.00  0.00    +0.389 N 
ATOM      3  H1  VAL A   1      37.685 -24.839 -12.428  0.00  0.00    -0.088 HD
ATOM      4  H2  VAL A   1      38.794 -23.785 -13.085  0.00  0.00    -0.088 HD
ATOM      5  H3  VAL A   1      39.273 -24.882 -11.928  0.00  0.00    -0.088 HD
ENDBRANCH   1   2
BRANCH   1   8
ATOM      6  O   VAL A   1      40.939 -24.527 -14.365  0.00  0.00    -0.248 OA
ATOM      7  OXT VAL A   1      40.921 -26.800 -14.582  0.00  0.00    -0.248 OA
ATOM      8  C   VAL A   1      40.417 -25.674 -14.301  0.00  0.00    +0.345 C 
ENDBRANCH   1   8
BRANCH   1   9
ATOM      9  CB  VAL A   1      37.964 -25.595 -14.966  0.00  0.00    -0.009 C 
ATOM     10  CG1 VAL A   1      36.984 -26.773 -15.018  0.00  0.00    -0.002 C 
ATOM     11  CG2 VAL A   1      37.184 -24.275 -14.956  0.00  0.00    -0.002 C 
ENDBRANCH   1   9
TORSDOF 3
ENDMDL
MODEL 8
REMARK VINA RESULT:      -4.6     11.566     12.258
REMARK  Name = 6971018
REMARK  3 active torsions:
REMARK  status: ('A' for Active; 'I' for Inactive)
REMARK    1  A    between atoms: CA_1  and  N_2
REMARK    2  A    between atoms: CA_1  and  C_8
REMARK    3  A    between atoms: CA_1  and  CB_9
REMARK                            x       y       z     vdW  Elec       q    Type
REMARK                         _______ _______ _______ _____ _____    ______ ____
ROOT
ATOM      1  CA  VAL A   1      34.841 -17.556 -22.328  0.00  0.00    +0.040 C 
ENDROOT
BRANCH   1   2
ATOM      2  N   VAL A   1      35.851 -17.952 -23.356  0.00  0.00    +0.389 N 
ATOM      3  H1  VAL A   1      36.789 -17.855 -22.966  0.00  0.00    -0.088 HD
ATOM      4  H2  VAL A   1      35.759 -17.350 -24.173  0.00  0.00    -0.088 HD
ATOM      5  H3  VAL A   1      35.696 -18.922 -23.629  0.00  0.00    -0.088 HD
ENDBRANCH   1   2
BRANCH   1   8
ATOM      6  O   VAL A   1      34.932 -15.862 -20.661  0.00  0.00    -0.248 OA
ATOM      7  OXT VAL A   1      34.966 -15.253 -22.862  0.00  0.00    -0.248 OA
ATOM      8  C   VAL A   1      34.916 -16.079 -21.905  0.00  0.00    +0.345 C 
ENDBRANCH   1   8
BRANCH   1   9
ATOM      9  CB  VAL A   1      34.917 -18.490 -21.100  0.00  0.00    -0.009 C 
ATOM     10  CG1 VAL A   1      33.799 -19.539 -21.103  0.00  0.00    -0.002 C 
ATOM     11  CG2 VAL A   1      36.276 -19.185 -20.949  0.00  0.00    -0.002 C 
ENDBRANCH   1   9
TORSDOF 3
ENDMDL
MODEL 9
REMARK VINA RESULT:      -4.5      3.129      3.538
REMARK  Name = 6971018
REMARK  3 active torsions:
REMARK  status: ('A' for Active; 'I' for Inactive)
REMARK    1  A    between atoms: CA_1  and  N_2
REMARK    2  A    between atoms: CA_1  and  C_8
REMARK    3  A    between atoms: CA_1  and  CB_9
REMARK                            x       y       z     vdW  Elec       q    Type
REMARK                         _______ _______ _______ _____ _____    ______ ____
ROOT
ATOM      1  CA  VAL A   1      37.042 -25.022 -14.737  0.00  0.00    +0.040 C 
ENDROOT
BRANCH   1   2
ATOM      2  N   VAL A   1      37.988 -24.112 -15.452  0.00  0.00    +0.389 N 
ATOM      3  H1  VAL A   1      38.932 -24.496 -15.401  0.00  0.00    -0.088 HD
ATOM      4  H2  VAL A   1      37.970 -23.191 -15.015  0.00  0.00    -0.088 HD
ATOM      5  H3  VAL A   1      37.707 -24.030 -16.429  0.00  0.00    -0.088 HD
ENDBRANCH   1   2
BRANCH   1   8
ATOM      6  O   VAL A   1      36.265 -26.935 -15.917  0.00  0.00    -0.248 OA
ATOM      7  OXT VAL A   1      38.159 -27.107 -14.653  0.00  0.00    -0.248 OA
ATOM      8  C   VAL A   1      37.162 -26.502 -15.141  0.00  0.00    +0.345 C 
ENDBRANCH   1   8
BRANCH   1   9
ATOM      9  CB  VAL A   1      35.587 -24.522 -14.884  0.00  0.00    -0.009 C 
ATOM     10  CG1 VAL A   1      34.915 -24.295 -13.525  0.00  0.00    -0.002 C 
ATOM     11  CG2 VAL A   1      35.465 -23.254 -15.738  0.00  0.00    -0.002 C 
ENDBRANCH   1   9
TORSDOF 3
ENDMDL
