MODEL 1
REMARK VINA RESULT:      -6.4      0.000      0.000
REMARK  Name = 91867
REMARK  2 active torsions:
REMARK  status: ('A' for Active; 'I' for Inactive)
REMARK    1  A    between atoms: C_3  and  C_9
REMARK    2  A    between atoms: C_9  and  O_10
REMARK                            x       y       z     vdW  Elec       q    Type
REMARK                         _______ _______ _______ _____ _____    ______ ____
ROOT
ATOM      1  F   UNL     1      36.421 -21.841 -19.246  0.00  0.00    -0.204 F 
ATOM      2  F   UNL     1      34.953 -18.287 -22.004  0.00  0.00    -0.204 F 
ATOM      3  C   UNL     1      34.092 -21.461 -19.508  0.00  0.00    +0.035 C 
ATOM      4  C   UNL     1      35.419 -21.133 -19.785  0.00  0.00    +0.141 C 
ATOM      5  C   UNL     1      33.056 -20.718 -20.073  0.00  0.00    +0.003 C 
ATOM      6  C   UNL     1      35.710 -20.060 -20.628  0.00  0.00    +0.059 C 
ATOM      7  C   UNL     1      33.347 -19.645 -20.916  0.00  0.00    +0.030 C 
ATOM      8  C   UNL     1      34.674 -19.317 -21.194  0.00  0.00    +0.142 C 
ENDROOT
BRANCH   3   9
ATOM      9  C   UNL     1      33.777 -22.608 -18.606  0.00  0.00    +0.166 C 
BRANCH   9  10
ATOM     10  O   UNL     1      33.917 -23.826 -19.327  0.00  0.00    -0.377 OA
ATOM     11  H   UNL     1      33.193 -23.908 -19.967  0.00  0.00    +0.211 HD
ENDBRANCH   9  10
ENDBRANCH   3   9
TORSDOF 2
ENDMDL
MODEL 2
REMARK VINA RESULT:      -6.3      1.513      2.216
REMARK  Name = 91867
REMARK  2 active torsions:
REMARK  status: ('A' for Active; 'I' for Inactive)
REMARK    1  A    between atoms: C_3  and  C_9
REMARK    2  A    between atoms: C_9  and  O_10
REMARK                            x       y       z     vdW  Elec       q    Type
REMARK                         _______ _______ _______ _____ _____    ______ ____
ROOT
ATOM      1  F   UNL     1      32.475 -20.473 -20.308  0.00  0.00    -0.204 F 
ATOM      2  F   UNL     1      36.574 -18.460 -21.549  0.00  0.00    -0.204 F 
ATOM      3  C   UNL     1      34.513 -21.427 -19.551  0.00  0.00    +0.035 C 
ATOM      4  C   UNL     1      33.815 -20.453 -20.265  0.00  0.00    +0.141 C 
ATOM      5  C   UNL     1      35.907 -21.399 -19.512  0.00  0.00    +0.003 C 
ATOM      6  C   UNL     1      34.511 -19.452 -20.940  0.00  0.00    +0.059 C 
ATOM      7  C   UNL     1      36.603 -20.397 -20.187  0.00  0.00    +0.030 C 
ATOM      8  C   UNL     1      35.905 -19.423 -20.901  0.00  0.00    +0.142 C 
ENDROOT
BRANCH   3   9
ATOM      9  C   UNL     1      33.771 -22.501 -18.827  0.00  0.00    +0.166 C 
BRANCH   9  10
ATOM     10  O   UNL     1      33.950 -23.738 -19.507  0.00  0.00    -0.377 OA
ATOM     11  H   UNL     1      34.752 -23.693 -20.051  0.00  0.00    +0.211 HD
ENDBRANCH   9  10
ENDBRANCH   3   9
TORSDOF 2
ENDMDL
MODEL 3
REMARK VINA RESULT:      -6.2      2.508      3.718
REMARK  Name = 91867
REMARK  2 active torsions:
REMARK  status: ('A' for Active; 'I' for Inactive)
REMARK    1  A    between atoms: C_3  and  C_9
REMARK    2  A    between atoms: C_9  and  O_10
REMARK                            x       y       z     vdW  Elec       q    Type
REMARK                         _______ _______ _______ _____ _____    ______ ____
ROOT
ATOM      1  F   UNL     1      37.076 -20.194 -20.400  0.00  0.00    -0.204 F 
ATOM      2  F   UNL     1      33.874 -23.107 -18.488  0.00  0.00    -0.204 F 
ATOM      3  C   UNL     1      34.766 -19.767 -20.746  0.00  0.00    +0.035 C 
ATOM      4  C   UNL     1      35.795 -20.534 -20.198  0.00  0.00    +0.141 C 
ATOM      5  C   UNL     1      33.436 -20.129 -20.531  0.00  0.00    +0.003 C 
ATOM      6  C   UNL     1      35.494 -21.662 -19.436  0.00  0.00    +0.059 C 
ATOM      7  C   UNL     1      33.135 -21.258 -19.768  0.00  0.00    +0.030 C 
ATOM      8  C   UNL     1      34.164 -22.024 -19.220  0.00  0.00    +0.142 C 
ENDROOT
BRANCH   3   9
ATOM      9  C   UNL     1      35.085 -18.560 -21.562  0.00  0.00    +0.166 C 
BRANCH   9  10
ATOM     10  O   UNL     1      35.353 -17.463 -20.697  0.00  0.00    -0.377 OA
ATOM     11  H   UNL     1      36.247 -17.127 -20.870  0.00  0.00    +0.211 HD
ENDBRANCH   9  10
ENDBRANCH   3   9
TORSDOF 2
ENDMDL
MODEL 4
REMARK VINA RESULT:      -6.1      2.529      4.249
REMARK  Name = 91867
REMARK  2 active torsions:
REMARK  status: ('A' for Active; 'I' for Inactive)
REMARK    1  A    between atoms: C_3  and  C_9
REMARK    2  A    between atoms: C_9  and  O_10
REMARK                            x       y       z     vdW  Elec       q    Type
REMARK                         _______ _______ _______ _____ _____    ______ ____
ROOT
ATOM      1  F   UNL     1      32.494 -19.597 -20.761  0.00  0.00    -0.204 F 
ATOM      2  F   UNL     1      34.015 -23.240 -18.153  0.00  0.00    -0.204 F 
ATOM      3  C   UNL     1      34.825 -20.019 -20.605  0.00  0.00    +0.035 C 
ATOM      4  C   UNL     1      33.505 -20.334 -20.281  0.00  0.00    +0.141 C 
ATOM      5  C   UNL     1      35.871 -20.792 -20.100  0.00  0.00    +0.003 C 
ATOM      6  C   UNL     1      33.232 -21.422 -19.452  0.00  0.00    +0.059 C 
ATOM      7  C   UNL     1      35.597 -21.880 -19.272  0.00  0.00    +0.030 C 
ATOM      8  C   UNL     1      34.278 -22.195 -18.948  0.00  0.00    +0.142 C 
ENDROOT
BRANCH   3   9
ATOM      9  C   UNL     1      35.122 -18.856 -21.491  0.00  0.00    +0.166 C 
BRANCH   9  10
ATOM     10  O   UNL     1      35.487 -17.736 -20.693  0.00  0.00    -0.377 OA
ATOM     11  H   UNL     1      36.016 -18.038 -19.938  0.00  0.00    +0.211 HD
ENDBRANCH   9  10
ENDBRANCH   3   9
TORSDOF 2
ENDMDL
MODEL 5
REMARK VINA RESULT:      -5.8      3.264      4.526
REMARK  Name = 91867
REMARK  2 active torsions:
REMARK  status: ('A' for Active; 'I' for Inactive)
REMARK    1  A    between atoms: C_3  and  C_9
REMARK    2  A    between atoms: C_9  and  O_10
REMARK                            x       y       z     vdW  Elec       q    Type
REMARK                         _______ _______ _______ _____ _____    ______ ____
ROOT
ATOM      1  F   UNL     1      35.209 -16.486 -20.982  0.00  0.00    -0.204 F 
ATOM      2  F   UNL     1      34.718 -16.375 -25.688  0.00  0.00    -0.204 F 
ATOM      3  C   UNL     1      34.975 -18.526 -22.173  0.00  0.00    +0.035 C 
ATOM      4  C   UNL     1      35.052 -17.134 -22.145  0.00  0.00    +0.141 C 
ATOM      5  C   UNL     1      34.810 -19.192 -23.388  0.00  0.00    +0.003 C 
ATOM      6  C   UNL     1      34.965 -16.407 -23.333  0.00  0.00    +0.059 C 
ATOM      7  C   UNL     1      34.724 -18.465 -24.575  0.00  0.00    +0.030 C 
ATOM      8  C   UNL     1      34.801 -17.073 -24.548  0.00  0.00    +0.142 C 
ENDROOT
BRANCH   3   9
ATOM      9  C   UNL     1      35.067 -19.308 -20.905  0.00  0.00    +0.166 C 
BRANCH   9  10
ATOM     10  O   UNL     1      36.417 -19.322 -20.458  0.00  0.00    -0.377 OA
ATOM     11  H   UNL     1      36.953 -18.754 -21.033  0.00  0.00    +0.211 HD
ENDBRANCH   9  10
ENDBRANCH   3   9
TORSDOF 2
ENDMDL
MODEL 6
REMARK VINA RESULT:      -5.8      2.210      2.635
REMARK  Name = 91867
REMARK  2 active torsions:
REMARK  status: ('A' for Active; 'I' for Inactive)
REMARK    1  A    between atoms: C_3  and  C_9
REMARK    2  A    between atoms: C_9  and  O_10
REMARK                            x       y       z     vdW  Elec       q    Type
REMARK                         _______ _______ _______ _____ _____    ______ ____
ROOT
ATOM      1  F   UNL     1      36.932 -19.901 -20.320  0.00  0.00    -0.204 F 
ATOM      2  F   UNL     1      32.287 -20.222 -21.168  0.00  0.00    -0.204 F 
ATOM      3  C   UNL     1      35.616 -21.391 -19.022  0.00  0.00    +0.035 C 
ATOM      4  C   UNL     1      35.738 -20.441 -20.036  0.00  0.00    +0.141 C 
ATOM      5  C   UNL     1      34.369 -21.946 -18.733  0.00  0.00    +0.003 C 
ATOM      6  C   UNL     1      34.614 -20.045 -20.760  0.00  0.00    +0.059 C 
ATOM      7  C   UNL     1      33.245 -21.551 -19.458  0.00  0.00    +0.030 C 
ATOM      8  C   UNL     1      33.367 -20.601 -20.472  0.00  0.00    +0.142 C 
ENDROOT
BRANCH   3   9
ATOM      9  C   UNL     1      36.816 -21.816 -18.244  0.00  0.00    +0.166 C 
BRANCH   9  10
ATOM     10  O   UNL     1      37.135 -20.815 -17.285  0.00  0.00    -0.377 OA
ATOM     11  H   UNL     1      37.153 -19.947 -17.719  0.00  0.00    +0.211 HD
ENDBRANCH   9  10
ENDBRANCH   3   9
TORSDOF 2
ENDMDL
MODEL 7
REMARK VINA RESULT:      -5.8      5.062      6.114
REMARK  Name = 91867
REMARK  2 active torsions:
REMARK  status: ('A' for Active; 'I' for Inactive)
REMARK    1  A    between atoms: C_3  and  C_9
REMARK    2  A    between atoms: C_9  and  O_10
REMARK                            x       y       z     vdW  Elec       q    Type
REMARK                         _______ _______ _______ _____ _____    ______ ____
ROOT
ATOM      1  F   UNL     1      35.346 -18.810 -23.128  0.00  0.00    -0.204 F 
ATOM      2  F   UNL     1      34.670 -15.457 -19.858  0.00  0.00    -0.204 F 
ATOM      3  C   UNL     1      34.756 -16.617 -23.819  0.00  0.00    +0.035 C 
ATOM      4  C   UNL     1      35.043 -17.542 -22.816  0.00  0.00    +0.141 C 
ATOM      5  C   UNL     1      34.440 -15.300 -23.485  0.00  0.00    +0.003 C 
ATOM      6  C   UNL     1      35.013 -17.151 -21.477  0.00  0.00    +0.059 C 
ATOM      7  C   UNL     1      34.412 -14.908 -22.147  0.00  0.00    +0.030 C 
ATOM      8  C   UNL     1      34.698 -15.834 -21.143  0.00  0.00    +0.142 C 
ENDROOT
BRANCH   3   9
ATOM      9  C   UNL     1      34.787 -17.032 -25.252  0.00  0.00    +0.166 C 
BRANCH   9  10
ATOM     10  O   UNL     1      34.070 -16.083 -26.033  0.00  0.00    -0.377 OA
ATOM     11  H   UNL     1      34.652 -15.731 -26.725  0.00  0.00    +0.211 HD
ENDBRANCH   9  10
ENDBRANCH   3   9
TORSDOF 2
ENDMDL
MODEL 8
REMARK VINA RESULT:      -5.8      9.934     10.838
REMARK  Name = 91867
REMARK  2 active torsions:
REMARK  status: ('A' for Active; 'I' for Inactive)
REMARK    1  A    between atoms: C_3  and  C_9
REMARK    2  A    between atoms: C_9  and  O_10
REMARK                            x       y       z     vdW  Elec       q    Type
REMARK                         _______ _______ _______ _____ _____    ______ ____
ROOT
ATOM      1  F   UNL     1      41.980 -12.320 -16.420  0.00  0.00    -0.204 F 
ATOM      2  F   UNL     1      42.950 -16.647 -18.072  0.00  0.00    -0.204 F 
ATOM      3  C   UNL     1      41.112 -14.216 -15.286  0.00  0.00    +0.035 C 
ATOM      4  C   UNL     1      41.857 -13.651 -16.321  0.00  0.00    +0.141 C 
ATOM      5  C   UNL     1      40.989 -15.602 -15.192  0.00  0.00    +0.003 C 
ATOM      6  C   UNL     1      42.477 -14.472 -17.263  0.00  0.00    +0.059 C 
ATOM      7  C   UNL     1      41.610 -16.424 -16.133  0.00  0.00    +0.030 C 
ATOM      8  C   UNL     1      42.354 -15.858 -17.168  0.00  0.00    +0.142 C 
ENDROOT
BRANCH   3   9
ATOM      9  C   UNL     1      40.447 -13.341 -14.277  0.00  0.00    +0.166 C 
BRANCH   9  10
ATOM     10  O   UNL     1      40.999 -13.600 -12.992  0.00  0.00    -0.377 OA
ATOM     11  H   UNL     1      41.966 -13.548 -13.040  0.00  0.00    +0.211 HD
ENDBRANCH   9  10
ENDBRANCH   3   9
TORSDOF 2
ENDMDL
MODEL 9
REMARK VINA RESULT:      -5.8      4.263      5.532
REMARK  Name = 91867
REMARK  2 active torsions:
REMARK  status: ('A' for Active; 'I' for Inactive)
REMARK    1  A    between atoms: C_3  and  C_9
REMARK    2  A    between atoms: C_9  and  O_10
REMARK                            x       y       z     vdW  Elec       q    Type
REMARK                         _______ _______ _______ _____ _____    ______ ____
ROOT
ATOM      1  F   UNL     1      34.844 -15.325 -24.002  0.00  0.00    -0.204 F 
ATOM      2  F   UNL     1      35.022 -20.021 -24.562  0.00  0.00    -0.204 F 
ATOM      3  C   UNL     1      34.678 -16.729 -22.094  0.00  0.00    +0.035 C 
ATOM      4  C   UNL     1      34.819 -16.556 -23.471  0.00  0.00    +0.141 C 
ATOM      5  C   UNL     1      34.652 -18.014 -21.551  0.00  0.00    +0.003 C 
ATOM      6  C   UNL     1      34.935 -17.668 -24.305  0.00  0.00    +0.059 C 
ATOM      7  C   UNL     1      34.769 -19.126 -22.385  0.00  0.00    +0.030 C 
ATOM      8  C   UNL     1      34.910 -18.953 -23.762  0.00  0.00    +0.142 C 
ENDROOT
BRANCH   3   9
ATOM      9  C   UNL     1      34.554 -15.542 -21.199  0.00  0.00    +0.166 C 
BRANCH   9  10
ATOM     10  O   UNL     1      34.960 -15.899 -19.883  0.00  0.00    -0.377 OA
ATOM     11  H   UNL     1      35.871 -15.602 -19.735  0.00  0.00    +0.211 HD
ENDBRANCH   9  10
ENDBRANCH   3   9
TORSDOF 2
ENDMDL
