MODEL 1
REMARK VINA RESULT:      -9.6      0.000      0.000
REMARK  Name = 5284569
REMARK  1 active torsions:
REMARK  status: ('A' for Active; 'I' for Inactive)
REMARK    1  A    between atoms: C_19  and  O_22
REMARK                            x       y       z     vdW  Elec       q    Type
REMARK                         _______ _______ _______ _____ _____    ______ ____
ROOT
ATOM      1  O   UNL     1      31.572 -11.286 -22.836  0.00  0.00    -0.469 OA
ATOM      2  O   UNL     1      31.961 -11.616 -20.170  0.00  0.00    -0.292 OA
ATOM      3  N   UNL     1      31.649  -6.111 -23.448  0.00  0.00    +0.387 N 
ATOM      4  C   UNL     1      31.558  -8.881 -22.575  0.00  0.00    +0.061 C 
ATOM      5  C   UNL     1      31.928  -7.725 -21.638  0.00  0.00    -0.011 C 
ATOM      6  C   UNL     1      32.658  -6.653 -22.505  0.00  0.00    -0.053 C 
ATOM      7  C   UNL     1      31.120 -10.215 -21.951  0.00  0.00    +0.226 C 
ATOM      8  C   UNL     1      30.559  -8.356 -23.628  0.00  0.00    -0.015 C 
ATOM      9  C   UNL     1      32.779  -9.391 -23.254  0.00  0.00    +0.014 C 
ATOM     10  C   UNL     1      32.718  -8.192 -20.409  0.00  0.00    +0.006 C 
ATOM     11  C   UNL     1      33.962  -7.206 -23.181  0.00  0.00    +0.005 C 
ATOM     12  C   UNL     1      31.082  -7.108 -24.363  0.00  0.00    -0.077 C 
ATOM     13  C   UNL     1      33.887  -8.647 -23.612  0.00  0.00    -0.025 C 
ATOM     14  C   UNL     1      31.945  -9.278 -19.671  0.00  0.00    +0.068 C 
ATOM     15  C   UNL     1      31.725 -10.475 -20.569  0.00  0.00    +0.191 C 
ATOM     16  C   UNL     1      32.694 -10.756 -23.431  0.00  0.00    +0.168 C 
ATOM     17  C   UNL     1      32.100  -4.924 -24.165  0.00  0.00    -0.101 C 
ATOM     18  C   UNL     1      34.912  -9.326 -24.270  0.00  0.00    -0.001 C 
ATOM     19  C   UNL     1      33.687 -11.443 -24.090  0.00  0.00    +0.172 C 
ATOM     20  C   UNL     1      34.802 -10.711 -24.523  0.00  0.00    +0.040 C 
ATOM     21  H   UNL     1      30.884  -5.819 -22.840  0.00  0.00    -0.080 HD
ENDROOT
BRANCH  19  22
ATOM     22  O   UNL     1      33.616 -12.782 -24.290  0.00  0.00    -0.468 OA
ATOM     23  C   UNL     1      34.032 -13.628 -23.217  0.00  0.00    +0.253 C 
ENDBRANCH  19  22
TORSDOF 1
ENDMDL
