MODEL 1
REMARK VINA RESULT:      -3.8      0.000      0.000
REMARK  Name = 8076
REMARK  4 active torsions:
REMARK  status: ('A' for Active; 'I' for Inactive)
REMARK    1  A    between atoms: C_1  and  O_2
REMARK    2  A    between atoms: C_1  and  C_5
REMARK    3  A    between atoms: O_2  and  C_3
REMARK    4  A    between atoms: C_5  and  O_6
REMARK                            x       y       z     vdW  Elec       q    Type
REMARK                         _______ _______ _______ _____ _____    ______ ____
ROOT
ATOM      1  C   UNL     1      38.898 -25.700 -14.217  0.00  0.00    +0.174 C 
ENDROOT
BRANCH   1   2
ATOM      2  O   UNL     1      38.368 -26.925 -14.709  0.00  0.00    -0.351 OA
BRANCH   2   3
ATOM      3  C   UNL     1      37.000 -26.792 -15.070  0.00  0.00    +0.142 C 
ATOM      4  C   UNL     1      36.596 -25.339 -14.942  0.00  0.00    +0.035 C 
ENDBRANCH   2   3
ENDBRANCH   1   2
BRANCH   1   5
ATOM      5  C   UNL     1      40.338 -25.565 -14.674  0.00  0.00    +0.169 C 
BRANCH   5   6
ATOM      6  O   UNL     1      40.434 -25.974 -16.033  0.00  0.00    -0.379 OA
ATOM      7  H   UNL     1      40.529 -26.938 -16.075  0.00  0.00    +0.211 HD
ENDBRANCH   5   6
ENDBRANCH   1   5
TORSDOF 4
ENDMDL
MODEL 2
REMARK VINA RESULT:      -3.7      1.249      2.948
REMARK  Name = 8076
REMARK  4 active torsions:
REMARK  status: ('A' for Active; 'I' for Inactive)
REMARK    1  A    between atoms: C_1  and  O_2
REMARK    2  A    between atoms: C_1  and  C_5
REMARK    3  A    between atoms: O_2  and  C_3
REMARK    4  A    between atoms: C_5  and  O_6
REMARK                            x       y       z     vdW  Elec       q    Type
REMARK                         _______ _______ _______ _____ _____    ______ ____
ROOT
ATOM      1  C   UNL     1      37.352 -26.755 -14.172  0.00  0.00    +0.174 C 
ENDROOT
BRANCH   1   2
ATOM      2  O   UNL     1      38.670 -26.952 -14.672  0.00  0.00    -0.351 OA
BRANCH   2   3
ATOM      3  C   UNL     1      39.476 -25.797 -14.482  0.00  0.00    +0.142 C 
ATOM      4  C   UNL     1      39.035 -25.091 -13.218  0.00  0.00    +0.035 C 
ENDBRANCH   2   3
ENDBRANCH   1   2
BRANCH   1   5
ATOM      5  C   UNL     1      36.410 -26.527 -15.339  0.00  0.00    +0.169 C 
BRANCH   5   6
ATOM      6  O   UNL     1      36.797 -27.368 -16.419  0.00  0.00    -0.379 OA
ATOM      7  H   UNL     1      36.804 -28.292 -16.122  0.00  0.00    +0.211 HD
ENDBRANCH   5   6
ENDBRANCH   1   5
TORSDOF 4
ENDMDL
MODEL 3
REMARK VINA RESULT:      -3.7     11.772     12.504
REMARK  Name = 8076
REMARK  4 active torsions:
REMARK  status: ('A' for Active; 'I' for Inactive)
REMARK    1  A    between atoms: C_1  and  O_2
REMARK    2  A    between atoms: C_1  and  C_5
REMARK    3  A    between atoms: O_2  and  C_3
REMARK    4  A    between atoms: C_5  and  O_6
REMARK                            x       y       z     vdW  Elec       q    Type
REMARK                         _______ _______ _______ _____ _____    ______ ____
ROOT
ATOM      1  C   UNL     1      41.018 -14.968 -14.954  0.00  0.00    +0.174 C 
ENDROOT
BRANCH   1   2
ATOM      2  O   UNL     1      42.105 -14.857 -15.865  0.00  0.00    -0.351 OA
BRANCH   2   3
ATOM      3  C   UNL     1      41.917 -13.779 -16.770  0.00  0.00    +0.142 C 
ATOM      4  C   UNL     1      41.241 -14.298 -18.021  0.00  0.00    +0.035 C 
ENDBRANCH   2   3
ENDBRANCH   1   2
BRANCH   1   5
ATOM      5  C   UNL     1      40.664 -13.587 -14.436  0.00  0.00    +0.169 C 
BRANCH   5   6
ATOM      6  O   UNL     1      40.920 -13.536 -13.038  0.00  0.00    -0.379 OA
ATOM      7  H   UNL     1      41.835 -13.251 -12.887  0.00  0.00    +0.211 HD
ENDBRANCH   5   6
ENDBRANCH   1   5
TORSDOF 4
ENDMDL
MODEL 4
REMARK VINA RESULT:      -3.6      1.839      2.210
REMARK  Name = 8076
REMARK  4 active torsions:
REMARK  status: ('A' for Active; 'I' for Inactive)
REMARK    1  A    between atoms: C_1  and  O_2
REMARK    2  A    between atoms: C_1  and  C_5
REMARK    3  A    between atoms: O_2  and  C_3
REMARK    4  A    between atoms: C_5  and  O_6
REMARK                            x       y       z     vdW  Elec       q    Type
REMARK                         _______ _______ _______ _____ _____    ______ ____
ROOT
ATOM      1  C   UNL     1      39.008 -25.393 -14.237  0.00  0.00    +0.174 C 
ENDROOT
BRANCH   1   2
ATOM      2  O   UNL     1      39.126 -24.546 -13.099  0.00  0.00    -0.351 OA
BRANCH   2   3
ATOM      3  C   UNL     1      37.998 -24.667 -12.243  0.00  0.00    +0.142 C 
ATOM      4  C   UNL     1      37.307 -25.984 -12.521  0.00  0.00    +0.035 C 
ENDBRANCH   2   3
ENDBRANCH   1   2
BRANCH   1   5
ATOM      5  C   UNL     1      40.390 -25.867 -14.645  0.00  0.00    +0.169 C 
BRANCH   5   6
ATOM      6  O   UNL     1      40.447 -25.965 -16.063  0.00  0.00    -0.379 OA
ATOM      7  H   UNL     1      41.220 -25.479 -16.390  0.00  0.00    +0.211 HD
ENDBRANCH   5   6
ENDBRANCH   1   5
TORSDOF 4
ENDMDL
MODEL 5
REMARK VINA RESULT:      -3.6      2.027      2.309
REMARK  Name = 8076
REMARK  4 active torsions:
REMARK  status: ('A' for Active; 'I' for Inactive)
REMARK    1  A    between atoms: C_1  and  O_2
REMARK    2  A    between atoms: C_1  and  C_5
REMARK    3  A    between atoms: O_2  and  C_3
REMARK    4  A    between atoms: C_5  and  O_6
REMARK                            x       y       z     vdW  Elec       q    Type
REMARK                         _______ _______ _______ _____ _____    ______ ____
ROOT
ATOM      1  C   UNL     1      38.607 -25.255 -14.735  0.00  0.00    +0.174 C 
ENDROOT
BRANCH   1   2
ATOM      2  O   UNL     1      38.361 -23.879 -14.466  0.00  0.00    -0.351 OA
BRANCH   2   3
ATOM      3  C   UNL     1      37.170 -23.431 -15.098  0.00  0.00    +0.142 C 
ATOM      4  C   UNL     1      37.533 -22.476 -16.214  0.00  0.00    +0.035 C 
ENDBRANCH   2   3
ENDBRANCH   1   2
BRANCH   1   5
ATOM      5  C   UNL     1      40.105 -25.490 -14.776  0.00  0.00    +0.169 C 
BRANCH   5   6
ATOM      6  O   UNL     1      40.463 -25.971 -16.066  0.00  0.00    -0.379 OA
ATOM      7  H   UNL     1      41.114 -26.684 -15.976  0.00  0.00    +0.211 HD
ENDBRANCH   5   6
ENDBRANCH   1   5
TORSDOF 4
ENDMDL
MODEL 6
REMARK VINA RESULT:      -3.6      3.673      4.881
REMARK  Name = 8076
REMARK  4 active torsions:
REMARK  status: ('A' for Active; 'I' for Inactive)
REMARK    1  A    between atoms: C_1  and  O_2
REMARK    2  A    between atoms: C_1  and  C_5
REMARK    3  A    between atoms: O_2  and  C_3
REMARK    4  A    between atoms: C_5  and  O_6
REMARK                            x       y       z     vdW  Elec       q    Type
REMARK                         _______ _______ _______ _____ _____    ______ ____
ROOT
ATOM      1  C   UNL     1      36.856 -23.730 -11.534  0.00  0.00    +0.174 C 
ENDROOT
BRANCH   1   2
ATOM      2  O   UNL     1      37.954 -24.628 -11.418  0.00  0.00    -0.351 OA
BRANCH   2   3
ATOM      3  C   UNL     1      37.953 -25.588 -12.465  0.00  0.00    +0.142 C 
ATOM      4  C   UNL     1      39.091 -25.283 -13.415  0.00  0.00    +0.035 C 
ENDBRANCH   2   3
ENDBRANCH   1   2
BRANCH   1   5
ATOM      5  C   UNL     1      35.569 -24.529 -11.592  0.00  0.00    +0.169 C 
BRANCH   5   6
ATOM      6  O   UNL     1      35.276 -25.034 -10.295  0.00  0.00    -0.379 OA
ATOM      7  H   UNL     1      36.018 -25.576  -9.984  0.00  0.00    +0.211 HD
ENDBRANCH   5   6
ENDBRANCH   1   5
TORSDOF 4
ENDMDL
MODEL 7
REMARK VINA RESULT:      -3.5      1.515      3.410
REMARK  Name = 8076
REMARK  4 active torsions:
REMARK  status: ('A' for Active; 'I' for Inactive)
REMARK    1  A    between atoms: C_1  and  O_2
REMARK    2  A    between atoms: C_1  and  C_5
REMARK    3  A    between atoms: O_2  and  C_3
REMARK    4  A    between atoms: C_5  and  O_6
REMARK                            x       y       z     vdW  Elec       q    Type
REMARK                         _______ _______ _______ _____ _____    ______ ____
ROOT
ATOM      1  C   UNL     1      37.099 -26.770 -14.402  0.00  0.00    +0.174 C 
ENDROOT
BRANCH   1   2
ATOM      2  O   UNL     1      38.494 -26.956 -14.608  0.00  0.00    -0.351 OA
BRANCH   2   3
ATOM      3  C   UNL     1      39.170 -25.713 -14.746  0.00  0.00    +0.142 C 
ATOM      4  C   UNL     1      40.596 -25.873 -14.267  0.00  0.00    +0.035 C 
ENDBRANCH   2   3
ENDBRANCH   1   2
BRANCH   1   5
ATOM      5  C   UNL     1      36.894 -25.815 -13.241  0.00  0.00    +0.169 C 
BRANCH   5   6
ATOM      6  O   UNL     1      36.938 -26.549 -12.023  0.00  0.00    -0.379 OA
ATOM      7  H   UNL     1      37.743 -26.317 -11.534  0.00  0.00    +0.211 HD
ENDBRANCH   5   6
ENDBRANCH   1   5
TORSDOF 4
ENDMDL
MODEL 8
REMARK VINA RESULT:      -3.5     17.997     18.729
REMARK  Name = 8076
REMARK  4 active torsions:
REMARK  status: ('A' for Active; 'I' for Inactive)
REMARK    1  A    between atoms: C_1  and  O_2
REMARK    2  A    between atoms: C_1  and  C_5
REMARK    3  A    between atoms: O_2  and  C_3
REMARK    4  A    between atoms: C_5  and  O_6
REMARK                            x       y       z     vdW  Elec       q    Type
REMARK                         _______ _______ _______ _____ _____    ______ ____
ROOT
ATOM      1  C   UNL     1      32.157  -9.095 -20.566  0.00  0.00    +0.174 C 
ENDROOT
BRANCH   1   2
ATOM      2  O   UNL     1      32.226  -9.450 -19.190  0.00  0.00    -0.351 OA
BRANCH   2   3
ATOM      3  C   UNL     1      31.493 -10.638 -18.922  0.00  0.00    +0.142 C 
ATOM      4  C   UNL     1      31.496 -11.508 -20.160  0.00  0.00    +0.035 C 
ENDBRANCH   2   3
ENDBRANCH   1   2
BRANCH   1   5
ATOM      5  C   UNL     1      32.743  -7.708 -20.748  0.00  0.00    +0.169 C 
BRANCH   5   6
ATOM      6  O   UNL     1      33.195  -7.226 -19.489  0.00  0.00    -0.379 OA
ATOM      7  H   UNL     1      33.865  -7.830 -19.133  0.00  0.00    +0.211 HD
ENDBRANCH   5   6
ENDBRANCH   1   5
TORSDOF 4
ENDMDL
MODEL 9
REMARK VINA RESULT:      -3.5     10.500     11.365
REMARK  Name = 8076
REMARK  4 active torsions:
REMARK  status: ('A' for Active; 'I' for Inactive)
REMARK    1  A    between atoms: C_1  and  O_2
REMARK    2  A    between atoms: C_1  and  C_5
REMARK    3  A    between atoms: O_2  and  C_3
REMARK    4  A    between atoms: C_5  and  O_6
REMARK                            x       y       z     vdW  Elec       q    Type
REMARK                         _______ _______ _______ _____ _____    ______ ____
ROOT
ATOM      1  C   UNL     1      41.550 -16.311 -16.021  0.00  0.00    +0.174 C 
ENDROOT
BRANCH   1   2
ATOM      2  O   UNL     1      42.964 -16.319 -16.179  0.00  0.00    -0.351 OA
BRANCH   2   3
ATOM      3  C   UNL     1      43.354 -15.696 -17.395  0.00  0.00    +0.142 C 
ATOM      4  C   UNL     1      43.012 -16.613 -18.550  0.00  0.00    +0.035 C 
ENDBRANCH   2   3
ENDBRANCH   1   2
BRANCH   1   5
ATOM      5  C   UNL     1      41.094 -14.895 -15.725  0.00  0.00    +0.169 C 
BRANCH   5   6
ATOM      6  O   UNL     1      40.495 -14.860 -14.435  0.00  0.00    -0.379 OA
ATOM      7  H   UNL     1      39.690 -15.402 -14.437  0.00  0.00    +0.211 HD
ENDBRANCH   5   6
ENDBRANCH   1   5
TORSDOF 4
ENDMDL
