MODEL 1
REMARK VINA RESULT:      -8.8      0.000      0.000
REMARK  Name = 47811
REMARK  4 active torsions:
REMARK  status: ('A' for Active; 'I' for Inactive)
REMARK    1  A    between atoms: N_1  and  C_19
REMARK    2  A    between atoms: C_6  and  C_22
REMARK    3  A    between atoms: C_19  and  C_20
REMARK    4  A    between atoms: C_22  and  S_23
REMARK                            x       y       z     vdW  Elec       q    Type
REMARK                         _______ _______ _______ _____ _____    ______ ____
ROOT
ATOM      1  N   UNL     1      34.068 -23.227 -16.920  0.00  0.00    +0.389 N 
ATOM      2  N   UNL     1      33.518 -19.430 -21.562  0.00  0.00    -0.312 N 
ATOM      3  C   UNL     1      35.726 -22.067 -18.417  0.00  0.00    +0.004 C 
ATOM      4  C   UNL     1      34.239 -22.081 -17.848  0.00  0.00    -0.049 C 
ATOM      5  C   UNL     1      36.733 -22.020 -17.261  0.00  0.00    +0.001 C 
ATOM      6  C   UNL     1      36.473 -23.158 -16.271  0.00  0.00    -0.010 C 
ATOM      7  C   UNL     1      35.016 -23.140 -15.795  0.00  0.00    -0.076 C 
ATOM      8  C   UNL     1      33.161 -22.076 -18.999  0.00  0.00    +0.007 C 
ATOM      9  C   UNL     1      35.915 -20.944 -19.423  0.00  0.00    -0.024 C 
ATOM     10  C   UNL     1      33.461 -21.010 -19.995  0.00  0.00    -0.009 C 
ATOM     11  C   UNL     1      34.780 -20.534 -20.134  0.00  0.00    +0.007 C 
ATOM     12  C   UNL     1      34.813 -19.554 -21.107  0.00  0.00    +0.048 C 
ATOM     13  C   UNL     1      37.119 -20.321 -19.778  0.00  0.00    -0.004 C 
ATOM     14  C   UNL     1      32.690 -20.312 -20.896  0.00  0.00    +0.057 C 
ATOM     15  C   UNL     1      36.001 -18.912 -21.450  0.00  0.00    +0.015 C 
ATOM     16  C   UNL     1      37.155 -19.322 -20.764  0.00  0.00    +0.001 C 
ATOM     17  H   UNL     1      34.256 -24.063 -17.472  0.00  0.00    -0.080 HD
ATOM     18  H   UNL     1      33.224 -18.803 -22.263  0.00  0.00    +0.152 HD
ENDROOT
BRANCH   1  19
ATOM     19  C   UNL     1      32.707 -23.330 -16.386  0.00  0.00    -0.077 C 
BRANCH  19  20
ATOM     20  C   UNL     1      32.726 -23.238 -14.863  0.00  0.00    -0.023 C 
ATOM     21  C   UNL     1      31.350 -22.902 -14.310  0.00  0.00    -0.002 C 
ENDBRANCH  19  20
ENDBRANCH   1  19
BRANCH   6  22
ATOM     22  C   UNL     1      37.431 -23.067 -15.084  0.00  0.00    +0.055 C 
BRANCH  22  23
ATOM     23  S   UNL     1      36.576 -23.519 -13.554  0.00  0.00    -0.139 S 
ATOM     24  C   UNL     1      37.027 -25.269 -13.502  0.00  0.00    +0.069 C 
ENDBRANCH  22  23
ENDBRANCH   6  22
TORSDOF 4
ENDMDL
MODEL 2
REMARK VINA RESULT:      -8.2      8.664     11.583
REMARK  Name = 47811
REMARK  4 active torsions:
REMARK  status: ('A' for Active; 'I' for Inactive)
REMARK    1  A    between atoms: N_1  and  C_19
REMARK    2  A    between atoms: C_6  and  C_22
REMARK    3  A    between atoms: C_19  and  C_20
REMARK    4  A    between atoms: C_22  and  S_23
REMARK                            x       y       z     vdW  Elec       q    Type
REMARK                         _______ _______ _______ _____ _____    ______ ____
ROOT
ATOM      1  N   UNL     1      32.397 -14.261 -21.826  0.00  0.00    +0.389 N 
ATOM      2  N   UNL     1      31.848  -8.793 -19.363  0.00  0.00    -0.312 N 
ATOM      3  C   UNL     1      32.135 -11.948 -22.782  0.00  0.00    +0.004 C 
ATOM      4  C   UNL     1      32.556 -12.819 -21.517  0.00  0.00    -0.049 C 
ATOM      5  C   UNL     1      32.959 -12.364 -24.007  0.00  0.00    +0.001 C 
ATOM      6  C   UNL     1      32.850 -13.872 -24.245  0.00  0.00    -0.010 C 
ATOM      7  C   UNL     1      33.228 -14.649 -22.980  0.00  0.00    -0.076 C 
ATOM      8  C   UNL     1      31.774 -12.395 -20.215  0.00  0.00    +0.007 C 
ATOM      9  C   UNL     1      32.223 -10.462 -22.476  0.00  0.00    -0.024 C 
ATOM     10  C   UNL     1      31.826 -10.917 -20.029  0.00  0.00    -0.009 C 
ATOM     11  C   UNL     1      32.040 -10.080 -21.141  0.00  0.00    +0.007 C 
ATOM     12  C   UNL     1      32.052  -8.762 -20.726  0.00  0.00    +0.048 C 
ATOM     13  C   UNL     1      32.391  -9.418 -23.396  0.00  0.00    -0.004 C 
ATOM     14  C   UNL     1      31.707 -10.097 -18.931  0.00  0.00    +0.057 C 
ATOM     15  C   UNL     1      32.243  -7.719 -21.629  0.00  0.00    +0.015 C 
ATOM     16  C   UNL     1      32.408  -8.078 -22.976  0.00  0.00    +0.001 C 
ATOM     17  H   UNL     1      31.410 -14.392 -22.047  0.00  0.00    -0.080 HD
ATOM     18  H   UNL     1      31.808  -8.000 -18.781  0.00  0.00    +0.152 HD
ENDROOT
BRANCH   1  19
ATOM     19  C   UNL     1      32.727 -15.128 -20.691  0.00  0.00    -0.077 C 
BRANCH  19  20
ATOM     20  C   UNL     1      34.239 -15.199 -20.500  0.00  0.00    -0.023 C 
ATOM     21  C   UNL     1      34.770 -16.594 -20.790  0.00  0.00    -0.002 C 
ENDBRANCH  19  20
ENDBRANCH   1  19
BRANCH   6  22
ATOM     22  C   UNL     1      33.729 -14.295 -25.422  0.00  0.00    +0.055 C 
BRANCH  22  23
ATOM     23  S   UNL     1      33.314 -15.978 -25.940  0.00  0.00    -0.139 S 
ATOM     24  C   UNL     1      34.757 -16.831 -25.264  0.00  0.00    +0.069 C 
ENDBRANCH  22  23
ENDBRANCH   6  22
TORSDOF 4
ENDMDL
MODEL 3
REMARK VINA RESULT:      -8.1      6.636     10.162
REMARK  Name = 47811
REMARK  4 active torsions:
REMARK  status: ('A' for Active; 'I' for Inactive)
REMARK    1  A    between atoms: N_1  and  C_19
REMARK    2  A    between atoms: C_6  and  C_22
REMARK    3  A    between atoms: C_19  and  C_20
REMARK    4  A    between atoms: C_22  and  S_23
REMARK                            x       y       z     vdW  Elec       q    Type
REMARK                         _______ _______ _______ _____ _____    ______ ____
ROOT
ATOM      1  N   UNL     1      33.276 -13.572 -21.693  0.00  0.00    +0.389 N 
ATOM      2  N   UNL     1      34.075 -19.541 -21.766  0.00  0.00    -0.312 N 
ATOM      3  C   UNL     1      34.374 -15.154 -23.313  0.00  0.00    +0.004 C 
ATOM      4  C   UNL     1      33.337 -14.993 -22.116  0.00  0.00    -0.049 C 
ATOM      5  C   UNL     1      33.989 -14.230 -24.474  0.00  0.00    +0.001 C 
ATOM      6  C   UNL     1      33.841 -12.786 -23.989  0.00  0.00    -0.010 C 
ATOM      7  C   UNL     1      32.863 -12.706 -22.812  0.00  0.00    -0.076 C 
ATOM      8  C   UNL     1      33.658 -15.963 -20.914  0.00  0.00    +0.007 C 
ATOM      9  C   UNL     1      34.512 -16.610 -23.725  0.00  0.00    -0.024 C 
ATOM     10  C   UNL     1      33.869 -17.354 -21.404  0.00  0.00    -0.009 C 
ATOM     11  C   UNL     1      34.271 -17.573 -22.736  0.00  0.00    +0.007 C 
ATOM     12  C   UNL     1      34.398 -18.930 -22.959  0.00  0.00    +0.048 C 
ATOM     13  C   UNL     1      34.928 -17.101 -24.970  0.00  0.00    -0.004 C 
ATOM     14  C   UNL     1      33.755 -18.592 -20.815  0.00  0.00    +0.057 C 
ATOM     15  C   UNL     1      34.788 -19.429 -24.200  0.00  0.00    +0.015 C 
ATOM     16  C   UNL     1      35.055 -18.480 -25.201  0.00  0.00    +0.001 C 
ATOM     17  H   UNL     1      34.220 -13.330 -21.394  0.00  0.00    -0.080 HD
ATOM     18  H   UNL     1      34.072 -20.513 -21.614  0.00  0.00    +0.152 HD
ENDROOT
BRANCH   1  19
ATOM     19  C   UNL     1      32.369 -13.352 -20.564  0.00  0.00    -0.077 C 
BRANCH  19  20
ATOM     20  C   UNL     1      31.621 -12.032 -20.733  0.00  0.00    -0.023 C 
ATOM     21  C   UNL     1      31.632 -11.219 -19.448  0.00  0.00    -0.002 C 
ENDBRANCH  19  20
ENDBRANCH   1  19
BRANCH   6  22
ATOM     22  C   UNL     1      33.387 -11.879 -25.132  0.00  0.00    +0.055 C 
BRANCH  22  23
ATOM     23  S   UNL     1      34.730 -10.770 -25.624  0.00  0.00    -0.139 S 
ATOM     24  C   UNL     1      34.699  -9.661 -24.197  0.00  0.00    +0.069 C 
ENDBRANCH  22  23
ENDBRANCH   6  22
TORSDOF 4
ENDMDL
MODEL 4
REMARK VINA RESULT:      -8.1      7.445     11.374
REMARK  Name = 47811
REMARK  4 active torsions:
REMARK  status: ('A' for Active; 'I' for Inactive)
REMARK    1  A    between atoms: N_1  and  C_19
REMARK    2  A    between atoms: C_6  and  C_22
REMARK    3  A    between atoms: C_19  and  C_20
REMARK    4  A    between atoms: C_22  and  S_23
REMARK                            x       y       z     vdW  Elec       q    Type
REMARK                         _______ _______ _______ _____ _____    ______ ____
ROOT
ATOM      1  N   UNL     1      32.902 -12.329 -24.351  0.00  0.00    +0.389 N 
ATOM      2  N   UNL     1      35.310 -17.839 -24.015  0.00  0.00    -0.312 N 
ATOM      3  C   UNL     1      32.679 -14.221 -22.706  0.00  0.00    +0.004 C 
ATOM      4  C   UNL     1      33.559 -13.566 -23.861  0.00  0.00    -0.049 C 
ATOM      5  C   UNL     1      32.453 -13.209 -21.577  0.00  0.00    +0.001 C 
ATOM      6  C   UNL     1      31.862 -11.909 -22.127  0.00  0.00    -0.010 C 
ATOM      7  C   UNL     1      32.732 -11.354 -23.259  0.00  0.00    -0.076 C 
ATOM      8  C   UNL     1      33.866 -14.584 -25.026  0.00  0.00    +0.007 C 
ATOM      9  C   UNL     1      33.290 -15.528 -22.228  0.00  0.00    -0.024 C 
ATOM     10  C   UNL     1      34.376 -15.872 -24.477  0.00  0.00    -0.009 C 
ATOM     11  C   UNL     1      34.059 -16.242 -23.155  0.00  0.00    +0.007 C 
ATOM     12  C   UNL     1      34.640 -17.463 -22.871  0.00  0.00    +0.048 C 
ATOM     13  C   UNL     1      33.108 -16.140 -20.980  0.00  0.00    -0.004 C 
ATOM     14  C   UNL     1      35.153 -16.881 -24.997  0.00  0.00    +0.057 C 
ATOM     15  C   UNL     1      34.484 -18.069 -21.625  0.00  0.00    +0.015 C 
ATOM     16  C   UNL     1      33.699 -17.379 -20.687  0.00  0.00    +0.001 C 
ATOM     17  H   UNL     1      31.991 -12.619 -24.706  0.00  0.00    -0.080 HD
ATOM     18  H   UNL     1      35.827 -18.670 -24.118  0.00  0.00    +0.152 HD
ENDROOT
BRANCH   1  19
ATOM     19  C   UNL     1      33.636 -11.691 -25.447  0.00  0.00    -0.077 C 
BRANCH  19  20
ATOM     20  C   UNL     1      34.518 -10.566 -24.912  0.00  0.00    -0.023 C 
ATOM     21  C   UNL     1      35.628 -10.218 -25.891  0.00  0.00    -0.002 C 
ENDBRANCH  19  20
ENDBRANCH   1  19
BRANCH   6  22
ATOM     22  C   UNL     1      31.704 -10.876 -21.011  0.00  0.00    +0.055 C 
BRANCH  22  23
ATOM     23  S   UNL     1      31.976  -9.208 -21.659  0.00  0.00    -0.139 S 
ATOM     24  C   UNL     1      32.328  -8.368 -20.098  0.00  0.00    +0.069 C 
ENDBRANCH  22  23
ENDBRANCH   6  22
TORSDOF 4
ENDMDL
MODEL 5
REMARK VINA RESULT:      -8.0      1.836      3.056
REMARK  Name = 47811
REMARK  4 active torsions:
REMARK  status: ('A' for Active; 'I' for Inactive)
REMARK    1  A    between atoms: N_1  and  C_19
REMARK    2  A    between atoms: C_6  and  C_22
REMARK    3  A    between atoms: C_19  and  C_20
REMARK    4  A    between atoms: C_22  and  S_23
REMARK                            x       y       z     vdW  Elec       q    Type
REMARK                         _______ _______ _______ _____ _____    ______ ____
ROOT
ATOM      1  N   UNL     1      32.706 -24.115 -14.489  0.00  0.00    +0.389 N 
ATOM      2  N   UNL     1      34.119 -21.436 -19.694  0.00  0.00    -0.312 N 
ATOM      3  C   UNL     1      34.886 -23.580 -15.627  0.00  0.00    +0.004 C 
ATOM      4  C   UNL     1      33.332 -23.248 -15.517  0.00  0.00    -0.049 C 
ATOM      5  C   UNL     1      35.559 -23.419 -14.259  0.00  0.00    +0.001 C 
ATOM      6  C   UNL     1      34.834 -24.251 -13.199  0.00  0.00    -0.010 C 
ATOM      7  C   UNL     1      33.339 -23.914 -13.173  0.00  0.00    -0.076 C 
ATOM      8  C   UNL     1      32.601 -23.348 -16.911  0.00  0.00    +0.007 C 
ATOM      9  C   UNL     1      35.545 -22.757 -16.721  0.00  0.00    -0.024 C 
ATOM     10  C   UNL     1      33.352 -22.592 -17.953  0.00  0.00    -0.009 C 
ATOM     11  C   UNL     1      34.731 -22.358 -17.789  0.00  0.00    +0.007 C 
ATOM     12  C   UNL     1      35.205 -21.641 -18.871  0.00  0.00    +0.048 C 
ATOM     13  C   UNL     1      36.900 -22.412 -16.820  0.00  0.00    -0.004 C 
ATOM     14  C   UNL     1      32.990 -22.013 -19.147  0.00  0.00    +0.057 C 
ATOM     15  C   UNL     1      36.546 -21.274 -18.967  0.00  0.00    +0.015 C 
ATOM     16  C   UNL     1      37.384 -21.681 -17.917  0.00  0.00    +0.001 C 
ATOM     17  H   UNL     1      32.853 -25.073 -14.804  0.00  0.00    -0.080 HD
ATOM     18  H   UNL     1      34.143 -20.950 -20.549  0.00  0.00    +0.152 HD
ENDROOT
BRANCH   1  19
ATOM     19  C   UNL     1      31.263 -23.895 -14.359  0.00  0.00    -0.077 C 
BRANCH  19  20
ATOM     20  C   UNL     1      30.513 -25.221 -14.448  0.00  0.00    -0.023 C 
ATOM     21  C   UNL     1      29.186 -25.060 -15.172  0.00  0.00    -0.002 C 
ENDBRANCH  19  20
ENDBRANCH   1  19
BRANCH   6  22
ATOM     22  C   UNL     1      35.461 -24.033 -11.822  0.00  0.00    +0.055 C 
BRANCH  22  23
ATOM     23  S   UNL     1      37.029 -23.143 -11.983  0.00  0.00    -0.139 S 
ATOM     24  C   UNL     1      38.141 -24.567 -12.041  0.00  0.00    +0.069 C 
ENDBRANCH  22  23
ENDBRANCH   6  22
TORSDOF 4
ENDMDL
MODEL 6
REMARK VINA RESULT:      -7.7      2.700      5.140
REMARK  Name = 47811
REMARK  4 active torsions:
REMARK  status: ('A' for Active; 'I' for Inactive)
REMARK    1  A    between atoms: N_1  and  C_19
REMARK    2  A    between atoms: C_6  and  C_22
REMARK    3  A    between atoms: C_19  and  C_20
REMARK    4  A    between atoms: C_22  and  S_23
REMARK                            x       y       z     vdW  Elec       q    Type
REMARK                         _______ _______ _______ _____ _____    ______ ____
ROOT
ATOM      1  N   UNL     1      34.080 -23.968 -13.549  0.00  0.00    +0.389 N 
ATOM      2  N   UNL     1      37.069 -21.825 -18.318  0.00  0.00    -0.312 N 
ATOM      3  C   UNL     1      33.356 -22.966 -15.741  0.00  0.00    +0.004 C 
ATOM      4  C   UNL     1      34.528 -23.680 -14.934  0.00  0.00    -0.049 C 
ATOM      5  C   UNL     1      32.094 -23.836 -15.720  0.00  0.00    +0.001 C 
ATOM      6  C   UNL     1      31.709 -24.195 -14.283  0.00  0.00    -0.010 C 
ATOM      7  C   UNL     1      32.891 -24.839 -13.550  0.00  0.00    -0.076 C 
ATOM      8  C   UNL     1      35.868 -22.849 -14.970  0.00  0.00    +0.007 C 
ATOM      9  C   UNL     1      33.806 -22.595 -17.145  0.00  0.00    -0.024 C 
ATOM     10  C   UNL     1      36.199 -22.444 -16.365  0.00  0.00    -0.009 C 
ATOM     11  C   UNL     1      35.172 -22.347 -17.326  0.00  0.00    +0.007 C 
ATOM     12  C   UNL     1      35.715 -21.962 -18.537  0.00  0.00    +0.048 C 
ATOM     13  C   UNL     1      32.993 -22.398 -18.269  0.00  0.00    -0.004 C 
ATOM     14  C   UNL     1      37.372 -22.112 -17.002  0.00  0.00    +0.057 C 
ATOM     15  C   UNL     1      34.918 -21.787 -19.666  0.00  0.00    +0.015 C 
ATOM     16  C   UNL     1      33.541 -22.011 -19.502  0.00  0.00    +0.001 C 
ATOM     17  H   UNL     1      33.850 -23.064 -13.137  0.00  0.00    -0.080 HD
ATOM     18  H   UNL     1      37.726 -21.559 -19.001  0.00  0.00    +0.152 HD
ENDROOT
BRANCH   1  19
ATOM     19  C   UNL     1      35.123 -24.591 -12.730  0.00  0.00    -0.077 C 
BRANCH  19  20
ATOM     20  C   UNL     1      35.456 -23.706 -11.532  0.00  0.00    -0.023 C 
ATOM     21  C   UNL     1      36.924 -23.307 -11.527  0.00  0.00    -0.002 C 
ENDBRANCH  19  20
ENDBRANCH   1  19
BRANCH   6  22
ATOM     22  C   UNL     1      30.494 -25.121 -14.267  0.00  0.00    +0.055 C 
BRANCH  22  23
ATOM     23  S   UNL     1      29.591 -24.996 -15.830  0.00  0.00    -0.139 S 
ATOM     24  C   UNL     1      28.550 -23.574 -15.426  0.00  0.00    +0.069 C 
ENDBRANCH  22  23
ENDBRANCH   6  22
TORSDOF 4
ENDMDL
MODEL 7
REMARK VINA RESULT:      -7.6      2.886      7.180
REMARK  Name = 47811
REMARK  4 active torsions:
REMARK  status: ('A' for Active; 'I' for Inactive)
REMARK    1  A    between atoms: N_1  and  C_19
REMARK    2  A    between atoms: C_6  and  C_22
REMARK    3  A    between atoms: C_19  and  C_20
REMARK    4  A    between atoms: C_22  and  S_23
REMARK                            x       y       z     vdW  Elec       q    Type
REMARK                         _______ _______ _______ _____ _____    ______ ____
ROOT
ATOM      1  N   UNL     1      33.290 -23.384 -17.144  0.00  0.00    +0.389 N 
ATOM      2  N   UNL     1      38.205 -23.962 -13.713  0.00  0.00    -0.312 N 
ATOM      3  C   UNL     1      33.665 -24.095 -14.759  0.00  0.00    +0.004 C 
ATOM      4  C   UNL     1      34.253 -23.316 -16.018  0.00  0.00    -0.049 C 
ATOM      5  C   UNL     1      32.296 -23.520 -14.375  0.00  0.00    +0.001 C 
ATOM      6  C   UNL     1      31.354 -23.516 -15.581  0.00  0.00    -0.010 C 
ATOM      7  C   UNL     1      31.994 -22.789 -16.768  0.00  0.00    -0.076 C 
ATOM      8  C   UNL     1      35.686 -23.834 -16.423  0.00  0.00    +0.007 C 
ATOM      9  C   UNL     1      34.657 -24.103 -13.609  0.00  0.00    -0.024 C 
ATOM     10  C   UNL     1      36.577 -23.901 -15.230  0.00  0.00    -0.009 C 
ATOM     11  C   UNL     1      36.015 -24.028 -13.945  0.00  0.00    +0.007 C 
ATOM     12  C   UNL     1      37.027 -24.066 -13.005  0.00  0.00    +0.048 C 
ATOM     13  C   UNL     1      34.370 -24.253 -12.245  0.00  0.00    -0.004 C 
ATOM     14  C   UNL     1      37.942 -23.865 -15.065  0.00  0.00    +0.057 C 
ATOM     15  C   UNL     1      36.750 -24.191 -11.645  0.00  0.00    +0.015 C 
ATOM     16  C   UNL     1      35.396 -24.288 -11.287  0.00  0.00    +0.001 C 
ATOM     17  H   UNL     1      33.171 -24.375 -17.351  0.00  0.00    -0.080 HD
ATOM     18  H   UNL     1      39.104 -23.958 -13.313  0.00  0.00    +0.152 HD
ENDROOT
BRANCH   1  19
ATOM     19  C   UNL     1      33.781 -22.721 -18.355  0.00  0.00    -0.077 C 
BRANCH  19  20
ATOM     20  C   UNL     1      32.762 -21.700 -18.853  0.00  0.00    -0.023 C 
ATOM     21  C   UNL     1      33.343 -20.827 -19.954  0.00  0.00    -0.002 C 
ENDBRANCH  19  20
ENDBRANCH   1  19
BRANCH   6  22
ATOM     22  C   UNL     1      30.015 -22.877 -15.214  0.00  0.00    +0.055 C 
BRANCH  22  23
ATOM     23  S   UNL     1      28.659 -23.744 -16.042  0.00  0.00    -0.139 S 
ATOM     24  C   UNL     1      27.424 -22.426 -15.989  0.00  0.00    +0.069 C 
ENDBRANCH  22  23
ENDBRANCH   6  22
TORSDOF 4
ENDMDL
MODEL 8
REMARK VINA RESULT:      -7.6      2.690      6.562
REMARK  Name = 47811
REMARK  4 active torsions:
REMARK  status: ('A' for Active; 'I' for Inactive)
REMARK    1  A    between atoms: N_1  and  C_19
REMARK    2  A    between atoms: C_6  and  C_22
REMARK    3  A    between atoms: C_19  and  C_20
REMARK    4  A    between atoms: C_22  and  S_23
REMARK                            x       y       z     vdW  Elec       q    Type
REMARK                         _______ _______ _______ _____ _____    ______ ____
ROOT
ATOM      1  N   UNL     1      32.435 -23.165 -15.459  0.00  0.00    +0.389 N 
ATOM      2  N   UNL     1      36.792 -25.122 -11.792  0.00  0.00    -0.312 N 
ATOM      3  C   UNL     1      34.948 -23.066 -15.546  0.00  0.00    +0.004 C 
ATOM      4  C   UNL     1      33.672 -23.789 -14.927  0.00  0.00    -0.049 C 
ATOM      5  C   UNL     1      34.895 -23.121 -17.078  0.00  0.00    +0.001 C 
ATOM      6  C   UNL     1      33.569 -22.557 -17.593  0.00  0.00    -0.010 C 
ATOM      7  C   UNL     1      32.383 -23.265 -16.929  0.00  0.00    -0.076 C 
ATOM      8  C   UNL     1      33.703 -23.807 -13.350  0.00  0.00    +0.007 C 
ATOM      9  C   UNL     1      36.233 -23.636 -14.970  0.00  0.00    -0.024 C 
ATOM     10  C   UNL     1      35.023 -24.292 -12.857  0.00  0.00    -0.009 C 
ATOM     11  C   UNL     1      36.162 -24.174 -13.678  0.00  0.00    +0.007 C 
ATOM     12  C   UNL     1      37.259 -24.690 -13.015  0.00  0.00    +0.048 C 
ATOM     13  C   UNL     1      37.505 -23.618 -15.557  0.00  0.00    -0.004 C 
ATOM     14  C   UNL     1      35.437 -24.882 -11.685  0.00  0.00    +0.057 C 
ATOM     15  C   UNL     1      38.523 -24.697 -13.600  0.00  0.00    +0.015 C 
ATOM     16  C   UNL     1      38.621 -24.144 -14.887  0.00  0.00    +0.001 C 
ATOM     17  H   UNL     1      32.473 -22.186 -15.177  0.00  0.00    -0.080 HD
ATOM     18  H   UNL     1      37.346 -25.541 -11.094  0.00  0.00    +0.152 HD
ENDROOT
BRANCH   1  19
ATOM     19  C   UNL     1      31.214 -23.753 -14.901  0.00  0.00    -0.077 C 
BRANCH  19  20
ATOM     20  C   UNL     1      30.032 -22.808 -15.097  0.00  0.00    -0.023 C 
ATOM     21  C   UNL     1      28.831 -23.535 -15.682  0.00  0.00    -0.002 C 
ENDBRANCH  19  20
ENDBRANCH   1  19
BRANCH   6  22
ATOM     22  C   UNL     1      33.488 -22.678 -19.114  0.00  0.00    +0.055 C 
BRANCH  22  23
ATOM     23  S   UNL     1      33.492 -21.036 -19.875  0.00  0.00    -0.139 S 
ATOM     24  C   UNL     1      35.277 -20.840 -20.080  0.00  0.00    +0.069 C 
ENDBRANCH  22  23
ENDBRANCH   6  22
TORSDOF 4
ENDMDL
MODEL 9
REMARK VINA RESULT:      -7.6      9.018     12.692
REMARK  Name = 47811
REMARK  4 active torsions:
REMARK  status: ('A' for Active; 'I' for Inactive)
REMARK    1  A    between atoms: N_1  and  C_19
REMARK    2  A    between atoms: C_6  and  C_22
REMARK    3  A    between atoms: C_19  and  C_20
REMARK    4  A    between atoms: C_22  and  S_23
REMARK                            x       y       z     vdW  Elec       q    Type
REMARK                         _______ _______ _______ _____ _____    ______ ____
ROOT
ATOM      1  N   UNL     1      32.747 -10.142 -23.460  0.00  0.00    +0.389 N 
ATOM      2  N   UNL     1      34.255 -15.971 -23.561  0.00  0.00    -0.312 N 
ATOM      3  C   UNL     1      32.160 -12.110 -22.005  0.00  0.00    +0.004 C 
ATOM      4  C   UNL     1      33.181 -11.505 -23.066  0.00  0.00    -0.049 C 
ATOM      5  C   UNL     1      32.042 -11.177 -20.794  0.00  0.00    +0.001 C 
ATOM      6  C   UNL     1      31.685  -9.757 -21.239  0.00  0.00    -0.010 C 
ATOM      7  C   UNL     1      32.681  -9.250 -22.288  0.00  0.00    -0.076 C 
ATOM      8  C   UNL     1      33.380 -12.453 -24.310  0.00  0.00    +0.007 C 
ATOM      9  C   UNL     1      32.538 -13.533 -21.631  0.00  0.00    -0.024 C 
ATOM     10  C   UNL     1      33.658 -13.849 -23.868  0.00  0.00    -0.009 C 
ATOM     11  C   UNL     1      33.229 -14.277 -22.597  0.00  0.00    +0.007 C 
ATOM     12  C   UNL     1      33.600 -15.595 -22.409  0.00  0.00    +0.048 C 
ATOM     13  C   UNL     1      32.207 -14.215 -20.452  0.00  0.00    -0.004 C 
ATOM     14  C   UNL     1      34.293 -14.919 -24.455  0.00  0.00    +0.057 C 
ATOM     15  C   UNL     1      33.296 -16.274 -21.230  0.00  0.00    +0.015 C 
ATOM     16  C   UNL     1      32.586 -15.552 -20.257  0.00  0.00    +0.001 C 
ATOM     17  H   UNL     1      31.819 -10.252 -23.868  0.00  0.00    -0.080 HD
ATOM     18  H   UNL     1      34.641 -16.862 -23.725  0.00  0.00    +0.152 HD
ENDROOT
BRANCH   1  19
ATOM     19  C   UNL     1      33.619  -9.534 -24.468  0.00  0.00    -0.077 C 
BRANCH  19  20
ATOM     20  C   UNL     1      34.576  -8.541 -23.814  0.00  0.00    -0.023 C 
ATOM     21  C   UNL     1      34.498  -7.176 -24.479  0.00  0.00    -0.002 C 
ENDBRANCH  19  20
ENDBRANCH   1  19
BRANCH   6  22
ATOM     22  C   UNL     1      31.638  -8.813 -20.037  0.00  0.00    +0.055 C 
BRANCH  22  23
ATOM     23  S   UNL     1      32.739  -7.402 -20.307  0.00  0.00    -0.139 S 
ATOM     24  C   UNL     1      31.534  -6.251 -21.009  0.00  0.00    +0.069 C 
ENDBRANCH  22  23
ENDBRANCH   6  22
TORSDOF 4
ENDMDL
