MODEL 1
REMARK VINA RESULT:      -7.7      0.000      0.000
REMARK  Name = 65124
REMARK  7 active torsions:
REMARK  status: ('A' for Active; 'I' for Inactive)
REMARK    1  A    between atoms: C_1  and  C_12
REMARK    2  A    between atoms: C_4  and  N_9
REMARK    3  A    between atoms: C_6  and  O_10
REMARK    4  A    between atoms: C_12  and  CA_13
REMARK    5  A    between atoms: CA_13  and  N_14
REMARK    6  A    between atoms: CA_13  and  C_19
REMARK    7  A    between atoms: C_19  and  O_20
REMARK                            x       y       z     vdW  Elec       q    Type
REMARK                         _______ _______ _______ _____ _____    ______ ____
ROOT
ATOM      1  C   UNL     1      34.881 -19.226 -21.216  0.00  0.00    -0.022 C 
ATOM      2  C   UNL     1      34.022 -20.190 -20.715  0.00  0.00    +0.023 C 
ATOM      3  C   UNL     1      36.225 -19.210 -20.881  0.00  0.00    -0.001 C 
ATOM      4  C   UNL     1      34.522 -21.166 -19.852  0.00  0.00    +0.176 C 
ATOM      5  C   UNL     1      36.724 -20.186 -20.019  0.00  0.00    +0.038 C 
ATOM      6  C   UNL     1      35.872 -21.163 -19.504  0.00  0.00    +0.156 C 
ENDROOT
BRANCH   4   9
ATOM      7  O   UNL     1      33.976 -23.361 -19.404  0.00  0.00    -0.126 OA
ATOM      8  O   UNL     1      32.550 -21.791 -18.833  0.00  0.00    -0.126 OA
ATOM      9  N   UNL     1      33.639 -22.155 -19.338  0.00  0.00    +0.061 N 
ENDBRANCH   4   9
BRANCH   6  10
ATOM     10  O   UNL     1      36.384 -22.105 -18.660  0.00  0.00    -0.504 OA
ATOM     11  H   UNL     1      37.267 -22.398 -18.767  0.00  0.00    +0.292 HD
ENDBRANCH   6  10
BRANCH   1  12
ATOM     12  C   UNL     1      34.342 -18.168 -22.151  0.00  0.00    +0.015 C 
BRANCH  12  13
ATOM     13  CA  UNL     1      35.283 -17.877 -23.330  0.00  0.00    +0.040 C 
BRANCH  13  14
ATOM     14  N   UNL     1      35.484 -16.435 -23.458  0.00  0.00    +0.389 N 
ATOM     15  H1  UNL     1      34.603 -15.952 -23.279  0.00  0.00    -0.088 HD
ATOM     16  H2  UNL     1      35.803 -16.219 -24.402  0.00  0.00    -0.088 HD
ATOM     17  H3  UNL     1      36.184 -16.128 -22.783  0.00  0.00    -0.088 HD
ENDBRANCH  13  14
BRANCH  13  19
ATOM     18  OXT UNL     1      34.338 -17.620 -25.560  0.00  0.00    -0.253 OA
ATOM     19  C   UNL     1      34.708 -18.354 -24.653  0.00  0.00    +0.293 C 
BRANCH  19  20
ATOM     20  O   UNL     1      34.677 -19.709 -24.744  0.00  0.00    -0.482 OA
ATOM     21  H   UNL     1      33.855 -20.155 -24.821  0.00  0.00    +0.295 HD
ENDBRANCH  19  20
ENDBRANCH  13  19
ENDBRANCH  12  13
ENDBRANCH   1  12
TORSDOF 7
ENDMDL
MODEL 2
REMARK VINA RESULT:      -7.6      1.580      2.536
REMARK  Name = 65124
REMARK  7 active torsions:
REMARK  status: ('A' for Active; 'I' for Inactive)
REMARK    1  A    between atoms: C_1  and  C_12
REMARK    2  A    between atoms: C_4  and  N_9
REMARK    3  A    between atoms: C_6  and  O_10
REMARK    4  A    between atoms: C_12  and  CA_13
REMARK    5  A    between atoms: CA_13  and  N_14
REMARK    6  A    between atoms: CA_13  and  C_19
REMARK    7  A    between atoms: C_19  and  O_20
REMARK                            x       y       z     vdW  Elec       q    Type
REMARK                         _______ _______ _______ _____ _____    ______ ____
ROOT
ATOM      1  C   UNL     1      34.765 -19.382 -21.623  0.00  0.00    -0.022 C 
ATOM      2  C   UNL     1      35.508 -20.123 -20.719  0.00  0.00    +0.023 C 
ATOM      3  C   UNL     1      33.379 -19.395 -21.602  0.00  0.00    -0.001 C 
ATOM      4  C   UNL     1      34.847 -20.899 -19.766  0.00  0.00    +0.176 C 
ATOM      5  C   UNL     1      32.719 -20.170 -20.650  0.00  0.00    +0.038 C 
ATOM      6  C   UNL     1      33.452 -20.923 -19.732  0.00  0.00    +0.156 C 
ENDROOT
BRANCH   4   9
ATOM      7  O   UNL     1      35.213 -22.803 -18.519  0.00  0.00    -0.126 OA
ATOM      8  O   UNL     1      36.661 -21.161 -18.368  0.00  0.00    -0.126 OA
ATOM      9  N   UNL     1      35.611 -21.659 -18.838  0.00  0.00    +0.061 N 
ENDBRANCH   4   9
BRANCH   6  10
ATOM     10  O   UNL     1      32.783 -21.676 -18.813  0.00  0.00    -0.504 OA
ATOM     11  H   UNL     1      32.214 -21.262 -18.195  0.00  0.00    +0.292 HD
ENDBRANCH   6  10
BRANCH   1  12
ATOM     12  C   UNL     1      35.479 -18.541 -22.655  0.00  0.00    +0.015 C 
BRANCH  12  13
ATOM     13  CA  UNL     1      34.619 -18.260 -23.896  0.00  0.00    +0.040 C 
BRANCH  13  14
ATOM     14  N   UNL     1      34.792 -19.333 -24.872  0.00  0.00    +0.389 N 
ATOM     15  H1  UNL     1      34.271 -19.108 -25.721  0.00  0.00    -0.088 HD
ATOM     16  H2  UNL     1      34.441 -20.208 -24.481  0.00  0.00    -0.088 HD
ATOM     17  H3  UNL     1      35.781 -19.433 -25.097  0.00  0.00    -0.088 HD
ENDBRANCH  13  14
BRANCH  13  19
ATOM     18  OXT UNL     1      34.802 -16.713 -25.769  0.00  0.00    -0.253 OA
ATOM     19  C   UNL     1      35.022 -16.971 -24.592  0.00  0.00    +0.293 C 
BRANCH  19  20
ATOM     20  O   UNL     1      35.635 -16.099 -23.750  0.00  0.00    -0.482 OA
ATOM     21  H   UNL     1      36.566 -16.128 -23.641  0.00  0.00    +0.295 HD
ENDBRANCH  19  20
ENDBRANCH  13  19
ENDBRANCH  12  13
ENDBRANCH   1  12
TORSDOF 7
ENDMDL
MODEL 3
REMARK VINA RESULT:      -7.5      1.980      2.919
REMARK  Name = 65124
REMARK  7 active torsions:
REMARK  status: ('A' for Active; 'I' for Inactive)
REMARK    1  A    between atoms: C_1  and  C_12
REMARK    2  A    between atoms: C_4  and  N_9
REMARK    3  A    between atoms: C_6  and  O_10
REMARK    4  A    between atoms: C_12  and  CA_13
REMARK    5  A    between atoms: CA_13  and  N_14
REMARK    6  A    between atoms: CA_13  and  C_19
REMARK    7  A    between atoms: C_19  and  O_20
REMARK                            x       y       z     vdW  Elec       q    Type
REMARK                         _______ _______ _______ _____ _____    ______ ____
ROOT
ATOM      1  C   UNL     1      34.970 -19.445 -21.199  0.00  0.00    -0.022 C 
ATOM      2  C   UNL     1      35.640 -20.266 -20.306  0.00  0.00    +0.023 C 
ATOM      3  C   UNL     1      33.592 -19.497 -21.336  0.00  0.00    -0.001 C 
ATOM      4  C   UNL     1      34.910 -21.165 -19.528  0.00  0.00    +0.176 C 
ATOM      5  C   UNL     1      32.864 -20.396 -20.558  0.00  0.00    +0.038 C 
ATOM      6  C   UNL     1      33.522 -21.231 -19.654  0.00  0.00    +0.156 C 
ENDROOT
BRANCH   4   9
ATOM      7  O   UNL     1      36.821 -21.814 -18.414  0.00  0.00    -0.126 OA
ATOM      8  O   UNL     1      34.962 -22.916 -18.029  0.00  0.00    -0.126 OA
ATOM      9  N   UNL     1      35.599 -22.007 -18.612  0.00  0.00    +0.061 N 
ENDBRANCH   4   9
BRANCH   6  10
ATOM     10  O   UNL     1      32.788 -22.103 -18.907  0.00  0.00    -0.504 OA
ATOM     11  H   UNL     1      32.154 -22.655 -19.321  0.00  0.00    +0.292 HD
ENDBRANCH   6  10
BRANCH   1  12
ATOM     12  C   UNL     1      35.759 -18.470 -22.042  0.00  0.00    +0.015 C 
BRANCH  12  13
ATOM     13  CA  UNL     1      34.875 -17.400 -22.701  0.00  0.00    +0.040 C 
BRANCH  13  14
ATOM     14  N   UNL     1      35.354 -17.127 -24.055  0.00  0.00    +0.389 N 
ATOM     15  H1  UNL     1      35.066 -16.190 -24.335  0.00  0.00    -0.088 HD
ATOM     16  H2  UNL     1      34.957 -17.811 -24.699  0.00  0.00    -0.088 HD
ATOM     17  H3  UNL     1      36.372 -17.191 -24.075  0.00  0.00    -0.088 HD
ENDBRANCH  13  14
BRANCH  13  19
ATOM     18  OXT UNL     1      34.987 -15.968 -20.734  0.00  0.00    -0.253 OA
ATOM     19  C   UNL     1      34.920 -16.079 -21.951  0.00  0.00    +0.293 C 
BRANCH  19  20
ATOM     20  O   UNL     1      34.913 -15.009 -22.788  0.00  0.00    -0.482 OA
ATOM     21  H   UNL     1      34.192 -14.876 -23.373  0.00  0.00    +0.295 HD
ENDBRANCH  19  20
ENDBRANCH  13  19
ENDBRANCH  12  13
ENDBRANCH   1  12
TORSDOF 7
ENDMDL
MODEL 4
REMARK VINA RESULT:      -7.5      1.360      1.761
REMARK  Name = 65124
REMARK  7 active torsions:
REMARK  status: ('A' for Active; 'I' for Inactive)
REMARK    1  A    between atoms: C_1  and  C_12
REMARK    2  A    between atoms: C_4  and  N_9
REMARK    3  A    between atoms: C_6  and  O_10
REMARK    4  A    between atoms: C_12  and  CA_13
REMARK    5  A    between atoms: CA_13  and  N_14
REMARK    6  A    between atoms: CA_13  and  C_19
REMARK    7  A    between atoms: C_19  and  O_20
REMARK                            x       y       z     vdW  Elec       q    Type
REMARK                         _______ _______ _______ _____ _____    ______ ____
ROOT
ATOM      1  C   UNL     1      35.003 -19.498 -21.205  0.00  0.00    -0.022 C 
ATOM      2  C   UNL     1      34.089 -20.402 -20.689  0.00  0.00    +0.023 C 
ATOM      3  C   UNL     1      36.321 -19.480 -20.779  0.00  0.00    -0.001 C 
ATOM      4  C   UNL     1      34.506 -21.315 -19.720  0.00  0.00    +0.176 C 
ATOM      5  C   UNL     1      36.737 -20.393 -19.811  0.00  0.00    +0.038 C 
ATOM      6  C   UNL     1      35.829 -21.310 -19.280  0.00  0.00    +0.156 C 
ENDROOT
BRANCH   4   9
ATOM      7  O   UNL     1      32.494 -21.811 -18.708  0.00  0.00    -0.126 OA
ATOM      8  O   UNL     1      33.838 -23.467 -19.228  0.00  0.00    -0.126 OA
ATOM      9  N   UNL     1      33.566 -22.243 -19.192  0.00  0.00    +0.061 N 
ENDBRANCH   4   9
BRANCH   6  10
ATOM     10  O   UNL     1      36.260 -22.191 -18.332  0.00  0.00    -0.504 OA
ATOM     11  H   UNL     1      36.033 -22.058 -17.433  0.00  0.00    +0.292 HD
ENDBRANCH   6  10
BRANCH   1  12
ATOM     12  C   UNL     1      34.554 -18.508 -22.255  0.00  0.00    +0.015 C 
BRANCH  12  13
ATOM     13  CA  UNL     1      34.952 -17.062 -21.923  0.00  0.00    +0.040 C 
BRANCH  13  14
ATOM     14  N   UNL     1      33.922 -16.443 -21.092  0.00  0.00    +0.389 N 
ATOM     15  H1  UNL     1      33.111 -17.060 -21.039  0.00  0.00    -0.088 HD
ATOM     16  H2  UNL     1      33.644 -15.552 -21.503  0.00  0.00    -0.088 HD
ATOM     17  H3  UNL     1      34.291 -16.284 -20.154  0.00  0.00    -0.088 HD
ENDBRANCH  13  14
BRANCH  13  19
ATOM     18  OXT UNL     1      34.903 -14.992 -23.204  0.00  0.00    -0.253 OA
ATOM     19  C   UNL     1      35.080 -16.203 -23.169  0.00  0.00    +0.293 C 
BRANCH  19  20
ATOM     20  O   UNL     1      35.450 -16.924 -24.259  0.00  0.00    -0.482 OA
ATOM     21  H   UNL     1      35.697 -16.485 -25.050  0.00  0.00    +0.295 HD
ENDBRANCH  19  20
ENDBRANCH  13  19
ENDBRANCH  12  13
ENDBRANCH   1  12
TORSDOF 7
ENDMDL
MODEL 5
REMARK VINA RESULT:      -7.5      2.349      5.872
REMARK  Name = 65124
REMARK  7 active torsions:
REMARK  status: ('A' for Active; 'I' for Inactive)
REMARK    1  A    between atoms: C_1  and  C_12
REMARK    2  A    between atoms: C_4  and  N_9
REMARK    3  A    between atoms: C_6  and  O_10
REMARK    4  A    between atoms: C_12  and  CA_13
REMARK    5  A    between atoms: CA_13  and  N_14
REMARK    6  A    between atoms: CA_13  and  C_19
REMARK    7  A    between atoms: C_19  and  O_20
REMARK                            x       y       z     vdW  Elec       q    Type
REMARK                         _______ _______ _______ _____ _____    ______ ____
ROOT
ATOM      1  C   UNL     1      34.099 -19.152 -21.652  0.00  0.00    -0.022 C 
ATOM      2  C   UNL     1      34.101 -17.879 -21.106  0.00  0.00    +0.023 C 
ATOM      3  C   UNL     1      34.649 -19.406 -22.898  0.00  0.00    -0.001 C 
ATOM      4  C   UNL     1      34.670 -16.829 -21.828  0.00  0.00    +0.176 C 
ATOM      5  C   UNL     1      35.217 -18.356 -23.619  0.00  0.00    +0.038 C 
ATOM      6  C   UNL     1      35.227 -17.067 -23.084  0.00  0.00    +0.156 C 
ENDROOT
BRANCH   4   9
ATOM      7  O   UNL     1      34.929 -15.388 -20.047  0.00  0.00    -0.126 OA
ATOM      8  O   UNL     1      34.416 -14.544 -22.008  0.00  0.00    -0.126 OA
ATOM      9  N   UNL     1      34.672 -15.523 -21.266  0.00  0.00    +0.061 N 
ENDBRANCH   4   9
BRANCH   6  10
ATOM     10  O   UNL     1      35.786 -16.057 -23.810  0.00  0.00    -0.504 OA
ATOM     11  H   UNL     1      36.360 -16.256 -24.523  0.00  0.00    +0.292 HD
ENDBRANCH   6  10
BRANCH   1  12
ATOM     12  C   UNL     1      33.483 -20.291 -20.872  0.00  0.00    +0.015 C 
BRANCH  12  13
ATOM     13  CA  UNL     1      34.403 -20.820 -19.761  0.00  0.00    +0.040 C 
BRANCH  13  14
ATOM     14  N   UNL     1      35.730 -21.096 -20.306  0.00  0.00    +0.389 N 
ATOM     15  H1  UNL     1      35.769 -22.061 -20.635  0.00  0.00    -0.088 HD
ATOM     16  H2  UNL     1      36.432 -20.957 -19.579  0.00  0.00    -0.088 HD
ATOM     17  H3  UNL     1      35.917 -20.464 -21.085  0.00  0.00    -0.088 HD
ENDBRANCH  13  14
BRANCH  13  19
ATOM     18  OXT UNL     1      34.579 -23.126 -18.999  0.00  0.00    -0.253 OA
ATOM     19  C   UNL     1      33.896 -22.124 -19.170  0.00  0.00    +0.293 C 
BRANCH  19  20
ATOM     20  O   UNL     1      32.588 -22.055 -18.812  0.00  0.00    -0.482 OA
ATOM     21  H   UNL     1      32.172 -22.795 -18.412  0.00  0.00    +0.295 HD
ENDBRANCH  19  20
ENDBRANCH  13  19
ENDBRANCH  12  13
ENDBRANCH   1  12
TORSDOF 7
ENDMDL
MODEL 6
REMARK VINA RESULT:      -7.4      5.861      8.091
REMARK  Name = 65124
REMARK  7 active torsions:
REMARK  status: ('A' for Active; 'I' for Inactive)
REMARK    1  A    between atoms: C_1  and  C_12
REMARK    2  A    between atoms: C_4  and  N_9
REMARK    3  A    between atoms: C_6  and  O_10
REMARK    4  A    between atoms: C_12  and  CA_13
REMARK    5  A    between atoms: CA_13  and  N_14
REMARK    6  A    between atoms: CA_13  and  C_19
REMARK    7  A    between atoms: C_19  and  O_20
REMARK                            x       y       z     vdW  Elec       q    Type
REMARK                         _______ _______ _______ _____ _____    ______ ____
ROOT
ATOM      1  C   UNL     1      31.220 -22.948 -15.409  0.00  0.00    -0.022 C 
ATOM      2  C   UNL     1      31.573 -22.819 -16.742  0.00  0.00    +0.023 C 
ATOM      3  C   UNL     1      32.148 -23.312 -14.447  0.00  0.00    -0.001 C 
ATOM      4  C   UNL     1      32.893 -23.061 -17.124  0.00  0.00    +0.176 C 
ATOM      5  C   UNL     1      33.467 -23.553 -14.829  0.00  0.00    +0.038 C 
ATOM      6  C   UNL     1      33.840 -23.428 -16.168  0.00  0.00    +0.156 C 
ENDROOT
BRANCH   4   9
ATOM      7  O   UNL     1      32.891 -21.904 -19.118  0.00  0.00    -0.126 OA
ATOM      8  O   UNL     1      33.927 -23.837 -19.033  0.00  0.00    -0.126 OA
ATOM      9  N   UNL     1      33.255 -22.927 -18.493  0.00  0.00    +0.061 N 
ENDBRANCH   4   9
BRANCH   6  10
ATOM     10  O   UNL     1      35.135 -23.672 -16.517  0.00  0.00    -0.504 OA
ATOM     11  H   UNL     1      35.833 -23.323 -15.998  0.00  0.00    +0.292 HD
ENDBRANCH   6  10
BRANCH   1  12
ATOM     12  C   UNL     1      29.791 -22.686 -14.993  0.00  0.00    +0.015 C 
BRANCH  12  13
ATOM     13  CA  UNL     1      28.807 -23.728 -15.547  0.00  0.00    +0.040 C 
BRANCH  13  14
ATOM     14  N   UNL     1      29.524 -24.957 -15.883  0.00  0.00    +0.389 N 
ATOM     15  H1  UNL     1      28.911 -25.573 -16.418  0.00  0.00    -0.088 HD
ATOM     16  H2  UNL     1      29.811 -25.427 -15.024  0.00  0.00    -0.088 HD
ATOM     17  H3  UNL     1      30.348 -24.729 -16.439  0.00  0.00    -0.088 HD
ENDBRANCH  13  14
BRANCH  13  19
ATOM     18  OXT UNL     1      27.662 -23.995 -17.680  0.00  0.00    -0.253 OA
ATOM     19  C   UNL     1      28.133 -23.257 -16.824  0.00  0.00    +0.293 C 
BRANCH  19  20
ATOM     20  O   UNL     1      28.074 -21.902 -16.908  0.00  0.00    -0.482 OA
ATOM     21  H   UNL     1      28.589 -21.449 -17.548  0.00  0.00    +0.295 HD
ENDBRANCH  19  20
ENDBRANCH  13  19
ENDBRANCH  12  13
ENDBRANCH   1  12
TORSDOF 7
ENDMDL
MODEL 7
REMARK VINA RESULT:      -7.3      1.919      6.147
REMARK  Name = 65124
REMARK  7 active torsions:
REMARK  status: ('A' for Active; 'I' for Inactive)
REMARK    1  A    between atoms: C_1  and  C_12
REMARK    2  A    between atoms: C_4  and  N_9
REMARK    3  A    between atoms: C_6  and  O_10
REMARK    4  A    between atoms: C_12  and  CA_13
REMARK    5  A    between atoms: CA_13  and  N_14
REMARK    6  A    between atoms: CA_13  and  C_19
REMARK    7  A    between atoms: C_19  and  O_20
REMARK                            x       y       z     vdW  Elec       q    Type
REMARK                         _______ _______ _______ _____ _____    ______ ____
ROOT
ATOM      1  C   UNL     1      34.853 -18.454 -22.068  0.00  0.00    -0.022 C 
ATOM      2  C   UNL     1      34.629 -18.036 -23.370  0.00  0.00    +0.023 C 
ATOM      3  C   UNL     1      34.965 -17.546 -21.027  0.00  0.00    -0.001 C 
ATOM      4  C   UNL     1      34.514 -16.672 -23.638  0.00  0.00    +0.176 C 
ATOM      5  C   UNL     1      34.850 -16.183 -21.296  0.00  0.00    +0.038 C 
ATOM      6  C   UNL     1      34.625 -15.745 -22.601  0.00  0.00    +0.156 C 
ENDROOT
BRANCH   4   9
ATOM      7  O   UNL     1      33.440 -15.341 -25.185  0.00  0.00    -0.126 OA
ATOM      8  O   UNL     1      34.931 -16.784 -25.903  0.00  0.00    -0.126 OA
ATOM      9  N   UNL     1      34.283 -16.245 -24.975  0.00  0.00    +0.061 N 
ENDBRANCH   4   9
BRANCH   6  10
ATOM     10  O   UNL     1      34.519 -14.407 -22.839  0.00  0.00    -0.504 OA
ATOM     11  H   UNL     1      34.846 -14.046 -23.639  0.00  0.00    +0.292 HD
ENDBRANCH   6  10
BRANCH   1  12
ATOM     12  C   UNL     1      34.977 -19.931 -21.776  0.00  0.00    +0.015 C 
BRANCH  12  13
ATOM     13  CA  UNL     1      34.714 -20.272 -20.301  0.00  0.00    +0.040 C 
BRANCH  13  14
ATOM     14  N   UNL     1      35.672 -21.277 -19.847  0.00  0.00    +0.389 N 
ATOM     15  H1  UNL     1      36.618 -20.977 -20.086  0.00  0.00    -0.088 HD
ATOM     16  H2  UNL     1      35.473 -22.168 -20.303  0.00  0.00    -0.088 HD
ATOM     17  H3  UNL     1      35.596 -21.388 -18.836  0.00  0.00    -0.088 HD
ENDBRANCH  13  14
BRANCH  13  19
ATOM     18  OXT UNL     1      33.108 -22.030 -19.786  0.00  0.00    -0.253 OA
ATOM     19  C   UNL     1      33.331 -20.864 -20.089  0.00  0.00    +0.293 C 
BRANCH  19  20
ATOM     20  O   UNL     1      32.345 -19.942 -20.240  0.00  0.00    -0.482 OA
ATOM     21  H   UNL     1      32.161 -19.335 -19.549  0.00  0.00    +0.295 HD
ENDBRANCH  19  20
ENDBRANCH  13  19
ENDBRANCH  12  13
ENDBRANCH   1  12
TORSDOF 7
ENDMDL
MODEL 8
REMARK VINA RESULT:      -7.3      5.836      8.603
REMARK  Name = 65124
REMARK  7 active torsions:
REMARK  status: ('A' for Active; 'I' for Inactive)
REMARK    1  A    between atoms: C_1  and  C_12
REMARK    2  A    between atoms: C_4  and  N_9
REMARK    3  A    between atoms: C_6  and  O_10
REMARK    4  A    between atoms: C_12  and  CA_13
REMARK    5  A    between atoms: CA_13  and  N_14
REMARK    6  A    between atoms: CA_13  and  C_19
REMARK    7  A    between atoms: C_19  and  O_20
REMARK                            x       y       z     vdW  Elec       q    Type
REMARK                         _______ _______ _______ _____ _____    ______ ____
ROOT
ATOM      1  C   UNL     1      34.225 -23.838 -15.053  0.00  0.00    -0.022 C 
ATOM      2  C   UNL     1      34.331 -23.524 -16.398  0.00  0.00    +0.023 C 
ATOM      3  C   UNL     1      33.015 -23.749 -14.383  0.00  0.00    -0.001 C 
ATOM      4  C   UNL     1      33.195 -23.108 -17.093  0.00  0.00    +0.176 C 
ATOM      5  C   UNL     1      31.881 -23.333 -15.078  0.00  0.00    +0.038 C 
ATOM      6  C   UNL     1      31.970 -23.012 -16.432  0.00  0.00    +0.156 C 
ENDROOT
BRANCH   4   9
ATOM      7  O   UNL     1      33.893 -23.587 -19.237  0.00  0.00    -0.126 OA
ATOM      8  O   UNL     1      32.811 -21.709 -18.886  0.00  0.00    -0.126 OA
ATOM      9  N   UNL     1      33.305 -22.785 -18.474  0.00  0.00    +0.061 N 
ENDBRANCH   4   9
BRANCH   6  10
ATOM     10  O   UNL     1      30.846 -22.605 -17.089  0.00  0.00    -0.504 OA
ATOM     11  H   UNL     1      30.671 -21.691 -17.194  0.00  0.00    +0.292 HD
ENDBRANCH   6  10
BRANCH   1  12
ATOM     12  C   UNL     1      35.454 -24.290 -14.300  0.00  0.00    +0.015 C 
BRANCH  12  13
ATOM     13  CA  UNL     1      36.370 -25.196 -15.137  0.00  0.00    +0.040 C 
BRANCH  13  14
ATOM     14  N   UNL     1      36.019 -26.597 -14.913  0.00  0.00    +0.389 N 
ATOM     15  H1  UNL     1      35.046 -26.751 -15.180  0.00  0.00    -0.088 HD
ATOM     16  H2  UNL     1      36.139 -26.823 -13.925  0.00  0.00    -0.088 HD
ATOM     17  H3  UNL     1      36.625 -27.194 -15.475  0.00  0.00    -0.088 HD
ENDBRANCH  13  14
BRANCH  13  19
ATOM     18  OXT UNL     1      38.269 -24.198 -13.986  0.00  0.00    -0.253 OA
ATOM     19  C   UNL     1      37.831 -25.047 -14.751  0.00  0.00    +0.293 C 
BRANCH  19  20
ATOM     20  O   UNL     1      38.617 -25.994 -15.327  0.00  0.00    -0.482 OA
ATOM     21  H   UNL     1      38.655 -26.857 -14.962  0.00  0.00    +0.295 HD
ENDBRANCH  19  20
ENDBRANCH  13  19
ENDBRANCH  12  13
ENDBRANCH   1  12
TORSDOF 7
ENDMDL
MODEL 9
REMARK VINA RESULT:      -7.2      2.288      6.586
REMARK  Name = 65124
REMARK  7 active torsions:
REMARK  status: ('A' for Active; 'I' for Inactive)
REMARK    1  A    between atoms: C_1  and  C_12
REMARK    2  A    between atoms: C_4  and  N_9
REMARK    3  A    between atoms: C_6  and  O_10
REMARK    4  A    between atoms: C_12  and  CA_13
REMARK    5  A    between atoms: CA_13  and  N_14
REMARK    6  A    between atoms: CA_13  and  C_19
REMARK    7  A    between atoms: C_19  and  O_20
REMARK                            x       y       z     vdW  Elec       q    Type
REMARK                         _______ _______ _______ _____ _____    ______ ____
ROOT
ATOM      1  C   UNL     1      34.876 -17.653 -22.625  0.00  0.00    -0.022 C 
ATOM      2  C   UNL     1      34.448 -16.336 -22.640  0.00  0.00    +0.023 C 
ATOM      3  C   UNL     1      34.981 -18.393 -23.792  0.00  0.00    -0.001 C 
ATOM      4  C   UNL     1      34.114 -15.741 -23.857  0.00  0.00    +0.176 C 
ATOM      5  C   UNL     1      34.648 -17.798 -25.008  0.00  0.00    +0.038 C 
ATOM      6  C   UNL     1      34.214 -16.472 -25.041  0.00  0.00    +0.156 C 
ENDROOT
BRANCH   4   9
ATOM      7  O   UNL     1      32.742 -14.063 -24.642  0.00  0.00    -0.126 OA
ATOM      8  O   UNL     1      34.234 -13.563 -23.111  0.00  0.00    -0.126 OA
ATOM      9  N   UNL     1      33.675 -14.389 -23.871  0.00  0.00    +0.061 N 
ENDBRANCH   4   9
BRANCH   6  10
ATOM     10  O   UNL     1      33.892 -15.914 -26.243  0.00  0.00    -0.504 OA
ATOM     11  H   UNL     1      34.073 -16.376 -27.037  0.00  0.00    +0.292 HD
ENDBRANCH   6  10
BRANCH   1  12
ATOM     12  C   UNL     1      35.237 -18.299 -21.307  0.00  0.00    +0.015 C 
BRANCH  12  13
ATOM     13  CA  UNL     1      34.798 -19.769 -21.222  0.00  0.00    +0.040 C 
BRANCH  13  14
ATOM     14  N   UNL     1      33.418 -19.846 -20.748  0.00  0.00    +0.389 N 
ATOM     15  H1  UNL     1      33.355 -19.437 -19.815  0.00  0.00    -0.088 HD
ATOM     16  H2  UNL     1      33.126 -20.823 -20.709  0.00  0.00    -0.088 HD
ATOM     17  H3  UNL     1      32.809 -19.334 -21.386  0.00  0.00    -0.088 HD
ENDBRANCH  13  14
BRANCH  13  19
ATOM     18  OXT UNL     1      35.399 -21.706 -19.874  0.00  0.00    -0.253 OA
ATOM     19  C   UNL     1      35.640 -20.562 -20.238  0.00  0.00    +0.293 C 
BRANCH  19  20
ATOM     20  O   UNL     1      36.731 -19.871 -19.816  0.00  0.00    -0.482 OA
ATOM     21  H   UNL     1      37.508 -19.856 -20.341  0.00  0.00    +0.295 HD
ENDBRANCH  19  20
ENDBRANCH  13  19
ENDBRANCH  12  13
ENDBRANCH   1  12
TORSDOF 7
ENDMDL
