MODEL 1
REMARK VINA RESULT:      -9.9      0.000      0.000
REMARK  Name = 493570
REMARK  9 active torsions:
REMARK  status: ('A' for Active; 'I' for Inactive)
REMARK    1  A    between atoms: N_3  and  C_20
REMARK    2  A    between atoms: C_20  and  C_21
REMARK    3  A    between atoms: C_21  and  O_22
REMARK    4  A    between atoms: C_21  and  C_24
REMARK    5  A    between atoms: C_24  and  O_25
REMARK    6  A    between atoms: C_24  and  C_27
REMARK    7  A    between atoms: C_27  and  O_28
REMARK    8  A    between atoms: C_27  and  C_30
REMARK    9  A    between atoms: C_30  and  O_31
REMARK                            x       y       z     vdW  Elec       q    Type
REMARK                         _______ _______ _______ _____ _____    ______ ____
ROOT
ATOM      1  O   UNL     1      32.813 -21.676 -20.265  0.00  0.00    -0.266 OA
ATOM      2  O   UNL     1      37.239 -21.503 -19.041  0.00  0.00    -0.193 OA
ATOM      3  N   UNL     1      34.238 -23.213 -15.910  0.00  0.00    -0.255 N 
ATOM      4  N   UNL     1      32.233 -22.731 -17.851  0.00  0.00    -0.396 NA
ATOM      5  N   UNL     1      35.779 -22.339 -17.508  0.00  0.00    -0.303 NA
ATOM      6  N   UNL     1      35.060 -21.580 -19.664  0.00  0.00    -0.196 N 
ATOM      7  C   UNL     1      32.893 -23.530 -15.617  0.00  0.00    +0.079 C 
ATOM      8  C   UNL     1      34.575 -22.667 -17.142  0.00  0.00    +0.236 C 
ATOM      9  C   UNL     1      31.914 -23.281 -16.600  0.00  0.00    +0.127 C 
ATOM     10  C   UNL     1      32.473 -24.085 -14.393  0.00  0.00    +0.012 C 
ATOM     11  C   UNL     1      33.462 -22.437 -18.127  0.00  0.00    +0.230 C 
ATOM     12  C   UNL     1      31.128 -24.382 -14.154  0.00  0.00    -0.028 C 
ATOM     13  C   UNL     1      30.566 -23.584 -16.348  0.00  0.00    +0.082 C 
ATOM     14  C   UNL     1      30.174 -24.132 -15.131  0.00  0.00    -0.041 C 
ATOM     15  C   UNL     1      33.726 -21.855 -19.477  0.00  0.00    +0.293 C 
ATOM     16  C   UNL     1      30.741 -24.969 -12.836  0.00  0.00    +0.030 C 
ATOM     17  C   UNL     1      28.732 -24.438 -14.900  0.00  0.00    +0.026 C 
ATOM     18  C   UNL     1      36.080 -21.800 -18.740  0.00  0.00    +0.273 C 
ATOM     19  H   UNL     1      35.318 -21.192 -20.532  0.00  0.00    +0.169 HD
ENDROOT
BRANCH   3  20
ATOM     20  C   UNL     1      35.246 -23.475 -14.884  0.00  0.00    +0.130 C 
BRANCH  20  21
ATOM     21  C   UNL     1      36.170 -24.614 -15.333  0.00  0.00    +0.160 C 
BRANCH  21  22
ATOM     22  O   UNL     1      35.648 -25.846 -14.832  0.00  0.00    -0.380 OA
ATOM     23  H   UNL     1      34.982 -25.662 -14.151  0.00  0.00    +0.211 HD
ENDBRANCH  21  22
BRANCH  21  24
ATOM     24  C   UNL     1      37.617 -24.436 -14.834  0.00  0.00    +0.168 C 
BRANCH  24  25
ATOM     25  O   UNL     1      38.337 -23.601 -15.740  0.00  0.00    -0.379 OA
ATOM     26  H   UNL     1      38.579 -24.112 -16.528  0.00  0.00    +0.211 HD
ENDBRANCH  24  25
BRANCH  24  27
ATOM     27  C   UNL     1      38.373 -25.771 -14.690  0.00  0.00    +0.169 C 
BRANCH  27  28
ATOM     28  O   UNL     1      38.064 -26.348 -13.419  0.00  0.00    -0.379 OA
ATOM     29  H   UNL     1      37.234 -25.971 -13.087  0.00  0.00    +0.211 HD
ENDBRANCH  27  28
BRANCH  27  30
ATOM     30  C   UNL     1      39.888 -25.595 -14.786  0.00  0.00    +0.169 C 
BRANCH  30  31
ATOM     31  O   UNL     1      40.294 -25.844 -16.127  0.00  0.00    -0.379 OA
ATOM     32  H   UNL     1      39.511 -25.983 -16.683  0.00  0.00    +0.211 HD
ENDBRANCH  30  31
ENDBRANCH  27  30
ENDBRANCH  24  27
ENDBRANCH  21  24
ENDBRANCH  20  21
ENDBRANCH   3  20
TORSDOF 9
ENDMDL
MODEL 2
REMARK VINA RESULT:      -9.5      2.594      5.579
REMARK  Name = 493570
REMARK  9 active torsions:
REMARK  status: ('A' for Active; 'I' for Inactive)
REMARK    1  A    between atoms: N_3  and  C_20
REMARK    2  A    between atoms: C_20  and  C_21
REMARK    3  A    between atoms: C_21  and  O_22
REMARK    4  A    between atoms: C_21  and  C_24
REMARK    5  A    between atoms: C_24  and  O_25
REMARK    6  A    between atoms: C_24  and  C_27
REMARK    7  A    between atoms: C_27  and  O_28
REMARK    8  A    between atoms: C_27  and  C_30
REMARK    9  A    between atoms: C_30  and  O_31
REMARK                            x       y       z     vdW  Elec       q    Type
REMARK                         _______ _______ _______ _____ _____    ______ ____
ROOT
ATOM      1  O   UNL     1      35.341 -25.383 -10.279  0.00  0.00    -0.266 OA
ATOM      2  O   UNL     1      38.988 -22.967 -11.686  0.00  0.00    -0.193 OA
ATOM      3  N   UNL     1      35.196 -22.852 -14.394  0.00  0.00    -0.255 N 
ATOM      4  N   UNL     1      34.006 -24.562 -12.475  0.00  0.00    -0.396 NA
ATOM      5  N   UNL     1      37.139 -22.906 -13.012  0.00  0.00    -0.303 NA
ATOM      6  N   UNL     1      37.200 -24.165 -10.974  0.00  0.00    -0.196 N 
ATOM      7  C   UNL     1      33.867 -23.294 -14.582  0.00  0.00    +0.079 C 
ATOM      8  C   UNL     1      35.915 -23.255 -13.276  0.00  0.00    +0.236 C 
ATOM      9  C   UNL     1      33.298 -24.145 -13.612  0.00  0.00    +0.127 C 
ATOM     10  C   UNL     1      33.074 -22.931 -15.687  0.00  0.00    +0.012 C 
ATOM     11  C   UNL     1      35.224 -24.163 -12.296  0.00  0.00    +0.230 C 
ATOM     12  C   UNL     1      31.764 -23.395 -15.825  0.00  0.00    -0.028 C 
ATOM     13  C   UNL     1      31.980 -24.605 -13.761  0.00  0.00    +0.082 C 
ATOM     14  C   UNL     1      31.216 -24.233 -14.862  0.00  0.00    -0.041 C 
ATOM     15  C   UNL     1      35.915 -24.648 -11.064  0.00  0.00    +0.293 C 
ATOM     16  C   UNL     1      30.970 -22.977 -17.020  0.00  0.00    +0.030 C 
ATOM     17  C   UNL     1      29.819 -24.744 -14.987  0.00  0.00    +0.026 C 
ATOM     18  C   UNL     1      37.826 -23.323 -11.892  0.00  0.00    +0.273 C 
ATOM     19  H   UNL     1      37.725 -24.441 -10.188  0.00  0.00    +0.169 HD
ENDROOT
BRANCH   3  20
ATOM     20  C   UNL     1      35.777 -21.970 -15.405  0.00  0.00    +0.130 C 
BRANCH  20  21
ATOM     21  C   UNL     1      36.344 -22.800 -16.564  0.00  0.00    +0.160 C 
BRANCH  21  22
ATOM     22  O   UNL     1      37.464 -23.544 -16.083  0.00  0.00    -0.380 OA
ATOM     23  H   UNL     1      37.212 -24.475 -15.974  0.00  0.00    +0.211 HD
ENDBRANCH  21  22
BRANCH  21  24
ATOM     24  C   UNL     1      36.785 -21.930 -17.757  0.00  0.00    +0.168 C 
BRANCH  24  25
ATOM     25  O   UNL     1      37.277 -20.678 -17.281  0.00  0.00    -0.379 OA
ATOM     26  H   UNL     1      37.795 -20.248 -17.979  0.00  0.00    +0.211 HD
ENDBRANCH  24  25
BRANCH  24  27
ATOM     27  C   UNL     1      35.648 -21.662 -18.760  0.00  0.00    +0.169 C 
BRANCH  27  28
ATOM     28  O   UNL     1      34.899 -22.864 -18.950  0.00  0.00    -0.379 OA
ATOM     29  H   UNL     1      34.183 -22.703 -19.584  0.00  0.00    +0.211 HD
ENDBRANCH  27  28
BRANCH  27  30
ATOM     30  C   UNL     1      36.169 -21.196 -20.119  0.00  0.00    +0.169 C 
BRANCH  30  31
ATOM     31  O   UNL     1      36.572 -19.835 -20.014  0.00  0.00    -0.379 OA
ATOM     32  H   UNL     1      35.885 -19.264 -20.393  0.00  0.00    +0.211 HD
ENDBRANCH  30  31
ENDBRANCH  27  30
ENDBRANCH  24  27
ENDBRANCH  21  24
ENDBRANCH  20  21
ENDBRANCH   3  20
TORSDOF 9
ENDMDL
MODEL 3
REMARK VINA RESULT:      -9.2      2.677      6.255
REMARK  Name = 493570
REMARK  9 active torsions:
REMARK  status: ('A' for Active; 'I' for Inactive)
REMARK    1  A    between atoms: N_3  and  C_20
REMARK    2  A    between atoms: C_20  and  C_21
REMARK    3  A    between atoms: C_21  and  O_22
REMARK    4  A    between atoms: C_21  and  C_24
REMARK    5  A    between atoms: C_24  and  O_25
REMARK    6  A    between atoms: C_24  and  C_27
REMARK    7  A    between atoms: C_27  and  O_28
REMARK    8  A    between atoms: C_27  and  C_30
REMARK    9  A    between atoms: C_30  and  O_31
REMARK                            x       y       z     vdW  Elec       q    Type
REMARK                         _______ _______ _______ _____ _____    ______ ____
ROOT
ATOM      1  O   UNL     1      37.020 -21.229 -18.665  0.00  0.00    -0.266 OA
ATOM      2  O   UNL     1      32.743 -22.150 -20.073  0.00  0.00    -0.193 OA
ATOM      3  N   UNL     1      33.908 -23.543 -15.780  0.00  0.00    -0.255 N 
ATOM      4  N   UNL     1      36.454 -22.421 -16.312  0.00  0.00    -0.396 NA
ATOM      5  N   UNL     1      33.306 -22.832 -17.976  0.00  0.00    -0.303 NA
ATOM      6  N   UNL     1      34.858 -21.686 -19.397  0.00  0.00    -0.196 N 
ATOM      7  C   UNL     1      34.918 -23.604 -14.793  0.00  0.00    +0.079 C 
ATOM      8  C   UNL     1      34.164 -22.939 -17.004  0.00  0.00    +0.236 C 
ATOM      9  C   UNL     1      36.176 -23.038 -15.082  0.00  0.00    +0.127 C 
ATOM     10  C   UNL     1      34.737 -24.199 -13.531  0.00  0.00    +0.012 C 
ATOM     11  C   UNL     1      35.536 -22.363 -17.222  0.00  0.00    +0.230 C 
ATOM     12  C   UNL     1      35.769 -24.232 -12.589  0.00  0.00    -0.028 C 
ATOM     13  C   UNL     1      37.205 -23.076 -14.128  0.00  0.00    +0.082 C 
ATOM     14  C   UNL     1      37.003 -23.670 -12.887  0.00  0.00    -0.041 C 
ATOM     15  C   UNL     1      35.904 -21.692 -18.505  0.00  0.00    +0.293 C 
ATOM     16  C   UNL     1      35.520 -24.878 -11.265  0.00  0.00    +0.030 C 
ATOM     17  C   UNL     1      38.122 -23.693 -11.899  0.00  0.00    +0.026 C 
ATOM     18  C   UNL     1      33.591 -22.225 -19.180  0.00  0.00    +0.273 C 
ATOM     19  H   UNL     1      35.020 -21.261 -20.271  0.00  0.00    +0.169 HD
ENDROOT
BRANCH   3  20
ATOM     20  C   UNL     1      32.607 -24.133 -15.470  0.00  0.00    +0.130 C 
BRANCH  20  21
ATOM     21  C   UNL     1      31.562 -23.028 -15.275  0.00  0.00    +0.160 C 
BRANCH  21  22
ATOM     22  O   UNL     1      31.121 -23.056 -13.916  0.00  0.00    -0.380 OA
ATOM     23  H   UNL     1      31.824 -22.713 -13.341  0.00  0.00    +0.211 HD
ENDBRANCH  21  22
BRANCH  21  24
ATOM     24  C   UNL     1      30.345 -23.190 -16.207  0.00  0.00    +0.168 C 
BRANCH  24  25
ATOM     25  O   UNL     1      30.306 -22.107 -17.136  0.00  0.00    -0.379 OA
ATOM     26  H   UNL     1      30.757 -21.338 -16.754  0.00  0.00    +0.211 HD
ENDBRANCH  24  25
BRANCH  24  27
ATOM     27  C   UNL     1      29.006 -23.235 -15.447  0.00  0.00    +0.169 C 
BRANCH  27  28
ATOM     28  O   UNL     1      28.790 -24.561 -14.960  0.00  0.00    -0.379 OA
ATOM     29  H   UNL     1      28.305 -25.075 -15.624  0.00  0.00    +0.211 HD
ENDBRANCH  27  28
BRANCH  27  30
ATOM     30  C   UNL     1      27.822 -22.845 -16.331  0.00  0.00    +0.169 C 
BRANCH  30  31
ATOM     31  O   UNL     1      27.807 -23.690 -17.477  0.00  0.00    -0.379 OA
ATOM     32  H   UNL     1      26.896 -23.971 -17.660  0.00  0.00    +0.211 HD
ENDBRANCH  30  31
ENDBRANCH  27  30
ENDBRANCH  24  27
ENDBRANCH  21  24
ENDBRANCH  20  21
ENDBRANCH   3  20
TORSDOF 9
ENDMDL
MODEL 4
REMARK VINA RESULT:      -8.6      2.786      6.548
REMARK  Name = 493570
REMARK  9 active torsions:
REMARK  status: ('A' for Active; 'I' for Inactive)
REMARK    1  A    between atoms: N_3  and  C_20
REMARK    2  A    between atoms: C_20  and  C_21
REMARK    3  A    between atoms: C_21  and  O_22
REMARK    4  A    between atoms: C_21  and  C_24
REMARK    5  A    between atoms: C_24  and  O_25
REMARK    6  A    between atoms: C_24  and  C_27
REMARK    7  A    between atoms: C_27  and  O_28
REMARK    8  A    between atoms: C_27  and  C_30
REMARK    9  A    between atoms: C_30  and  O_31
REMARK                            x       y       z     vdW  Elec       q    Type
REMARK                         _______ _______ _______ _____ _____    ______ ____
ROOT
ATOM      1  O   UNL     1      30.467 -23.922 -12.303  0.00  0.00    -0.266 OA
ATOM      2  O   UNL     1      28.839 -23.727 -16.596  0.00  0.00    -0.193 OA
ATOM      3  N   UNL     1      33.472 -23.826 -16.088  0.00  0.00    -0.255 N 
ATOM      4  N   UNL     1      32.974 -23.924 -13.301  0.00  0.00    -0.396 NA
ATOM      5  N   UNL     1      31.102 -23.775 -16.354  0.00  0.00    -0.303 NA
ATOM      6  N   UNL     1      29.622 -23.823 -14.470  0.00  0.00    -0.196 N 
ATOM      7  C   UNL     1      34.558 -23.877 -15.186  0.00  0.00    +0.079 C 
ATOM      8  C   UNL     1      32.167 -23.821 -15.610  0.00  0.00    +0.236 C 
ATOM      9  C   UNL     1      34.284 -23.926 -13.804  0.00  0.00    +0.127 C 
ATOM     10  C   UNL     1      35.906 -23.884 -15.590  0.00  0.00    +0.012 C 
ATOM     11  C   UNL     1      31.973 -23.876 -14.120  0.00  0.00    +0.230 C 
ATOM     12  C   UNL     1      36.945 -23.937 -14.657  0.00  0.00    -0.028 C 
ATOM     13  C   UNL     1      35.335 -23.978 -12.876  0.00  0.00    +0.082 C 
ATOM     14  C   UNL     1      36.660 -23.984 -13.299  0.00  0.00    -0.041 C 
ATOM     15  C   UNL     1      30.608 -23.877 -13.513  0.00  0.00    +0.293 C 
ATOM     16  C   UNL     1      38.357 -23.941 -15.146  0.00  0.00    +0.030 C 
ATOM     17  C   UNL     1      37.751 -24.040 -12.282  0.00  0.00    +0.026 C 
ATOM     18  C   UNL     1      29.820 -23.774 -15.849  0.00  0.00    +0.273 C 
ATOM     19  H   UNL     1      28.691 -23.819 -14.150  0.00  0.00    +0.169 HD
ENDROOT
BRANCH   3  20
ATOM     20  C   UNL     1      33.767 -23.776 -17.518  0.00  0.00    +0.130 C 
BRANCH  20  21
ATOM     21  C   UNL     1      33.584 -22.346 -18.043  0.00  0.00    +0.160 C 
BRANCH  21  22
ATOM     22  O   UNL     1      32.205 -22.154 -18.363  0.00  0.00    -0.380 OA
ATOM     23  H   UNL     1      32.079 -21.265 -18.730  0.00  0.00    +0.211 HD
ENDBRANCH  21  22
BRANCH  21  24
ATOM     24  C   UNL     1      34.440 -22.058 -19.292  0.00  0.00    +0.168 C 
BRANCH  24  25
ATOM     25  O   UNL     1      35.823 -22.109 -18.947  0.00  0.00    -0.379 OA
ATOM     26  H   UNL     1      36.238 -21.256 -19.147  0.00  0.00    +0.211 HD
ENDBRANCH  24  25
BRANCH  24  27
ATOM     27  C   UNL     1      34.141 -20.685 -19.923  0.00  0.00    +0.169 C 
BRANCH  27  28
ATOM     28  O   UNL     1      32.893 -20.750 -20.616  0.00  0.00    -0.379 OA
ATOM     29  H   UNL     1      32.682 -19.879 -20.986  0.00  0.00    +0.211 HD
ENDBRANCH  27  28
BRANCH  27  30
ATOM     30  C   UNL     1      35.222 -20.252 -20.913  0.00  0.00    +0.169 C 
BRANCH  30  31
ATOM     31  O   UNL     1      36.209 -19.500 -20.214  0.00  0.00    -0.379 OA
ATOM     32  H   UNL     1      37.071 -19.619 -20.644  0.00  0.00    +0.211 HD
ENDBRANCH  30  31
ENDBRANCH  27  30
ENDBRANCH  24  27
ENDBRANCH  21  24
ENDBRANCH  20  21
ENDBRANCH   3  20
TORSDOF 9
ENDMDL
MODEL 5
REMARK VINA RESULT:      -8.4      9.120     12.173
REMARK  Name = 493570
REMARK  9 active torsions:
REMARK  status: ('A' for Active; 'I' for Inactive)
REMARK    1  A    between atoms: N_3  and  C_20
REMARK    2  A    between atoms: C_20  and  C_21
REMARK    3  A    between atoms: C_21  and  O_22
REMARK    4  A    between atoms: C_21  and  C_24
REMARK    5  A    between atoms: C_24  and  O_25
REMARK    6  A    between atoms: C_24  and  C_27
REMARK    7  A    between atoms: C_27  and  O_28
REMARK    8  A    between atoms: C_27  and  C_30
REMARK    9  A    between atoms: C_30  and  O_31
REMARK                            x       y       z     vdW  Elec       q    Type
REMARK                         _______ _______ _______ _____ _____    ______ ____
ROOT
ATOM      1  O   UNL     1      33.805 -12.059 -26.629  0.00  0.00    -0.266 OA
ATOM      2  O   UNL     1      33.879 -16.606 -25.966  0.00  0.00    -0.193 OA
ATOM      3  N   UNL     1      32.597 -13.957 -22.351  0.00  0.00    -0.255 N 
ATOM      4  N   UNL     1      32.997 -11.745 -24.075  0.00  0.00    -0.396 NA
ATOM      5  N   UNL     1      33.252 -15.318 -24.198  0.00  0.00    -0.303 NA
ATOM      6  N   UNL     1      33.849 -14.365 -26.314  0.00  0.00    -0.196 N 
ATOM      7  C   UNL     1      32.371 -12.648 -21.870  0.00  0.00    +0.079 C 
ATOM      8  C   UNL     1      33.016 -14.158 -23.661  0.00  0.00    +0.236 C 
ATOM      9  C   UNL     1      32.576 -11.564 -22.748  0.00  0.00    +0.127 C 
ATOM     10  C   UNL     1      31.948 -12.363 -20.559  0.00  0.00    +0.012 C 
ATOM     11  C   UNL     1      33.208 -12.941 -24.523  0.00  0.00    +0.230 C 
ATOM     12  C   UNL     1      31.737 -11.049 -20.133  0.00  0.00    -0.028 C 
ATOM     13  C   UNL     1      32.361 -10.248 -22.309  0.00  0.00    +0.082 C 
ATOM     14  C   UNL     1      31.943  -9.991 -21.008  0.00  0.00    -0.041 C 
ATOM     15  C   UNL     1      33.654 -13.056 -25.944  0.00  0.00    +0.293 C 
ATOM     16  C   UNL     1      31.288 -10.807 -18.728  0.00  0.00    +0.030 C 
ATOM     17  C   UNL     1      31.726  -8.578 -20.578  0.00  0.00    +0.026 C 
ATOM     18  C   UNL     1      33.666 -15.484 -25.502  0.00  0.00    +0.273 C 
ATOM     19  H   UNL     1      34.146 -14.528 -27.239  0.00  0.00    +0.169 HD
ENDROOT
BRANCH   3  20
ATOM     20  C   UNL     1      32.382 -15.074 -21.433  0.00  0.00    +0.130 C 
BRANCH  20  21
ATOM     21  C   UNL     1      33.729 -15.652 -20.982  0.00  0.00    +0.160 C 
BRANCH  21  22
ATOM     22  O   UNL     1      34.753 -14.703 -21.284  0.00  0.00    -0.380 OA
ATOM     23  H   UNL     1      34.392 -14.010 -21.860  0.00  0.00    +0.211 HD
ENDBRANCH  21  22
BRANCH  21  24
ATOM     24  C   UNL     1      34.059 -16.992 -21.666  0.00  0.00    +0.168 C 
BRANCH  24  25
ATOM     25  O   UNL     1      33.658 -18.072 -20.824  0.00  0.00    -0.379 OA
ATOM     26  H   UNL     1      33.588 -17.759 -19.909  0.00  0.00    +0.211 HD
ENDBRANCH  24  25
BRANCH  24  27
ATOM     27  C   UNL     1      35.558 -17.151 -21.989  0.00  0.00    +0.169 C 
BRANCH  27  28
ATOM     28  O   UNL     1      35.819 -16.595 -23.279  0.00  0.00    -0.379 OA
ATOM     29  H   UNL     1      35.498 -15.681 -23.309  0.00  0.00    +0.211 HD
ENDBRANCH  27  28
BRANCH  27  30
ATOM     30  C   UNL     1      36.001 -18.613 -21.992  0.00  0.00    +0.169 C 
BRANCH  30  31
ATOM     31  O   UNL     1      36.350 -18.989 -20.663  0.00  0.00    -0.379 OA
ATOM     32  H   UNL     1      35.918 -18.391 -20.034  0.00  0.00    +0.211 HD
ENDBRANCH  30  31
ENDBRANCH  27  30
ENDBRANCH  24  27
ENDBRANCH  21  24
ENDBRANCH  20  21
ENDBRANCH   3  20
TORSDOF 9
ENDMDL
MODEL 6
REMARK VINA RESULT:      -7.7      2.267      6.022
REMARK  Name = 493570
REMARK  9 active torsions:
REMARK  status: ('A' for Active; 'I' for Inactive)
REMARK    1  A    between atoms: N_3  and  C_20
REMARK    2  A    between atoms: C_20  and  C_21
REMARK    3  A    between atoms: C_21  and  O_22
REMARK    4  A    between atoms: C_21  and  C_24
REMARK    5  A    between atoms: C_24  and  O_25
REMARK    6  A    between atoms: C_24  and  C_27
REMARK    7  A    between atoms: C_27  and  O_28
REMARK    8  A    between atoms: C_27  and  C_30
REMARK    9  A    between atoms: C_30  and  O_31
REMARK                            x       y       z     vdW  Elec       q    Type
REMARK                         _______ _______ _______ _____ _____    ______ ____
ROOT
ATOM      1  O   UNL     1      36.607 -21.434 -18.890  0.00  0.00    -0.266 OA
ATOM      2  O   UNL     1      32.037 -21.917 -18.829  0.00  0.00    -0.193 OA
ATOM      3  N   UNL     1      34.440 -24.051 -15.452  0.00  0.00    -0.255 N 
ATOM      4  N   UNL     1      36.755 -22.972 -16.679  0.00  0.00    -0.396 NA
ATOM      5  N   UNL     1      33.205 -22.960 -17.178  0.00  0.00    -0.303 NA
ATOM      6  N   UNL     1      34.291 -21.666 -18.877  0.00  0.00    -0.196 N 
ATOM      7  C   UNL     1      35.713 -24.319 -14.899  0.00  0.00    +0.079 C 
ATOM      8  C   UNL     1      34.326 -23.265 -16.592  0.00  0.00    +0.236 C 
ATOM      9  C   UNL     1      36.849 -23.770 -15.528  0.00  0.00    +0.127 C 
ATOM     10  C   UNL     1      35.912 -25.106 -13.750  0.00  0.00    +0.012 C 
ATOM     11  C   UNL     1      35.593 -22.722 -17.192  0.00  0.00    +0.230 C 
ATOM     12  C   UNL     1      37.192 -25.340 -13.242  0.00  0.00    -0.028 C 
ATOM     13  C   UNL     1      38.130 -24.012 -15.009  0.00  0.00    +0.082 C 
ATOM     14  C   UNL     1      38.303 -24.793 -13.871  0.00  0.00    -0.041 C 
ATOM     15  C   UNL     1      35.571 -21.866 -18.416  0.00  0.00    +0.293 C 
ATOM     16  C   UNL     1      37.342 -26.184 -12.018  0.00  0.00    +0.030 C 
ATOM     17  C   UNL     1      39.681 -25.029 -13.350  0.00  0.00    +0.026 C 
ATOM     18  C   UNL     1      33.125 -22.176 -18.308  0.00  0.00    +0.273 C 
ATOM     19  H   UNL     1      34.190 -21.110 -19.684  0.00  0.00    +0.169 HD
ENDROOT
BRANCH   3  20
ATOM     20  C   UNL     1      33.269 -24.625 -14.793  0.00  0.00    +0.130 C 
BRANCH  20  21
ATOM     21  C   UNL     1      32.537 -23.544 -13.987  0.00  0.00    +0.160 C 
BRANCH  21  22
ATOM     22  O   UNL     1      33.298 -23.264 -12.811  0.00  0.00    -0.380 OA
ATOM     23  H   UNL     1      34.130 -23.761 -12.837  0.00  0.00    +0.211 HD
ENDBRANCH  21  22
BRANCH  21  24
ATOM     24  C   UNL     1      31.112 -23.969 -13.581  0.00  0.00    +0.168 C 
BRANCH  24  25
ATOM     25  O   UNL     1      31.122 -25.330 -13.153  0.00  0.00    -0.379 OA
ATOM     26  H   UNL     1      30.512 -25.846 -13.704  0.00  0.00    +0.211 HD
ENDBRANCH  24  25
BRANCH  24  27
ATOM     27  C   UNL     1      30.091 -23.821 -14.725  0.00  0.00    +0.169 C 
BRANCH  27  28
ATOM     28  O   UNL     1      30.248 -24.911 -15.636  0.00  0.00    -0.379 OA
ATOM     29  H   UNL     1      31.128 -25.303 -15.523  0.00  0.00    +0.211 HD
ENDBRANCH  27  28
BRANCH  27  30
ATOM     30  C   UNL     1      30.269 -22.515 -15.498  0.00  0.00    +0.169 C 
BRANCH  30  31
ATOM     31  O   UNL     1      30.007 -22.758 -16.876  0.00  0.00    -0.379 OA
ATOM     32  H   UNL     1      30.005 -23.714 -17.042  0.00  0.00    +0.211 HD
ENDBRANCH  30  31
ENDBRANCH  27  30
ENDBRANCH  24  27
ENDBRANCH  21  24
ENDBRANCH  20  21
ENDBRANCH   3  20
TORSDOF 9
ENDMDL
MODEL 7
REMARK VINA RESULT:      -7.7      9.856     13.003
REMARK  Name = 493570
REMARK  9 active torsions:
REMARK  status: ('A' for Active; 'I' for Inactive)
REMARK    1  A    between atoms: N_3  and  C_20
REMARK    2  A    between atoms: C_20  and  C_21
REMARK    3  A    between atoms: C_21  and  O_22
REMARK    4  A    between atoms: C_21  and  C_24
REMARK    5  A    between atoms: C_24  and  O_25
REMARK    6  A    between atoms: C_24  and  C_27
REMARK    7  A    between atoms: C_27  and  O_28
REMARK    8  A    between atoms: C_27  and  C_30
REMARK    9  A    between atoms: C_30  and  O_31
REMARK                            x       y       z     vdW  Elec       q    Type
REMARK                         _______ _______ _______ _____ _____    ______ ____
ROOT
ATOM      1  O   UNL     1      33.750 -13.757 -27.978  0.00  0.00    -0.266 OA
ATOM      2  O   UNL     1      33.487 -10.393 -24.857  0.00  0.00    -0.193 OA
ATOM      3  N   UNL     1      34.173 -14.719 -23.260  0.00  0.00    -0.255 N 
ATOM      4  N   UNL     1      34.112 -15.527 -25.975  0.00  0.00    -0.396 NA
ATOM      5  N   UNL     1      33.823 -12.503 -24.072  0.00  0.00    -0.303 NA
ATOM      6  N   UNL     1      33.614 -12.039 -26.413  0.00  0.00    -0.196 N 
ATOM      7  C   UNL     1      34.336 -16.084 -23.586  0.00  0.00    +0.079 C 
ATOM      8  C   UNL     1      33.983 -13.779 -24.265  0.00  0.00    +0.236 C 
ATOM      9  C   UNL     1      34.302 -16.460 -24.944  0.00  0.00    +0.127 C 
ATOM     10  C   UNL     1      34.532 -17.095 -22.627  0.00  0.00    +0.012 C 
ATOM     11  C   UNL     1      33.961 -14.275 -25.685  0.00  0.00    +0.230 C 
ATOM     12  C   UNL     1      34.689 -18.432 -23.002  0.00  0.00    -0.028 C 
ATOM     13  C   UNL     1      34.460 -17.806 -25.309  0.00  0.00    +0.082 C 
ATOM     14  C   UNL     1      34.653 -18.789 -24.343  0.00  0.00    -0.041 C 
ATOM     15  C   UNL     1      33.764 -13.339 -26.833  0.00  0.00    +0.293 C 
ATOM     16  C   UNL     1      34.893 -19.462 -21.939  0.00  0.00    +0.030 C 
ATOM     17  C   UNL     1      34.817 -20.209 -24.770  0.00  0.00    +0.026 C 
ATOM     18  C   UNL     1      33.637 -11.595 -25.092  0.00  0.00    +0.273 C 
ATOM     19  H   UNL     1      33.478 -11.358 -27.112  0.00  0.00    +0.169 HD
ENDROOT
BRANCH   3  20
ATOM     20  C   UNL     1      34.210 -14.339 -21.849  0.00  0.00    +0.130 C 
BRANCH  20  21
ATOM     21  C   UNL     1      32.785 -14.120 -21.326  0.00  0.00    +0.160 C 
BRANCH  21  22
ATOM     22  O   UNL     1      31.868 -14.365 -22.394  0.00  0.00    -0.380 OA
ATOM     23  H   UNL     1      31.086 -14.825 -22.049  0.00  0.00    +0.211 HD
ENDBRANCH  21  22
BRANCH  21  24
ATOM     24  C   UNL     1      32.564 -12.694 -20.784  0.00  0.00    +0.168 C 
BRANCH  24  25
ATOM     25  O   UNL     1      32.113 -12.760 -19.432  0.00  0.00    -0.379 OA
ATOM     26  H   UNL     1      31.476 -12.047 -19.269  0.00  0.00    +0.211 HD
ENDBRANCH  24  25
BRANCH  24  27
ATOM     27  C   UNL     1      31.539 -11.889 -21.606  0.00  0.00    +0.169 C 
BRANCH  27  28
ATOM     28  O   UNL     1      32.222 -10.862 -22.328  0.00  0.00    -0.379 OA
ATOM     29  H   UNL     1      31.757 -10.688 -23.161  0.00  0.00    +0.211 HD
ENDBRANCH  27  28
BRANCH  27  30
ATOM     30  C   UNL     1      30.472 -11.237 -20.727  0.00  0.00    +0.169 C 
BRANCH  30  31
ATOM     31  O   UNL     1      31.098 -10.277 -19.882  0.00  0.00    -0.379 OA
ATOM     32  H   UNL     1      30.988 -10.541 -18.955  0.00  0.00    +0.211 HD
ENDBRANCH  30  31
ENDBRANCH  27  30
ENDBRANCH  24  27
ENDBRANCH  21  24
ENDBRANCH  20  21
ENDBRANCH   3  20
TORSDOF 9
ENDMDL
MODEL 8
REMARK VINA RESULT:      -7.7      1.872      5.298
REMARK  Name = 493570
REMARK  9 active torsions:
REMARK  status: ('A' for Active; 'I' for Inactive)
REMARK    1  A    between atoms: N_3  and  C_20
REMARK    2  A    between atoms: C_20  and  C_21
REMARK    3  A    between atoms: C_21  and  O_22
REMARK    4  A    between atoms: C_21  and  C_24
REMARK    5  A    between atoms: C_24  and  O_25
REMARK    6  A    between atoms: C_24  and  C_27
REMARK    7  A    between atoms: C_27  and  O_28
REMARK    8  A    between atoms: C_27  and  C_30
REMARK    9  A    between atoms: C_30  and  O_31
REMARK                            x       y       z     vdW  Elec       q    Type
REMARK                         _______ _______ _______ _____ _____    ______ ____
ROOT
ATOM      1  O   UNL     1      34.897 -23.868 -11.921  0.00  0.00    -0.266 OA
ATOM      2  O   UNL     1      37.876 -24.343 -15.388  0.00  0.00    -0.193 OA
ATOM      3  N   UNL     1      33.416 -23.584 -16.513  0.00  0.00    -0.255 N 
ATOM      4  N   UNL     1      32.921 -23.524 -13.724  0.00  0.00    -0.396 NA
ATOM      5  N   UNL     1      35.700 -23.972 -15.943  0.00  0.00    -0.303 NA
ATOM      6  N   UNL     1      36.422 -24.111 -13.663  0.00  0.00    -0.196 N 
ATOM      7  C   UNL     1      32.101 -23.369 -16.042  0.00  0.00    +0.079 C 
ATOM      8  C   UNL     1      34.459 -23.767 -15.614  0.00  0.00    +0.236 C 
ATOM      9  C   UNL     1      31.881 -23.343 -14.649  0.00  0.00    +0.127 C 
ATOM     10  C   UNL     1      30.993 -23.176 -16.888  0.00  0.00    +0.012 C 
ATOM     11  C   UNL     1      34.127 -23.723 -14.147  0.00  0.00    +0.230 C 
ATOM     12  C   UNL     1      29.712 -22.966 -16.371  0.00  0.00    -0.028 C 
ATOM     13  C   UNL     1      30.590 -23.131 -14.141  0.00  0.00    +0.082 C 
ATOM     14  C   UNL     1      29.509 -22.943 -14.997  0.00  0.00    -0.041 C 
ATOM     15  C   UNL     1      35.182 -23.908 -13.105  0.00  0.00    +0.293 C 
ATOM     16  C   UNL     1      28.573 -22.768 -17.317  0.00  0.00    +0.030 C 
ATOM     17  C   UNL     1      28.151 -22.722 -14.419  0.00  0.00    +0.026 C 
ATOM     18  C   UNL     1      36.712 -24.149 -15.026  0.00  0.00    +0.273 C 
ATOM     19  H   UNL     1      37.174 -24.243 -13.041  0.00  0.00    +0.169 HD
ENDROOT
BRANCH   3  20
ATOM     20  C   UNL     1      33.633 -23.609 -17.958  0.00  0.00    +0.130 C 
BRANCH  20  21
ATOM     21  C   UNL     1      33.824 -22.181 -18.486  0.00  0.00    +0.160 C 
BRANCH  21  22
ATOM     22  O   UNL     1      32.761 -21.887 -19.393  0.00  0.00    -0.380 OA
ATOM     23  H   UNL     1      32.237 -22.689 -19.549  0.00  0.00    +0.211 HD
ENDBRANCH  21  22
BRANCH  21  24
ATOM     24  C   UNL     1      35.174 -21.990 -19.205  0.00  0.00    +0.168 C 
BRANCH  24  25
ATOM     25  O   UNL     1      36.242 -22.183 -18.280  0.00  0.00    -0.379 OA
ATOM     26  H   UNL     1      37.008 -21.656 -18.555  0.00  0.00    +0.211 HD
ENDBRANCH  24  25
BRANCH  24  27
ATOM     27  C   UNL     1      35.323 -20.596 -19.845  0.00  0.00    +0.169 C 
BRANCH  27  28
ATOM     28  O   UNL     1      34.557 -20.550 -21.050  0.00  0.00    -0.379 OA
ATOM     29  H   UNL     1      34.901 -21.204 -21.678  0.00  0.00    +0.211 HD
ENDBRANCH  27  28
BRANCH  27  30
ATOM     30  C   UNL     1      36.776 -20.263 -20.181  0.00  0.00    +0.169 C 
BRANCH  30  31
ATOM     31  O   UNL     1      36.805 -19.074 -20.963  0.00  0.00    -0.379 OA
ATOM     32  H   UNL     1      37.005 -18.316 -20.393  0.00  0.00    +0.211 HD
ENDBRANCH  30  31
ENDBRANCH  27  30
ENDBRANCH  24  27
ENDBRANCH  21  24
ENDBRANCH  20  21
ENDBRANCH   3  20
TORSDOF 9
ENDMDL
MODEL 9
REMARK VINA RESULT:      -7.6     12.618     16.173
REMARK  Name = 493570
REMARK  9 active torsions:
REMARK  status: ('A' for Active; 'I' for Inactive)
REMARK    1  A    between atoms: N_3  and  C_20
REMARK    2  A    between atoms: C_20  and  C_21
REMARK    3  A    between atoms: C_21  and  O_22
REMARK    4  A    between atoms: C_21  and  C_24
REMARK    5  A    between atoms: C_24  and  O_25
REMARK    6  A    between atoms: C_24  and  C_27
REMARK    7  A    between atoms: C_27  and  O_28
REMARK    8  A    between atoms: C_27  and  C_30
REMARK    9  A    between atoms: C_30  and  O_31
REMARK                            x       y       z     vdW  Elec       q    Type
REMARK                         _______ _______ _______ _____ _____    ______ ____
ROOT
ATOM      1  O   UNL     1      31.217 -10.383 -18.639  0.00  0.00    -0.266 OA
ATOM      2  O   UNL     1      32.323 -14.046 -21.185  0.00  0.00    -0.193 OA
ATOM      3  N   UNL     1      32.422  -9.890 -23.294  0.00  0.00    -0.255 N 
ATOM      4  N   UNL     1      31.622  -8.817 -20.798  0.00  0.00    -0.396 NA
ATOM      5  N   UNL     1      32.373 -12.020 -22.219  0.00  0.00    -0.303 NA
ATOM      6  N   UNL     1      31.774 -12.251 -19.911  0.00  0.00    -0.196 N 
ATOM      7  C   UNL     1      32.226  -8.497 -23.164  0.00  0.00    +0.079 C 
ATOM      8  C   UNL     1      32.221 -10.729 -22.204  0.00  0.00    +0.236 C 
ATOM      9  C   UNL     1      31.828  -7.988 -21.911  0.00  0.00    +0.127 C 
ATOM     10  C   UNL     1      32.407  -7.584 -24.219  0.00  0.00    +0.012 C 
ATOM     11  C   UNL     1      31.798 -10.094 -20.908  0.00  0.00    +0.230 C 
ATOM     12  C   UNL     1      32.201  -6.213 -24.038  0.00  0.00    -0.028 C 
ATOM     13  C   UNL     1      31.624  -6.610 -21.741  0.00  0.00    +0.082 C 
ATOM     14  C   UNL     1      31.810  -5.725 -22.798  0.00  0.00    -0.041 C 
ATOM     15  C   UNL     1      31.560 -10.913 -19.682  0.00  0.00    +0.293 C 
ATOM     16  C   UNL     1      32.409  -5.291 -25.195  0.00  0.00    +0.030 C 
ATOM     17  C   UNL     1      31.581  -4.267 -22.579  0.00  0.00    +0.026 C 
ATOM     18  C   UNL     1      32.168 -12.824 -21.120  0.00  0.00    +0.273 C 
ATOM     19  H   UNL     1      31.637 -12.862 -19.150  0.00  0.00    +0.169 HD
ENDROOT
BRANCH   3  20
ATOM     20  C   UNL     1      32.835 -10.408 -24.597  0.00  0.00    +0.130 C 
BRANCH  20  21
ATOM     21  C   UNL     1      34.101 -11.260 -24.447  0.00  0.00    +0.160 C 
BRANCH  21  22
ATOM     22  O   UNL     1      35.235 -10.444 -24.746  0.00  0.00    -0.380 OA
ATOM     23  H   UNL     1      34.948  -9.525 -24.869  0.00  0.00    +0.211 HD
ENDBRANCH  21  22
BRANCH  21  24
ATOM     24  C   UNL     1      34.102 -12.491 -25.375  0.00  0.00    +0.168 C 
BRANCH  24  25
ATOM     25  O   UNL     1      33.444 -12.169 -26.599  0.00  0.00    -0.379 OA
ATOM     26  H   UNL     1      33.403 -11.205 -26.700  0.00  0.00    +0.211 HD
ENDBRANCH  24  25
BRANCH  24  27
ATOM     27  C   UNL     1      33.408 -13.716 -24.750  0.00  0.00    +0.169 C 
BRANCH  27  28
ATOM     28  O   UNL     1      34.160 -14.152 -23.616  0.00  0.00    -0.379 OA
ATOM     29  H   UNL     1      34.778 -14.849 -23.886  0.00  0.00    +0.211 HD
ENDBRANCH  27  28
BRANCH  27  30
ATOM     30  C   UNL     1      33.291 -14.882 -25.731  0.00  0.00    +0.169 C 
BRANCH  30  31
ATOM     31  O   UNL     1      32.136 -14.687 -26.540  0.00  0.00    -0.379 OA
ATOM     32  H   UNL     1      31.353 -15.019 -26.072  0.00  0.00    +0.211 HD
ENDBRANCH  30  31
ENDBRANCH  27  30
ENDBRANCH  24  27
ENDBRANCH  21  24
ENDBRANCH  20  21
ENDBRANCH   3  20
TORSDOF 9
ENDMDL
