MODEL 1
REMARK VINA RESULT:     -10.1      0.000      0.000
REMARK  Name = 54690031
REMARK  2 active torsions:
REMARK  status: ('A' for Active; 'I' for Inactive)
REMARK    1  A    between atoms: C_8  and  C_16
REMARK    2  A    between atoms: C_10  and  O_24
REMARK                            x       y       z     vdW  Elec       q    Type
REMARK                         _______ _______ _______ _____ _____    ______ ____
ROOT
ATOM      1 CL   UNL     1      32.949 -11.222 -24.064  0.00  0.00    -0.075 Cl
ATOM      2  S   UNL     1      34.189 -16.495 -25.217  0.00  0.00    +0.077 S 
ATOM      3  S   UNL     1      33.856 -13.479 -22.362  0.00  0.00    -0.071 S 
ATOM      4  O   UNL     1      32.978 -16.638 -26.000  0.00  0.00    -0.150 OA
ATOM      5  O   UNL     1      35.486 -16.303 -25.834  0.00  0.00    -0.150 OA
ATOM      6  N   UNL     1      34.273 -17.737 -24.043  0.00  0.00    -0.181 N 
ATOM      7  C   UNL     1      33.940 -15.048 -24.349  0.00  0.00    +0.136 C 
ATOM      8  C   UNL     1      34.715 -17.411 -22.698  0.00  0.00    +0.156 C 
ATOM      9  C   UNL     1      34.179 -15.050 -22.996  0.00  0.00    +0.084 C 
ATOM     10  C   UNL     1      34.632 -16.152 -22.207  0.00  0.00    +0.160 C 
ATOM     11  C   UNL     1      33.517 -13.813 -24.888  0.00  0.00    +0.039 C 
ATOM     12  C   UNL     1      34.385 -19.120 -24.567  0.00  0.00    +0.139 C 
ATOM     13  C   UNL     1      33.425 -12.860 -23.900  0.00  0.00    +0.088 C 
ENDROOT
BRANCH   8  16
ATOM     14  O   UNL     1      36.413 -18.708 -21.754  0.00  0.00    -0.268 OA
ATOM     15  N   UNL     1      34.167 -19.208 -21.253  0.00  0.00    -0.265 N 
ATOM     16  C   UNL     1      35.206 -18.513 -21.851  0.00  0.00    +0.269 C 
ATOM     17  H   UNL     1      33.258 -18.894 -21.457  0.00  0.00    +0.157 HD
ATOM     18  N   UNL     1      33.128 -20.863 -19.896  0.00  0.00    -0.229 NA
ATOM     19  C   UNL     1      34.268 -20.319 -20.380  0.00  0.00    +0.134 C 
ATOM     20  C   UNL     1      35.538 -20.781 -20.077  0.00  0.00    +0.034 C 
ATOM     21  C   UNL     1      35.647 -21.872 -19.221  0.00  0.00    +0.004 C 
ATOM     22  C   UNL     1      33.275 -21.922 -19.068  0.00  0.00    +0.100 C 
ATOM     23  C   UNL     1      34.498 -22.459 -18.703  0.00  0.00    +0.021 C 
ENDBRANCH   8  16
BRANCH  10  24
ATOM     24  O   UNL     1      34.967 -15.795 -20.914  0.00  0.00    -0.504 OA
ATOM     25  H   UNL     1      35.571 -15.095 -20.762  0.00  0.00    +0.292 HD
ENDBRANCH  10  24
TORSDOF 2
ENDMDL
MODEL 2
REMARK VINA RESULT:      -9.8      1.675      2.827
REMARK  Name = 54690031
REMARK  2 active torsions:
REMARK  status: ('A' for Active; 'I' for Inactive)
REMARK    1  A    between atoms: C_8  and  C_16
REMARK    2  A    between atoms: C_10  and  O_24
REMARK                            x       y       z     vdW  Elec       q    Type
REMARK                         _______ _______ _______ _____ _____    ______ ____
ROOT
ATOM      1 CL   UNL     1      32.526 -13.116 -27.525  0.00  0.00    -0.075 Cl
ATOM      2  S   UNL     1      33.412 -14.424 -22.217  0.00  0.00    +0.077 S 
ATOM      3  S   UNL     1      33.620 -15.549 -26.223  0.00  0.00    -0.071 S 
ATOM      4  O   UNL     1      34.049 -13.144 -21.979  0.00  0.00    -0.150 OA
ATOM      5  O   UNL     1      32.048 -14.693 -21.809  0.00  0.00    -0.150 OA
ATOM      6  N   UNL     1      34.442 -15.690 -21.703  0.00  0.00    -0.181 N 
ATOM      7  C   UNL     1      33.351 -14.534 -23.917  0.00  0.00    +0.136 C 
ATOM      8  C   UNL     1      34.571 -16.878 -22.529  0.00  0.00    +0.156 C 
ATOM      9  C   UNL     1      33.787 -15.693 -24.512  0.00  0.00    +0.084 C 
ATOM     10  C   UNL     1      34.295 -16.856 -23.855  0.00  0.00    +0.160 C 
ATOM     11  C   UNL     1      32.875 -13.541 -24.803  0.00  0.00    +0.039 C 
ATOM     12  C   UNL     1      34.737 -15.738 -20.249  0.00  0.00    +0.139 C 
ATOM     13  C   UNL     1      32.970 -13.968 -26.107  0.00  0.00    +0.088 C 
ENDROOT
BRANCH   8  16
ATOM     14  O   UNL     1      36.264 -18.396 -21.994  0.00  0.00    -0.268 OA
ATOM     15  N   UNL     1      34.073 -18.796 -21.229  0.00  0.00    -0.265 N 
ATOM     16  C   UNL     1      35.076 -18.107 -21.891  0.00  0.00    +0.269 C 
ATOM     17  H   UNL     1      33.174 -18.396 -21.262  0.00  0.00    +0.157 HD
ATOM     18  N   UNL     1      33.090 -20.529 -19.929  0.00  0.00    -0.229 NA
ATOM     19  C   UNL     1      34.195 -20.010 -20.510  0.00  0.00    +0.134 C 
ATOM     20  C   UNL     1      35.450 -20.593 -20.449  0.00  0.00    +0.034 C 
ATOM     21  C   UNL     1      35.580 -21.785 -19.746  0.00  0.00    +0.004 C 
ATOM     22  C   UNL     1      33.256 -21.689 -19.254  0.00  0.00    +0.100 C 
ATOM     23  C   UNL     1      34.467 -22.350 -19.134  0.00  0.00    +0.021 C 
ENDBRANCH   8  16
BRANCH  10  24
ATOM     24  O   UNL     1      34.468 -17.931 -24.706  0.00  0.00    -0.504 OA
ATOM     25  H   UNL     1      35.330 -18.239 -24.903  0.00  0.00    +0.292 HD
ENDBRANCH  10  24
TORSDOF 2
ENDMDL
MODEL 3
REMARK VINA RESULT:      -9.2      4.381      8.846
REMARK  Name = 54690031
REMARK  2 active torsions:
REMARK  status: ('A' for Active; 'I' for Inactive)
REMARK    1  A    between atoms: C_8  and  C_16
REMARK    2  A    between atoms: C_10  and  O_24
REMARK                            x       y       z     vdW  Elec       q    Type
REMARK                         _______ _______ _______ _____ _____    ______ ____
ROOT
ATOM      1 CL   UNL     1      35.092 -18.843 -24.578  0.00  0.00    -0.075 Cl
ATOM      2  S   UNL     1      33.498 -14.935 -20.991  0.00  0.00    +0.077 S 
ATOM      3  S   UNL     1      34.185 -16.040 -24.949  0.00  0.00    -0.071 S 
ATOM      4  O   UNL     1      32.634 -15.875 -20.307  0.00  0.00    -0.150 OA
ATOM      5  O   UNL     1      34.793 -14.555 -20.465  0.00  0.00    -0.150 OA
ATOM      6  N   UNL     1      32.608 -13.540 -21.429  0.00  0.00    -0.181 N 
ATOM      7  C   UNL     1      33.876 -15.725 -22.454  0.00  0.00    +0.136 C 
ATOM      8  C   UNL     1      32.818 -12.948 -22.739  0.00  0.00    +0.156 C 
ATOM      9  C   UNL     1      33.742 -15.024 -23.628  0.00  0.00    +0.084 C 
ATOM     10  C   UNL     1      33.317 -13.667 -23.773  0.00  0.00    +0.160 C 
ATOM     11  C   UNL     1      34.337 -17.053 -22.592  0.00  0.00    +0.039 C 
ATOM     12  C   UNL     1      32.071 -12.732 -20.306  0.00  0.00    +0.139 C 
ATOM     13  C   UNL     1      34.544 -17.360 -23.917  0.00  0.00    +0.088 C 
ENDROOT
BRANCH   8  16
ATOM     14  O   UNL     1      31.235 -11.230 -22.767  0.00  0.00    -0.268 OA
ATOM     15  N   UNL     1      33.477 -10.741 -23.295  0.00  0.00    -0.265 N 
ATOM     16  C   UNL     1      32.409 -11.545 -22.932  0.00  0.00    +0.269 C 
ATOM     17  H   UNL     1      34.351 -11.186 -23.377  0.00  0.00    +0.157 HD
ATOM     18  N   UNL     1      34.611  -8.739 -23.902  0.00  0.00    -0.229 NA
ATOM     19  C   UNL     1      33.454  -9.350 -23.560  0.00  0.00    +0.134 C 
ATOM     20  C   UNL     1      32.235  -8.699 -23.452  0.00  0.00    +0.034 C 
ATOM     21  C   UNL     1      32.202  -7.333 -23.711  0.00  0.00    +0.004 C 
ATOM     22  C   UNL     1      34.538  -7.411 -24.146  0.00  0.00    +0.100 C 
ATOM     23  C   UNL     1      33.371  -6.670 -24.065  0.00  0.00    +0.021 C 
ENDBRANCH   8  16
BRANCH  10  24
ATOM     24  O   UNL     1      33.471 -13.182 -25.058  0.00  0.00    -0.504 OA
ATOM     25  H   UNL     1      33.017 -12.407 -25.325  0.00  0.00    +0.292 HD
ENDBRANCH  10  24
TORSDOF 2
ENDMDL
MODEL 4
REMARK VINA RESULT:      -9.1      3.934      6.081
REMARK  Name = 54690031
REMARK  2 active torsions:
REMARK  status: ('A' for Active; 'I' for Inactive)
REMARK    1  A    between atoms: C_8  and  C_16
REMARK    2  A    between atoms: C_10  and  O_24
REMARK                            x       y       z     vdW  Elec       q    Type
REMARK                         _______ _______ _______ _____ _____    ______ ____
ROOT
ATOM      1 CL   UNL     1      32.582  -6.178 -22.263  0.00  0.00    -0.075 Cl
ATOM      2  S   UNL     1      31.540 -11.474 -21.019  0.00  0.00    +0.077 S 
ATOM      3  S   UNL     1      33.303  -8.726 -23.607  0.00  0.00    -0.071 S 
ATOM      4  O   UNL     1      31.941 -11.259 -19.643  0.00  0.00    -0.150 OA
ATOM      5  O   UNL     1      30.148 -11.540 -21.414  0.00  0.00    -0.150 OA
ATOM      6  N   UNL     1      32.403 -12.799 -21.676  0.00  0.00    -0.181 N 
ATOM      7  C   UNL     1      32.122 -10.091 -21.830  0.00  0.00    +0.136 C 
ATOM      8  C   UNL     1      32.921 -12.705 -23.030  0.00  0.00    +0.156 C 
ATOM      9  C   UNL     1      32.836 -10.267 -22.990  0.00  0.00    +0.084 C 
ATOM     10  C   UNL     1      33.155 -11.509 -23.622  0.00  0.00    +0.160 C 
ATOM     11  C   UNL     1      31.931  -8.748 -21.434  0.00  0.00    +0.039 C 
ATOM     12  C   UNL     1      32.142 -14.118 -21.051  0.00  0.00    +0.139 C 
ATOM     13  C   UNL     1      32.535  -7.890 -22.323  0.00  0.00    +0.088 C 
ENDROOT
BRANCH   8  16
ATOM     14  O   UNL     1      32.845 -14.138 -24.873  0.00  0.00    -0.268 OA
ATOM     15  N   UNL     1      34.011 -14.807 -22.940  0.00  0.00    -0.265 N 
ATOM     16  C   UNL     1      33.249 -13.961 -23.728  0.00  0.00    +0.269 C 
ATOM     17  H   UNL     1      34.236 -14.481 -22.040  0.00  0.00    +0.157 HD
ATOM     18  N   UNL     1      35.236 -16.766 -22.370  0.00  0.00    -0.229 NA
ATOM     19  C   UNL     1      34.504 -16.090 -23.285  0.00  0.00    +0.134 C 
ATOM     20  C   UNL     1      34.201 -16.573 -24.548  0.00  0.00    +0.034 C 
ATOM     21  C   UNL     1      34.680 -17.831 -24.895  0.00  0.00    +0.004 C 
ATOM     22  C   UNL     1      35.684 -17.986 -22.745  0.00  0.00    +0.100 C 
ATOM     23  C   UNL     1      35.437 -18.557 -23.982  0.00  0.00    +0.021 C 
ENDBRANCH   8  16
BRANCH  10  24
ATOM     24  O   UNL     1      33.714 -11.355 -24.876  0.00  0.00    -0.504 OA
ATOM     25  H   UNL     1      33.347 -10.742 -25.481  0.00  0.00    +0.292 HD
ENDBRANCH  10  24
TORSDOF 2
ENDMDL
MODEL 5
REMARK VINA RESULT:      -8.6      3.872      8.019
REMARK  Name = 54690031
REMARK  2 active torsions:
REMARK  status: ('A' for Active; 'I' for Inactive)
REMARK    1  A    between atoms: C_8  and  C_16
REMARK    2  A    between atoms: C_10  and  O_24
REMARK                            x       y       z     vdW  Elec       q    Type
REMARK                         _______ _______ _______ _____ _____    ______ ____
ROOT
ATOM      1 CL   UNL     1      35.989 -19.779 -21.278  0.00  0.00    -0.075 Cl
ATOM      2  S   UNL     1      34.174 -16.251 -25.142  0.00  0.00    +0.077 S 
ATOM      3  S   UNL     1      34.943 -17.005 -21.117  0.00  0.00    -0.071 S 
ATOM      4  O   UNL     1      35.327 -16.527 -25.976  0.00  0.00    -0.150 OA
ATOM      5  O   UNL     1      32.875 -16.836 -25.405  0.00  0.00    -0.150 OA
ATOM      6  N   UNL     1      34.023 -14.563 -24.901  0.00  0.00    -0.181 N 
ATOM      7  C   UNL     1      34.608 -16.901 -23.626  0.00  0.00    +0.136 C 
ATOM      8  C   UNL     1      33.680 -14.064 -23.580  0.00  0.00    +0.156 C 
ATOM      9  C   UNL     1      34.435 -16.121 -22.508  0.00  0.00    +0.084 C 
ATOM     10  C   UNL     1      33.912 -14.792 -22.462  0.00  0.00    +0.160 C 
ATOM     11  C   UNL     1      35.126 -18.194 -23.389  0.00  0.00    +0.039 C 
ATOM     12  C   UNL     1      33.748 -13.755 -26.115  0.00  0.00    +0.139 C 
ATOM     13  C   UNL     1      35.360 -18.383 -22.047  0.00  0.00    +0.088 C 
ENDROOT
BRANCH   8  16
ATOM     14  O   UNL     1      31.940 -12.554 -23.191  0.00  0.00    -0.268 OA
ATOM     15  N   UNL     1      34.074 -11.734 -23.755  0.00  0.00    -0.265 N 
ATOM     16  C   UNL     1      33.122 -12.703 -23.484  0.00  0.00    +0.269 C 
ATOM     17  H   UNL     1      34.978 -12.058 -23.972  0.00  0.00    +0.157 HD
ATOM     18  N   UNL     1      34.954  -9.543 -24.049  0.00  0.00    -0.229 NA
ATOM     19  C   UNL     1      33.893 -10.329 -23.756  0.00  0.00    +0.134 C 
ATOM     20  C   UNL     1      32.630  -9.847 -23.454  0.00  0.00    +0.034 C 
ATOM     21  C   UNL     1      32.442  -8.469 -23.452  0.00  0.00    +0.004 C 
ATOM     22  C   UNL     1      34.733  -8.209 -24.037  0.00  0.00    +0.100 C 
ATOM     23  C   UNL     1      33.509  -7.628 -23.748  0.00  0.00    +0.021 C 
ENDBRANCH   8  16
BRANCH  10  24
ATOM     24  O   UNL     1      33.676 -14.343 -21.176  0.00  0.00    -0.504 OA
ATOM     25  H   UNL     1      34.088 -13.560 -20.869  0.00  0.00    +0.292 HD
ENDBRANCH  10  24
TORSDOF 2
ENDMDL
MODEL 6
REMARK VINA RESULT:      -8.4      3.707      8.008
REMARK  Name = 54690031
REMARK  2 active torsions:
REMARK  status: ('A' for Active; 'I' for Inactive)
REMARK    1  A    between atoms: C_8  and  C_16
REMARK    2  A    between atoms: C_10  and  O_24
REMARK                            x       y       z     vdW  Elec       q    Type
REMARK                         _______ _______ _______ _____ _____    ______ ____
ROOT
ATOM      1 CL   UNL     1      35.262 -20.458 -25.177  0.00  0.00    -0.075 Cl
ATOM      2  S   UNL     1      34.001 -16.728 -21.281  0.00  0.00    +0.077 S 
ATOM      3  S   UNL     1      34.408 -17.618 -25.331  0.00  0.00    -0.071 S 
ATOM      4  O   UNL     1      33.157 -17.687 -20.597  0.00  0.00    -0.150 OA
ATOM      5  O   UNL     1      35.336 -16.410 -20.818  0.00  0.00    -0.150 OA
ATOM      6  N   UNL     1      33.123 -15.291 -21.582  0.00  0.00    -0.181 N 
ATOM      7  C   UNL     1      34.265 -17.441 -22.808  0.00  0.00    +0.136 C 
ATOM      8  C   UNL     1      33.265 -14.629 -22.867  0.00  0.00    +0.156 C 
ATOM      9  C   UNL     1      34.077 -16.670 -23.929  0.00  0.00    +0.084 C 
ATOM     10  C   UNL     1      33.680 -15.298 -23.970  0.00  0.00    +0.160 C 
ATOM     11  C   UNL     1      34.681 -18.769 -23.050  0.00  0.00    +0.039 C 
ATOM     12  C   UNL     1      32.679 -14.537 -20.383  0.00  0.00    +0.139 C 
ATOM     13  C   UNL     1      34.797 -19.003 -24.400  0.00  0.00    +0.088 C 
ENDROOT
BRANCH   8  16
ATOM     14  O   UNL     1      31.751 -12.867 -22.627  0.00  0.00    -0.268 OA
ATOM     15  N   UNL     1      33.922 -12.421 -23.422  0.00  0.00    -0.265 N 
ATOM     16  C   UNL     1      32.883 -13.208 -22.954  0.00  0.00    +0.269 C 
ATOM     17  H   UNL     1      34.762 -12.887 -23.633  0.00  0.00    +0.157 HD
ATOM     18  N   UNL     1      35.035 -10.429 -24.098  0.00  0.00    -0.229 NA
ATOM     19  C   UNL     1      33.911 -11.020 -23.631  0.00  0.00    +0.134 C 
ATOM     20  C   UNL     1      32.740 -10.339 -23.342  0.00  0.00    +0.034 C 
ATOM     21  C   UNL     1      32.719  -8.964 -23.544  0.00  0.00    +0.004 C 
ATOM     22  C   UNL     1      34.977  -9.091 -24.281  0.00  0.00    +0.100 C 
ATOM     23  C   UNL     1      33.855  -8.320 -24.023  0.00  0.00    +0.021 C 
ENDBRANCH   8  16
BRANCH  10  24
ATOM     24  O   UNL     1      33.765 -14.743 -25.233  0.00  0.00    -0.504 OA
ATOM     25  H   UNL     1      32.991 -14.438 -25.665  0.00  0.00    +0.292 HD
ENDBRANCH  10  24
TORSDOF 2
ENDMDL
MODEL 7
REMARK VINA RESULT:      -8.4      6.290      9.525
REMARK  Name = 54690031
REMARK  2 active torsions:
REMARK  status: ('A' for Active; 'I' for Inactive)
REMARK    1  A    between atoms: C_8  and  C_16
REMARK    2  A    between atoms: C_10  and  O_24
REMARK                            x       y       z     vdW  Elec       q    Type
REMARK                         _______ _______ _______ _____ _____    ______ ____
ROOT
ATOM      1 CL   UNL     1      30.456 -24.667 -13.450  0.00  0.00    -0.075 Cl
ATOM      2  S   UNL     1      35.421 -23.434 -15.571  0.00  0.00    +0.077 S 
ATOM      3  S   UNL     1      31.285 -23.519 -16.060  0.00  0.00    -0.071 S 
ATOM      4  O   UNL     1      35.810 -22.765 -14.346  0.00  0.00    -0.150 OA
ATOM      5  O   UNL     1      35.877 -24.770 -15.896  0.00  0.00    -0.150 OA
ATOM      6  N   UNL     1      35.659 -22.389 -16.906  0.00  0.00    -0.181 N 
ATOM      7  C   UNL     1      33.733 -23.614 -15.415  0.00  0.00    +0.136 C 
ATOM      8  C   UNL     1      34.651 -22.334 -17.950  0.00  0.00    +0.156 C 
ATOM      9  C   UNL     1      32.936 -23.236 -16.468  0.00  0.00    +0.084 C 
ATOM     10  C   UNL     1      33.367 -22.701 -17.721  0.00  0.00    +0.160 C 
ATOM     11  C   UNL     1      33.048 -24.136 -14.294  0.00  0.00    +0.039 C 
ATOM     12  C   UNL     1      37.062 -21.995 -17.181  0.00  0.00    +0.139 C 
ATOM     13  C   UNL     1      31.690 -24.138 -14.514  0.00  0.00    +0.088 C 
ENDROOT
BRANCH   8  16
ATOM     14  O   UNL     1      35.827 -22.448 -19.965  0.00  0.00    -0.268 OA
ATOM     15  N   UNL     1      34.461 -20.579 -19.533  0.00  0.00    -0.265 N 
ATOM     16  C   UNL     1      35.053 -21.803 -19.265  0.00  0.00    +0.269 C 
ATOM     17  H   UNL     1      33.864 -20.223 -18.837  0.00  0.00    +0.157 HD
ATOM     18  N   UNL     1      33.952 -18.611 -20.767  0.00  0.00    -0.229 NA
ATOM     19  C   UNL     1      34.620 -19.784 -20.694  0.00  0.00    +0.134 C 
ATOM     20  C   UNL     1      35.457 -20.264 -21.688  0.00  0.00    +0.034 C 
ATOM     21  C   UNL     1      35.620 -19.490 -22.832  0.00  0.00    +0.004 C 
ATOM     22  C   UNL     1      34.135 -17.886 -21.894  0.00  0.00    +0.100 C 
ATOM     23  C   UNL     1      34.949 -18.277 -22.944  0.00  0.00    +0.021 C 
ENDBRANCH   8  16
BRANCH  10  24
ATOM     24  O   UNL     1      32.349 -22.602 -18.651  0.00  0.00    -0.504 OA
ATOM     25  H   UNL     1      32.522 -22.776 -19.555  0.00  0.00    +0.292 HD
ENDBRANCH  10  24
TORSDOF 2
ENDMDL
MODEL 8
REMARK VINA RESULT:      -8.3      5.961      8.401
REMARK  Name = 54690031
REMARK  2 active torsions:
REMARK  status: ('A' for Active; 'I' for Inactive)
REMARK    1  A    between atoms: C_8  and  C_16
REMARK    2  A    between atoms: C_10  and  O_24
REMARK                            x       y       z     vdW  Elec       q    Type
REMARK                         _______ _______ _______ _____ _____    ______ ____
ROOT
ATOM      1 CL   UNL     1      35.467 -19.047 -22.291  0.00  0.00    -0.075 Cl
ATOM      2  S   UNL     1      33.605 -22.710 -18.577  0.00  0.00    +0.077 S 
ATOM      3  S   UNL     1      36.644 -20.130 -19.789  0.00  0.00    -0.071 S 
ATOM      4  O   UNL     1      32.318 -22.046 -18.526  0.00  0.00    -0.150 OA
ATOM      5  O   UNL     1      33.813 -23.932 -19.326  0.00  0.00    -0.150 OA
ATOM      6  N   UNL     1      34.238 -22.873 -16.995  0.00  0.00    -0.181 N 
ATOM      7  C   UNL     1      34.610 -21.580 -19.366  0.00  0.00    +0.136 C 
ATOM      8  C   UNL     1      35.649 -22.616 -16.766  0.00  0.00    +0.156 C 
ATOM      9  C   UNL     1      35.830 -21.288 -18.804  0.00  0.00    +0.084 C 
ATOM     10  C   UNL     1      36.376 -21.840 -17.604  0.00  0.00    +0.160 C 
ATOM     11  C   UNL     1      34.322 -20.906 -20.573  0.00  0.00    +0.039 C 
ATOM     12  C   UNL     1      33.462 -23.737 -16.071  0.00  0.00    +0.139 C 
ATOM     13  C   UNL     1      35.358 -20.071 -20.921  0.00  0.00    +0.088 C 
ENDROOT
BRANCH   8  16
ATOM     14  O   UNL     1      35.715 -23.006 -14.464  0.00  0.00    -0.268 OA
ATOM     15  N   UNL     1      37.434 -23.860 -15.827  0.00  0.00    -0.265 N 
ATOM     16  C   UNL     1      36.261 -23.178 -15.549  0.00  0.00    +0.269 C 
ATOM     17  H   UNL     1      37.709 -23.887 -16.771  0.00  0.00    +0.157 HD
ATOM     18  N   UNL     1      39.391 -25.136 -15.377  0.00  0.00    -0.229 NA
ATOM     19  C   UNL     1      38.282 -24.523 -14.906  0.00  0.00    +0.134 C 
ATOM     20  C   UNL     1      37.916 -24.499 -13.570  0.00  0.00    +0.034 C 
ATOM     21  C   UNL     1      38.742 -25.146 -12.657  0.00  0.00    +0.004 C 
ATOM     22  C   UNL     1      40.169 -25.754 -14.460  0.00  0.00    +0.100 C 
ATOM     23  C   UNL     1      39.892 -25.788 -13.103  0.00  0.00    +0.021 C 
ENDBRANCH   8  16
BRANCH  10  24
ATOM     24  O   UNL     1      37.700 -21.499 -17.401  0.00  0.00    -0.504 OA
ATOM     25  H   UNL     1      37.978 -20.611 -17.509  0.00  0.00    +0.292 HD
ENDBRANCH  10  24
TORSDOF 2
ENDMDL
MODEL 9
REMARK VINA RESULT:      -7.8      3.783      5.675
REMARK  Name = 54690031
REMARK  2 active torsions:
REMARK  status: ('A' for Active; 'I' for Inactive)
REMARK    1  A    between atoms: C_8  and  C_16
REMARK    2  A    between atoms: C_10  and  O_24
REMARK                            x       y       z     vdW  Elec       q    Type
REMARK                         _______ _______ _______ _____ _____    ______ ____
ROOT
ATOM      1 CL   UNL     1      31.123  -8.617 -19.274  0.00  0.00    -0.075 Cl
ATOM      2  S   UNL     1      33.479 -10.279 -24.003  0.00  0.00    +0.077 S 
ATOM      3  S   UNL     1      31.558 -11.307 -20.452  0.00  0.00    -0.071 S 
ATOM      4  O   UNL     1      32.736  -9.287 -24.754  0.00  0.00    -0.150 OA
ATOM      5  O   UNL     1      34.872 -10.094 -23.651  0.00  0.00    -0.150 OA
ATOM      6  N   UNL     1      33.246 -11.827 -24.695  0.00  0.00    -0.181 N 
ATOM      7  C   UNL     1      32.686 -10.319 -22.494  0.00  0.00    +0.136 C 
ATOM      8  C   UNL     1      33.038 -12.969 -23.822  0.00  0.00    +0.156 C 
ATOM      9  C   UNL     1      32.338 -11.542 -21.972  0.00  0.00    +0.084 C 
ATOM     10  C   UNL     1      32.577 -12.824 -22.557  0.00  0.00    +0.160 C 
ATOM     11  C   UNL     1      32.350  -9.203 -21.696  0.00  0.00    +0.039 C 
ATOM     12  C   UNL     1      33.764 -12.007 -26.074  0.00  0.00    +0.139 C 
ATOM     13  C   UNL     1      31.720  -9.604 -20.541  0.00  0.00    +0.088 C 
ENDROOT
BRANCH   8  16
ATOM     14  O   UNL     1      32.823 -14.607 -25.474  0.00  0.00    -0.268 OA
ATOM     15  N   UNL     1      34.052 -15.090 -23.525  0.00  0.00    -0.265 N 
ATOM     16  C   UNL     1      33.286 -14.312 -24.377  0.00  0.00    +0.269 C 
ATOM     17  H   UNL     1      34.330 -14.669 -22.681  0.00  0.00    +0.157 HD
ATOM     18  N   UNL     1      35.228 -17.017 -22.775  0.00  0.00    -0.229 NA
ATOM     19  C   UNL     1      34.481 -16.424 -23.733  0.00  0.00    +0.134 C 
ATOM     20  C   UNL     1      34.102 -17.041 -24.915  0.00  0.00    +0.034 C 
ATOM     21  C   UNL     1      34.518 -18.350 -25.127  0.00  0.00    +0.004 C 
ATOM     22  C   UNL     1      35.613 -18.291 -23.018  0.00  0.00    +0.100 C 
ATOM     23  C   UNL     1      35.288 -18.994 -24.165  0.00  0.00    +0.021 C 
ENDBRANCH   8  16
BRANCH  10  24
ATOM     24  O   UNL     1      32.289 -13.874 -21.705  0.00  0.00    -0.504 OA
ATOM     25  H   UNL     1      31.631 -14.499 -21.937  0.00  0.00    +0.292 HD
ENDBRANCH  10  24
TORSDOF 2
ENDMDL
