MODEL 1
REMARK VINA RESULT:      -7.1      0.000      0.000
REMARK  Name = 10007
REMARK  3 active torsions:
REMARK  status: ('A' for Active; 'I' for Inactive)
REMARK    1  A    between atoms: C_1  and  C_3
REMARK    2  A    between atoms: C_1  and  C_9
REMARK    3  A    between atoms: C_9  and  N_12
REMARK                            x       y       z     vdW  Elec       q    Type
REMARK                         _______ _______ _______ _____ _____    ______ ____
ROOT
ATOM      1  C   UNL     1      34.452 -17.923 -21.797  0.00  0.00    +0.006 C 
ENDROOT
BRANCH   1   3
ATOM      2 CL   UNL     1      33.810 -22.993 -18.648  0.00  0.00    -0.082 Cl
ATOM      3  C   UNL     1      34.291 -19.200 -21.002  0.00  0.00    -0.024 C 
ATOM      4  C   UNL     1      35.419 -19.883 -20.582  0.00  0.00    -0.003 C 
ATOM      5  C   UNL     1      33.017 -19.660 -20.712  0.00  0.00    -0.003 C 
ATOM      6  C   UNL     1      35.270 -21.062 -19.851  0.00  0.00    +0.011 C 
ATOM      7  C   UNL     1      32.867 -20.839 -19.981  0.00  0.00    +0.011 C 
ATOM      8  C   UNL     1      33.994 -21.539 -19.549  0.00  0.00    +0.058 C 
ENDBRANCH   1   3
BRANCH   1   9
ATOM      9  C   UNL     1      35.135 -18.057 -23.184  0.00  0.00    -0.045 C 
ATOM     10  C   UNL     1      34.734 -19.350 -23.908  0.00  0.00    -0.022 C 
ATOM     11  C   UNL     1      34.862 -16.848 -24.087  0.00  0.00    -0.022 C 
BRANCH   9  12
ATOM     12  N   UNL     1      36.590 -18.116 -22.963  0.00  0.00    +0.383 N 
ATOM     13  H   UNL     1      37.068 -18.197 -23.861  0.00  0.00    -0.089 HD
ATOM     14  H   UNL     1      36.815 -18.925 -22.385  0.00  0.00    -0.089 HD
ATOM     15  H   UNL     1      36.897 -17.265 -22.491  0.00  0.00    -0.089 HD
ENDBRANCH   9  12
ENDBRANCH   1   9
TORSDOF 3
ENDMDL
MODEL 2
REMARK VINA RESULT:      -7.1      0.010      1.395
REMARK  Name = 10007
REMARK  3 active torsions:
REMARK  status: ('A' for Active; 'I' for Inactive)
REMARK    1  A    between atoms: C_1  and  C_3
REMARK    2  A    between atoms: C_1  and  C_9
REMARK    3  A    between atoms: C_9  and  N_12
REMARK                            x       y       z     vdW  Elec       q    Type
REMARK                         _______ _______ _______ _____ _____    ______ ____
ROOT
ATOM      1  C   UNL     1      34.443 -17.921 -21.796  0.00  0.00    +0.006 C 
ENDROOT
BRANCH   1   3
ATOM      2 CL   UNL     1      33.818 -22.992 -18.646  0.00  0.00    -0.082 Cl
ATOM      3  C   UNL     1      34.285 -19.199 -21.003  0.00  0.00    -0.024 C 
ATOM      4  C   UNL     1      33.014 -19.658 -20.704  0.00  0.00    -0.003 C 
ATOM      5  C   UNL     1      35.416 -19.885 -20.592  0.00  0.00    -0.003 C 
ATOM      6  C   UNL     1      32.869 -20.836 -19.972  0.00  0.00    +0.011 C 
ATOM      7  C   UNL     1      35.271 -21.064 -19.860  0.00  0.00    +0.011 C 
ATOM      8  C   UNL     1      33.997 -21.539 -19.551  0.00  0.00    +0.058 C 
ENDBRANCH   1   3
BRANCH   1   9
ATOM      9  C   UNL     1      35.124 -18.051 -23.184  0.00  0.00    -0.045 C 
ATOM     10  C   UNL     1      34.723 -19.343 -23.910  0.00  0.00    -0.022 C 
ATOM     11  C   UNL     1      34.848 -16.841 -24.084  0.00  0.00    -0.022 C 
BRANCH   9  12
ATOM     12  N   UNL     1      36.580 -18.109 -22.966  0.00  0.00    +0.383 N 
ATOM     13  H   UNL     1      36.914 -19.057 -23.139  0.00  0.00    -0.089 HD
ATOM     14  H   UNL     1      36.791 -17.845 -22.004  0.00  0.00    -0.089 HD
ATOM     15  H   UNL     1      37.045 -17.463 -23.605  0.00  0.00    -0.089 HD
ENDBRANCH   9  12
ENDBRANCH   1   9
TORSDOF 3
ENDMDL
MODEL 3
REMARK VINA RESULT:      -6.6      1.648      2.616
REMARK  Name = 10007
REMARK  3 active torsions:
REMARK  status: ('A' for Active; 'I' for Inactive)
REMARK    1  A    between atoms: C_1  and  C_3
REMARK    2  A    between atoms: C_1  and  C_9
REMARK    3  A    between atoms: C_9  and  N_12
REMARK                            x       y       z     vdW  Elec       q    Type
REMARK                         _______ _______ _______ _____ _____    ______ ____
ROOT
ATOM      1  C   UNL     1      34.289 -17.602 -22.224  0.00  0.00    +0.006 C 
ENDROOT
BRANCH   1   3
ATOM      2 CL   UNL     1      34.313 -22.531 -18.798  0.00  0.00    -0.082 Cl
ATOM      3  C   UNL     1      34.294 -18.845 -21.362  0.00  0.00    -0.024 C 
ATOM      4  C   UNL     1      33.092 -19.360 -20.908  0.00  0.00    -0.003 C 
ATOM      5  C   UNL     1      35.503 -19.442 -21.042  0.00  0.00    -0.003 C 
ATOM      6  C   UNL     1      33.098 -20.505 -20.112  0.00  0.00    +0.011 C 
ATOM      7  C   UNL     1      35.509 -20.587 -20.246  0.00  0.00    +0.011 C 
ATOM      8  C   UNL     1      34.306 -21.119 -19.782  0.00  0.00    +0.058 C 
ENDBRANCH   1   3
BRANCH   1   9
ATOM      9  C   UNL     1      34.106 -16.251 -21.482  0.00  0.00    -0.045 C 
ATOM     10  C   UNL     1      34.565 -15.056 -22.329  0.00  0.00    -0.022 C 
ATOM     11  C   UNL     1      32.661 -16.034 -21.015  0.00  0.00    -0.022 C 
BRANCH   9  12
ATOM     12  N   UNL     1      34.953 -16.282 -20.278  0.00  0.00    +0.383 N 
ATOM     13  H   UNL     1      35.930 -16.390 -20.551  0.00  0.00    -0.089 HD
ATOM     14  H   UNL     1      34.677 -17.065 -19.687  0.00  0.00    -0.089 HD
ATOM     15  H   UNL     1      34.839 -15.410 -19.760  0.00  0.00    -0.089 HD
ENDBRANCH   9  12
ENDBRANCH   1   9
TORSDOF 3
ENDMDL
MODEL 4
REMARK VINA RESULT:      -6.6      2.086      2.723
REMARK  Name = 10007
REMARK  3 active torsions:
REMARK  status: ('A' for Active; 'I' for Inactive)
REMARK    1  A    between atoms: C_1  and  C_3
REMARK    2  A    between atoms: C_1  and  C_9
REMARK    3  A    between atoms: C_9  and  N_12
REMARK                            x       y       z     vdW  Elec       q    Type
REMARK                         _______ _______ _______ _____ _____    ______ ____
ROOT
ATOM      1  C   UNL     1      34.542 -16.915 -22.428  0.00  0.00    +0.006 C 
ENDROOT
BRANCH   1   3
ATOM      2 CL   UNL     1      35.564 -21.943 -19.314  0.00  0.00    -0.082 Cl
ATOM      3  C   UNL     1      34.800 -18.181 -21.642  0.00  0.00    -0.024 C 
ATOM      4  C   UNL     1      36.103 -18.540 -21.345  0.00  0.00    -0.003 C 
ATOM      5  C   UNL     1      33.726 -18.956 -21.236  0.00  0.00    -0.003 C 
ATOM      6  C   UNL     1      36.341 -19.709 -20.622  0.00  0.00    +0.011 C 
ATOM      7  C   UNL     1      33.963 -20.125 -20.513  0.00  0.00    +0.011 C 
ATOM      8  C   UNL     1      35.271 -20.501 -20.205  0.00  0.00    +0.058 C 
ENDBRANCH   1   3
BRANCH   1   9
ATOM      9  C   UNL     1      34.087 -15.677 -21.609  0.00  0.00    -0.045 C 
ATOM     10  C   UNL     1      32.563 -15.625 -21.432  0.00  0.00    -0.022 C 
ATOM     11  C   UNL     1      34.774 -15.601 -20.239  0.00  0.00    -0.022 C 
BRANCH   9  12
ATOM     12  N   UNL     1      34.480 -14.473 -22.360  0.00  0.00    +0.383 N 
ATOM     13  H   UNL     1      33.651 -13.915 -22.567  0.00  0.00    -0.089 HD
ATOM     14  H   UNL     1      34.931 -14.747 -23.232  0.00  0.00    -0.089 HD
ATOM     15  H   UNL     1      35.130 -13.920 -21.801  0.00  0.00    -0.089 HD
ENDBRANCH   9  12
ENDBRANCH   1   9
TORSDOF 3
ENDMDL
MODEL 5
REMARK VINA RESULT:      -6.5      3.813      5.454
REMARK  Name = 10007
REMARK  3 active torsions:
REMARK  status: ('A' for Active; 'I' for Inactive)
REMARK    1  A    between atoms: C_1  and  C_3
REMARK    2  A    between atoms: C_1  and  C_9
REMARK    3  A    between atoms: C_9  and  N_12
REMARK                            x       y       z     vdW  Elec       q    Type
REMARK                         _______ _______ _______ _____ _____    ______ ____
ROOT
ATOM      1  C   UNL     1      35.287 -17.723 -21.009  0.00  0.00    +0.006 C 
ENDROOT
BRANCH   1   3
ATOM      2 CL   UNL     1      32.213 -12.960 -22.983  0.00  0.00    -0.082 Cl
ATOM      3  C   UNL     1      34.513 -16.522 -21.505  0.00  0.00    -0.024 C 
ATOM      4  C   UNL     1      33.481 -16.015 -20.734  0.00  0.00    -0.003 C 
ATOM      5  C   UNL     1      34.852 -15.954 -22.722  0.00  0.00    -0.003 C 
ATOM      6  C   UNL     1      32.766 -14.909 -21.193  0.00  0.00    +0.011 C 
ATOM      7  C   UNL     1      34.138 -14.848 -23.181  0.00  0.00    +0.011 C 
ATOM      8  C   UNL     1      33.095 -14.325 -22.416  0.00  0.00    +0.058 C 
ENDBRANCH   1   3
BRANCH   1   9
ATOM      9  C   UNL     1      34.762 -19.113 -21.457  0.00  0.00    -0.045 C 
ATOM     10  C   UNL     1      33.350 -19.401 -20.927  0.00  0.00    -0.022 C 
ATOM     11  C   UNL     1      34.790 -19.282 -22.982  0.00  0.00    -0.022 C 
BRANCH   9  12
ATOM     12  N   UNL     1      35.657 -20.136 -20.889  0.00  0.00    +0.383 N 
ATOM     13  H   UNL     1      35.105 -20.934 -20.573  0.00  0.00    -0.089 HD
ATOM     14  H   UNL     1      36.166 -19.742 -20.099  0.00  0.00    -0.089 HD
ATOM     15  H   UNL     1      36.320 -20.441 -21.602  0.00  0.00    -0.089 HD
ENDBRANCH   9  12
ENDBRANCH   1   9
TORSDOF 3
ENDMDL
MODEL 6
REMARK VINA RESULT:      -6.5      3.807      5.356
REMARK  Name = 10007
REMARK  3 active torsions:
REMARK  status: ('A' for Active; 'I' for Inactive)
REMARK    1  A    between atoms: C_1  and  C_3
REMARK    2  A    between atoms: C_1  and  C_9
REMARK    3  A    between atoms: C_9  and  N_12
REMARK                            x       y       z     vdW  Elec       q    Type
REMARK                         _______ _______ _______ _____ _____    ______ ____
ROOT
ATOM      1  C   UNL     1      35.287 -17.732 -21.012  0.00  0.00    +0.006 C 
ENDROOT
BRANCH   1   3
ATOM      2 CL   UNL     1      32.217 -12.974 -23.005  0.00  0.00    -0.082 Cl
ATOM      3  C   UNL     1      34.513 -16.534 -21.515  0.00  0.00    -0.024 C 
ATOM      4  C   UNL     1      34.864 -15.959 -22.725  0.00  0.00    -0.003 C 
ATOM      5  C   UNL     1      33.468 -16.035 -20.754  0.00  0.00    -0.003 C 
ATOM      6  C   UNL     1      34.151 -14.854 -23.187  0.00  0.00    +0.011 C 
ATOM      7  C   UNL     1      32.755 -14.929 -21.217  0.00  0.00    +0.011 C 
ATOM      8  C   UNL     1      33.096 -14.339 -22.434  0.00  0.00    +0.058 C 
ENDBRANCH   1   3
BRANCH   1   9
ATOM      9  C   UNL     1      34.764 -19.124 -21.455  0.00  0.00    -0.045 C 
ATOM     10  C   UNL     1      33.355 -19.415 -20.919  0.00  0.00    -0.022 C 
ATOM     11  C   UNL     1      34.787 -19.297 -22.979  0.00  0.00    -0.022 C 
BRANCH   9  12
ATOM     12  N   UNL     1      35.664 -20.143 -20.888  0.00  0.00    +0.383 N 
ATOM     13  H   UNL     1      36.622 -19.955 -21.186  0.00  0.00    -0.089 HD
ATOM     14  H   UNL     1      35.382 -21.066 -21.214  0.00  0.00    -0.089 HD
ATOM     15  H   UNL     1      35.613 -20.112 -19.869  0.00  0.00    -0.089 HD
ENDBRANCH   9  12
ENDBRANCH   1   9
TORSDOF 3
ENDMDL
MODEL 7
REMARK VINA RESULT:      -6.5      3.697      5.744
REMARK  Name = 10007
REMARK  3 active torsions:
REMARK  status: ('A' for Active; 'I' for Inactive)
REMARK    1  A    between atoms: C_1  and  C_3
REMARK    2  A    between atoms: C_1  and  C_9
REMARK    3  A    between atoms: C_9  and  N_12
REMARK                            x       y       z     vdW  Elec       q    Type
REMARK                         _______ _______ _______ _____ _____    ______ ____
ROOT
ATOM      1  C   UNL     1      35.998 -18.311 -22.789  0.00  0.00    +0.006 C 
ENDROOT
BRANCH   1   3
ATOM      2 CL   UNL     1      32.726 -14.397 -25.952  0.00  0.00    -0.082 Cl
ATOM      3  C   UNL     1      35.173 -17.326 -23.586  0.00  0.00    -0.024 C 
ATOM      4  C   UNL     1      34.651 -17.712 -24.809  0.00  0.00    -0.003 C 
ATOM      5  C   UNL     1      34.956 -16.056 -23.076  0.00  0.00    -0.003 C 
ATOM      6  C   UNL     1      33.891 -16.802 -25.543  0.00  0.00    +0.011 C 
ATOM      7  C   UNL     1      34.196 -15.146 -23.811  0.00  0.00    +0.011 C 
ATOM      8  C   UNL     1      33.663 -15.520 -25.044  0.00  0.00    +0.058 C 
ENDBRANCH   1   3
BRANCH   1   9
ATOM      9  C   UNL     1      35.433 -18.720 -21.403  0.00  0.00    -0.045 C 
ATOM     10  C   UNL     1      34.026 -19.325 -21.503  0.00  0.00    -0.022 C 
ATOM     11  C   UNL     1      36.363 -19.686 -20.657  0.00  0.00    -0.022 C 
BRANCH   9  12
ATOM     12  N   UNL     1      35.325 -17.500 -20.585  0.00  0.00    +0.383 N 
ATOM     13  H   UNL     1      35.662 -17.692 -19.641  0.00  0.00    -0.089 HD
ATOM     14  H   UNL     1      34.351 -17.203 -20.543  0.00  0.00    -0.089 HD
ATOM     15  H   UNL     1      35.889 -16.759 -21.002  0.00  0.00    -0.089 HD
ENDBRANCH   9  12
ENDBRANCH   1   9
TORSDOF 3
ENDMDL
MODEL 8
REMARK VINA RESULT:      -6.0      2.574      3.914
REMARK  Name = 10007
REMARK  3 active torsions:
REMARK  status: ('A' for Active; 'I' for Inactive)
REMARK    1  A    between atoms: C_1  and  C_3
REMARK    2  A    between atoms: C_1  and  C_9
REMARK    3  A    between atoms: C_9  and  N_12
REMARK                            x       y       z     vdW  Elec       q    Type
REMARK                         _______ _______ _______ _____ _____    ______ ____
ROOT
ATOM      1  C   UNL     1      34.967 -15.468 -23.888  0.00  0.00    +0.006 C 
ENDROOT
BRANCH   1   3
ATOM      2 CL   UNL     1      34.778 -20.473 -20.580  0.00  0.00    -0.082 Cl
ATOM      3  C   UNL     1      34.921 -16.730 -23.055  0.00  0.00    -0.024 C 
ATOM      4  C   UNL     1      34.687 -17.944 -23.677  0.00  0.00    -0.003 C 
ATOM      5  C   UNL     1      35.112 -16.644 -21.686  0.00  0.00    -0.003 C 
ATOM      6  C   UNL     1      34.642 -19.107 -22.908  0.00  0.00    +0.011 C 
ATOM      7  C   UNL     1      35.068 -17.807 -20.917  0.00  0.00    +0.011 C 
ATOM      8  C   UNL     1      34.834 -19.038 -21.529  0.00  0.00    +0.058 C 
ENDBRANCH   1   3
BRANCH   1   9
ATOM      9  C   UNL     1      33.741 -14.523 -23.775  0.00  0.00    -0.045 C 
ATOM     10  C   UNL     1      32.925 -14.469 -25.074  0.00  0.00    -0.022 C 
ATOM     11  C   UNL     1      32.826 -14.895 -22.601  0.00  0.00    -0.022 C 
BRANCH   9  12
ATOM     12  N   UNL     1      34.244 -13.163 -23.520  0.00  0.00    +0.383 N 
ATOM     13  H   UNL     1      34.685 -13.129 -22.601  0.00  0.00    -0.089 HD
ATOM     14  H   UNL     1      33.469 -12.502 -23.549  0.00  0.00    -0.089 HD
ATOM     15  H   UNL     1      34.929 -12.915 -24.235  0.00  0.00    -0.089 HD
ENDBRANCH   9  12
ENDBRANCH   1   9
TORSDOF 3
ENDMDL
MODEL 9
REMARK VINA RESULT:      -6.0      3.800      5.836
REMARK  Name = 10007
REMARK  3 active torsions:
REMARK  status: ('A' for Active; 'I' for Inactive)
REMARK    1  A    between atoms: C_1  and  C_3
REMARK    2  A    between atoms: C_1  and  C_9
REMARK    3  A    between atoms: C_9  and  N_12
REMARK                            x       y       z     vdW  Elec       q    Type
REMARK                         _______ _______ _______ _____ _____    ______ ____
ROOT
ATOM      1  C   UNL     1      35.883 -17.601 -22.387  0.00  0.00    +0.006 C 
ENDROOT
BRANCH   1   3
ATOM      2 CL   UNL     1      32.646 -14.199 -26.127  0.00  0.00    -0.082 Cl
ATOM      3  C   UNL     1      35.066 -16.745 -23.329  0.00  0.00    -0.024 C 
ATOM      4  C   UNL     1      34.781 -17.217 -24.599  0.00  0.00    -0.003 C 
ATOM      5  C   UNL     1      34.621 -15.504 -22.903  0.00  0.00    -0.003 C 
ATOM      6  C   UNL     1      34.029 -16.426 -25.468  0.00  0.00    +0.011 C 
ATOM      7  C   UNL     1      33.869 -14.713 -23.772  0.00  0.00    +0.011 C 
ATOM      8  C   UNL     1      33.573 -15.175 -25.054  0.00  0.00    +0.058 C 
ENDBRANCH   1   3
BRANCH   1   9
ATOM      9  C   UNL     1      35.152 -18.812 -21.750  0.00  0.00    -0.045 C 
ATOM     10  C   UNL     1      36.038 -19.565 -20.747  0.00  0.00    -0.022 C 
ATOM     11  C   UNL     1      33.833 -18.409 -21.078  0.00  0.00    -0.022 C 
BRANCH   9  12
ATOM     12  N   UNL     1      34.819 -19.756 -22.831  0.00  0.00    +0.383 N 
ATOM     13  H   UNL     1      35.639 -19.899 -23.422  0.00  0.00    -0.089 HD
ATOM     14  H   UNL     1      34.059 -19.375 -23.392  0.00  0.00    -0.089 HD
ATOM     15  H   UNL     1      34.531 -20.647 -22.427  0.00  0.00    -0.089 HD
ENDBRANCH   9  12
ENDBRANCH   1   9
TORSDOF 3
ENDMDL
