MODEL 1
REMARK VINA RESULT:     -10.2      0.000      0.000
REMARK  Name = 54677971
REMARK  2 active torsions:
REMARK  status: ('A' for Active; 'I' for Inactive)
REMARK    1  A    between atoms: C_7  and  C_15
REMARK    2  A    between atoms: C_9  and  O_23
REMARK                            x       y       z     vdW  Elec       q    Type
REMARK                         _______ _______ _______ _____ _____    ______ ____
ROOT
ATOM      1  S   UNL     1      34.149 -16.710 -25.315  0.00  0.00    +0.077 S 
ATOM      2  S   UNL     1      33.453 -13.648 -22.578  0.00  0.00    -0.082 S 
ATOM      3  O   UNL     1      32.989 -16.973 -26.142  0.00  0.00    -0.150 OA
ATOM      4  O   UNL     1      35.452 -16.432 -25.885  0.00  0.00    -0.150 OA
ATOM      5  N   UNL     1      34.280 -17.906 -24.099  0.00  0.00    -0.181 N 
ATOM      6  C   UNL     1      33.749 -15.263 -24.506  0.00  0.00    +0.135 C 
ATOM      7  C   UNL     1      34.635 -17.507 -22.748  0.00  0.00    +0.156 C 
ATOM      8  C   UNL     1      33.927 -15.206 -23.146  0.00  0.00    +0.083 C 
ATOM      9  C   UNL     1      34.430 -16.245 -22.302  0.00  0.00    +0.160 C 
ATOM     10  C   UNL     1      33.253 -14.082 -25.102  0.00  0.00    +0.028 C 
ATOM     11  C   UNL     1      34.524 -19.292 -24.572  0.00  0.00    +0.139 C 
ATOM     12  C   UNL     1      33.043 -13.111 -24.151  0.00  0.00    +0.037 C 
ENDROOT
BRANCH   7  15
ATOM     13  O   UNL     1      36.388 -18.635 -21.696  0.00  0.00    -0.268 OA
ATOM     14  N   UNL     1      34.169 -19.296 -21.265  0.00  0.00    -0.265 N 
ATOM     15  C   UNL     1      35.174 -18.540 -21.846  0.00  0.00    +0.269 C 
ATOM     16  H   UNL     1      33.246 -19.061 -21.515  0.00  0.00    +0.157 HD
ATOM     17  N   UNL     1      33.206 -20.987 -19.895  0.00  0.00    -0.229 NA
ATOM     18  C   UNL     1      34.318 -20.368 -20.353  0.00  0.00    +0.134 C 
ATOM     19  C   UNL     1      35.607 -20.718 -19.984  0.00  0.00    +0.034 C 
ATOM     20  C   UNL     1      35.766 -21.771 -19.089  0.00  0.00    +0.004 C 
ATOM     21  C   UNL     1      33.400 -22.004 -19.027  0.00  0.00    +0.100 C 
ATOM     22  C   UNL     1      34.645 -22.431 -18.597  0.00  0.00    +0.021 C 
ENDBRANCH   7  15
BRANCH   9  23
ATOM     23  O   UNL     1      34.679 -15.823 -21.009  0.00  0.00    -0.504 OA
ATOM     24  H   UNL     1      34.248 -15.061 -20.674  0.00  0.00    +0.292 HD
ENDBRANCH   9  23
TORSDOF 2
ENDMDL
MODEL 2
REMARK VINA RESULT:      -9.5      4.067      6.510
REMARK  Name = 54677971
REMARK  2 active torsions:
REMARK  status: ('A' for Active; 'I' for Inactive)
REMARK    1  A    between atoms: C_7  and  C_15
REMARK    2  A    between atoms: C_9  and  O_23
REMARK                            x       y       z     vdW  Elec       q    Type
REMARK                         _______ _______ _______ _____ _____    ______ ____
ROOT
ATOM      1  S   UNL     1      31.837 -10.571 -21.945  0.00  0.00    +0.077 S 
ATOM      2  S   UNL     1      34.621  -8.347 -24.103  0.00  0.00    -0.082 S 
ATOM      3  O   UNL     1      31.964 -10.360 -20.517  0.00  0.00    -0.150 OA
ATOM      4  O   UNL     1      30.578 -10.395 -22.640  0.00  0.00    -0.150 OA
ATOM      5  N   UNL     1      32.545 -12.067 -22.377  0.00  0.00    -0.181 N 
ATOM      6  C   UNL     1      32.839  -9.367 -22.621  0.00  0.00    +0.135 C 
ATOM      7  C   UNL     1      33.355 -12.146 -23.581  0.00  0.00    +0.156 C 
ATOM      8  C   UNL     1      33.741  -9.737 -23.589  0.00  0.00    +0.083 C 
ATOM      9  C   UNL     1      33.940 -11.050 -24.119  0.00  0.00    +0.160 C 
ATOM     10  C   UNL     1      32.833  -7.993 -22.292  0.00  0.00    +0.028 C 
ATOM     11  C   UNL     1      31.903 -13.278 -21.810  0.00  0.00    +0.139 C 
ATOM     12  C   UNL     1      33.770  -7.314 -23.035  0.00  0.00    +0.037 C 
ENDROOT
BRANCH   7  15
ATOM     13  O   UNL     1      33.211 -13.692 -25.326  0.00  0.00    -0.268 OA
ATOM     14  N   UNL     1      34.197 -14.342 -23.289  0.00  0.00    -0.265 N 
ATOM     15  C   UNL     1      33.575 -13.477 -24.174  0.00  0.00    +0.269 C 
ATOM     16  H   UNL     1      34.412 -13.977 -22.400  0.00  0.00    +0.157 HD
ATOM     17  N   UNL     1      35.164 -16.376 -22.520  0.00  0.00    -0.229 NA
ATOM     18  C   UNL     1      34.560 -15.691 -23.518  0.00  0.00    +0.134 C 
ATOM     19  C   UNL     1      34.269 -16.229 -24.762  0.00  0.00    +0.034 C 
ATOM     20  C   UNL     1      34.620 -17.554 -24.997  0.00  0.00    +0.004 C 
ATOM     21  C   UNL     1      35.491 -17.660 -22.786  0.00  0.00    +0.100 C 
ATOM     22  C   UNL     1      35.243 -18.290 -23.995  0.00  0.00    +0.021 C 
ENDBRANCH   7  15
BRANCH   9  23
ATOM     23  O   UNL     1      34.778 -11.071 -25.218  0.00  0.00    -0.504 OA
ATOM     24  H   UNL     1      35.091 -11.889 -25.552  0.00  0.00    +0.292 HD
ENDBRANCH   9  23
TORSDOF 2
ENDMDL
MODEL 3
REMARK VINA RESULT:      -9.5      1.456      2.771
REMARK  Name = 54677971
REMARK  2 active torsions:
REMARK  status: ('A' for Active; 'I' for Inactive)
REMARK    1  A    between atoms: C_7  and  C_15
REMARK    2  A    between atoms: C_9  and  O_23
REMARK                            x       y       z     vdW  Elec       q    Type
REMARK                         _______ _______ _______ _____ _____    ______ ____
ROOT
ATOM      1  S   UNL     1      33.436 -14.467 -22.274  0.00  0.00    +0.077 S 
ATOM      2  S   UNL     1      33.585 -15.763 -26.231  0.00  0.00    -0.082 S 
ATOM      3  O   UNL     1      34.078 -13.180 -22.101  0.00  0.00    -0.150 OA
ATOM      4  O   UNL     1      32.077 -14.715 -21.837  0.00  0.00    -0.150 OA
ATOM      5  N   UNL     1      34.470 -15.713 -21.721  0.00  0.00    -0.181 N 
ATOM      6  C   UNL     1      33.350 -14.650 -23.968  0.00  0.00    +0.135 C 
ATOM      7  C   UNL     1      34.587 -16.935 -22.498  0.00  0.00    +0.156 C 
ATOM      8  C   UNL     1      33.776 -15.834 -24.519  0.00  0.00    +0.083 C 
ATOM      9  C   UNL     1      34.292 -16.969 -23.819  0.00  0.00    +0.160 C 
ATOM     10  C   UNL     1      32.864 -13.695 -24.888  0.00  0.00    +0.028 C 
ATOM     11  C   UNL     1      34.786 -15.699 -20.271  0.00  0.00    +0.139 C 
ATOM     12  C   UNL     1      32.939 -14.178 -26.173  0.00  0.00    +0.037 C 
ENDROOT
BRANCH   7  15
ATOM     13  O   UNL     1      36.300 -18.382 -21.845  0.00  0.00    -0.268 OA
ATOM     14  N   UNL     1      34.085 -18.855 -21.202  0.00  0.00    -0.265 N 
ATOM     15  C   UNL     1      35.098 -18.137 -21.815  0.00  0.00    +0.269 C 
ATOM     16  H   UNL     1      33.174 -18.490 -21.292  0.00  0.00    +0.157 HD
ATOM     17  N   UNL     1      33.092 -20.608 -19.937  0.00  0.00    -0.229 NA
ATOM     18  C   UNL     1      34.209 -20.054 -20.461  0.00  0.00    +0.134 C 
ATOM     19  C   UNL     1      35.479 -20.589 -20.319  0.00  0.00    +0.034 C 
ATOM     20  C   UNL     1      35.612 -21.768 -19.593  0.00  0.00    +0.004 C 
ATOM     21  C   UNL     1      33.261 -21.753 -19.238  0.00  0.00    +0.100 C 
ATOM     22  C   UNL     1      34.486 -22.367 -19.039  0.00  0.00    +0.021 C 
ENDBRANCH   7  15
BRANCH   9  23
ATOM     23  O   UNL     1      34.450 -18.080 -24.626  0.00  0.00    -0.504 OA
ATOM     24  H   UNL     1      35.263 -18.548 -24.624  0.00  0.00    +0.292 HD
ENDBRANCH   9  23
TORSDOF 2
ENDMDL
MODEL 4
REMARK VINA RESULT:      -8.7      4.137      8.755
REMARK  Name = 54677971
REMARK  2 active torsions:
REMARK  status: ('A' for Active; 'I' for Inactive)
REMARK    1  A    between atoms: C_7  and  C_15
REMARK    2  A    between atoms: C_9  and  O_23
REMARK                            x       y       z     vdW  Elec       q    Type
REMARK                         _______ _______ _______ _____ _____    ______ ____
ROOT
ATOM      1  S   UNL     1      33.641 -15.253 -21.260  0.00  0.00    +0.077 S 
ATOM      2  S   UNL     1      34.253 -16.075 -25.298  0.00  0.00    -0.082 S 
ATOM      3  O   UNL     1      32.803 -16.250 -20.625  0.00  0.00    -0.150 OA
ATOM      4  O   UNL     1      34.944 -14.896 -20.736  0.00  0.00    -0.150 OA
ATOM      5  N   UNL     1      32.728 -13.843 -21.581  0.00  0.00    -0.181 N 
ATOM      6  C   UNL     1      33.996 -15.936 -22.782  0.00  0.00    +0.135 C 
ATOM      7  C   UNL     1      32.902 -13.160 -22.851  0.00  0.00    +0.156 C 
ATOM      8  C   UNL     1      33.829 -15.157 -23.901  0.00  0.00    +0.083 C 
ATOM      9  C   UNL     1      33.386 -13.798 -23.942  0.00  0.00    +0.160 C 
ATOM     10  C   UNL     1      34.468 -17.246 -23.021  0.00  0.00    +0.028 C 
ATOM     11  C   UNL     1      32.207 -13.121 -20.393  0.00  0.00    +0.139 C 
ATOM     12  C   UNL     1      34.650 -17.457 -24.368  0.00  0.00    +0.037 C 
ENDROOT
BRANCH   7  15
ATOM     13  O   UNL     1      31.318 -11.454 -22.659  0.00  0.00    -0.268 OA
ATOM     14  N   UNL     1      33.507 -10.922 -23.346  0.00  0.00    -0.265 N 
ATOM     15  C   UNL     1      32.475 -11.751 -22.938  0.00  0.00    +0.269 C 
ATOM     16  H   UNL     1      34.373 -11.357 -23.523  0.00  0.00    +0.157 HD
ATOM     17  N   UNL     1      34.580  -8.884 -23.942  0.00  0.00    -0.229 NA
ATOM     18  C   UNL     1      33.458  -9.520 -23.537  0.00  0.00    +0.134 C 
ATOM     19  C   UNL     1      32.251  -8.884 -23.294  0.00  0.00    +0.034 C 
ATOM     20  C   UNL     1      32.191  -7.507 -23.479  0.00  0.00    +0.004 C 
ATOM     21  C   UNL     1      34.483  -7.546 -24.110  0.00  0.00    +0.100 C 
ATOM     22  C   UNL     1      33.325  -6.818 -23.895  0.00  0.00    +0.021 C 
ENDBRANCH   7  15
BRANCH   9  23
ATOM     23  O   UNL     1      33.507 -13.225 -25.194  0.00  0.00    -0.504 OA
ATOM     24  H   UNL     1      34.317 -13.289 -25.663  0.00  0.00    +0.292 HD
ENDBRANCH   9  23
TORSDOF 2
ENDMDL
MODEL 5
REMARK VINA RESULT:      -8.4      3.330      7.766
REMARK  Name = 54677971
REMARK  2 active torsions:
REMARK  status: ('A' for Active; 'I' for Inactive)
REMARK    1  A    between atoms: C_7  and  C_15
REMARK    2  A    between atoms: C_9  and  O_23
REMARK                            x       y       z     vdW  Elec       q    Type
REMARK                         _______ _______ _______ _____ _____    ______ ____
ROOT
ATOM      1  S   UNL     1      34.235 -16.561 -25.272  0.00  0.00    +0.077 S 
ATOM      2  S   UNL     1      35.120 -17.437 -21.297  0.00  0.00    -0.082 S 
ATOM      3  O   UNL     1      35.369 -16.791 -26.144  0.00  0.00    -0.150 OA
ATOM      4  O   UNL     1      32.939 -17.160 -25.521  0.00  0.00    -0.150 OA
ATOM      5  N   UNL     1      34.062 -14.886 -24.971  0.00  0.00    -0.181 N 
ATOM      6  C   UNL     1      34.718 -17.254 -23.791  0.00  0.00    +0.135 C 
ATOM      7  C   UNL     1      33.747 -14.437 -23.626  0.00  0.00    +0.156 C 
ATOM      8  C   UNL     1      34.562 -16.515 -22.643  0.00  0.00    +0.083 C 
ATOM      9  C   UNL     1      34.020 -15.197 -22.539  0.00  0.00    +0.160 C 
ATOM     10  C   UNL     1      35.263 -18.545 -23.610  0.00  0.00    +0.028 C 
ATOM     11  C   UNL     1      33.743 -14.043 -26.150  0.00  0.00    +0.139 C 
ATOM     12  C   UNL     1      35.534 -18.775 -22.282  0.00  0.00    +0.037 C 
ENDROOT
BRANCH   7  15
ATOM     13  O   UNL     1      32.004 -12.971 -23.104  0.00  0.00    -0.268 OA
ATOM     14  N   UNL     1      34.084 -12.095 -23.777  0.00  0.00    -0.265 N 
ATOM     15  C   UNL     1      33.170 -13.089 -23.470  0.00  0.00    +0.269 C 
ATOM     16  H   UNL     1      34.980 -12.397 -24.054  0.00  0.00    +0.157 HD
ATOM     17  N   UNL     1      34.902  -9.882 -24.079  0.00  0.00    -0.229 NA
ATOM     18  C   UNL     1      33.877 -10.696 -23.739  0.00  0.00    +0.134 C 
ATOM     19  C   UNL     1      32.625 -10.245 -23.353  0.00  0.00    +0.034 C 
ATOM     20  C   UNL     1      32.410  -8.872 -23.313  0.00  0.00    +0.004 C 
ATOM     21  C   UNL     1      34.656  -8.554 -24.027  0.00  0.00    +0.100 C 
ATOM     22  C   UNL     1      33.441  -8.003 -23.656  0.00  0.00    +0.021 C 
ENDBRANCH   7  15
BRANCH   9  23
ATOM     23  O   UNL     1      33.810 -14.796 -21.233  0.00  0.00    -0.504 OA
ATOM     24  H   UNL     1      34.026 -15.373 -20.526  0.00  0.00    +0.292 HD
ENDBRANCH   9  23
TORSDOF 2
ENDMDL
MODEL 6
REMARK VINA RESULT:      -8.3      2.020      2.419
REMARK  Name = 54677971
REMARK  2 active torsions:
REMARK  status: ('A' for Active; 'I' for Inactive)
REMARK    1  A    between atoms: C_7  and  C_15
REMARK    2  A    between atoms: C_9  and  O_23
REMARK                            x       y       z     vdW  Elec       q    Type
REMARK                         _______ _______ _______ _____ _____    ______ ____
ROOT
ATOM      1  S   UNL     1      33.261 -13.855 -24.258  0.00  0.00    +0.077 S 
ATOM      2  S   UNL     1      31.794 -12.652 -20.550  0.00  0.00    -0.082 S 
ATOM      3  O   UNL     1      32.222 -13.887 -25.268  0.00  0.00    -0.150 OA
ATOM      4  O   UNL     1      34.494 -13.117 -24.445  0.00  0.00    -0.150 OA
ATOM      5  N   UNL     1      33.600 -15.444 -23.723  0.00  0.00    -0.181 N 
ATOM      6  C   UNL     1      32.519 -13.067 -22.941  0.00  0.00    +0.135 C 
ATOM      7  C   UNL     1      33.801 -15.686 -22.304  0.00  0.00    +0.156 C 
ATOM      8  C   UNL     1      32.622 -13.639 -21.696  0.00  0.00    +0.083 C 
ATOM      9  C   UNL     1      33.306 -14.849 -21.363  0.00  0.00    +0.160 C 
ATOM     10  C   UNL     1      31.800 -11.851 -22.991  0.00  0.00    +0.028 C 
ATOM     11  C   UNL     1      34.162 -16.367 -24.740  0.00  0.00    +0.139 C 
ATOM     12  C   UNL     1      31.342 -11.508 -21.741  0.00  0.00    +0.037 C 
ENDROOT
BRANCH   7  15
ATOM     13  O   UNL     1      35.721 -17.003 -22.122  0.00  0.00    -0.268 OA
ATOM     14  N   UNL     1      33.669 -17.842 -21.328  0.00  0.00    -0.265 N 
ATOM     15  C   UNL     1      34.516 -16.914 -21.912  0.00  0.00    +0.269 C 
ATOM     16  H   UNL     1      32.723 -17.579 -21.247  0.00  0.00    +0.157 HD
ATOM     17  N   UNL     1      33.032 -19.889 -20.296  0.00  0.00    -0.229 NA
ATOM     18  C   UNL     1      34.009 -19.124 -20.834  0.00  0.00    +0.134 C 
ATOM     19  C   UNL     1      35.334 -19.517 -20.936  0.00  0.00    +0.034 C 
ATOM     20  C   UNL     1      35.679 -20.776 -20.455  0.00  0.00    +0.004 C 
ATOM     21  C   UNL     1      33.406 -21.104 -19.838  0.00  0.00    +0.100 C 
ATOM     22  C   UNL     1      34.702 -21.590 -19.894  0.00  0.00    +0.021 C 
ENDBRANCH   7  15
BRANCH   9  23
ATOM     23  O   UNL     1      33.401 -15.062 -20.000  0.00  0.00    -0.504 OA
ATOM     24  H   UNL     1      33.393 -15.936 -19.661  0.00  0.00    +0.292 HD
ENDBRANCH   9  23
TORSDOF 2
ENDMDL
MODEL 7
REMARK VINA RESULT:      -8.2      3.738      5.847
REMARK  Name = 54677971
REMARK  2 active torsions:
REMARK  status: ('A' for Active; 'I' for Inactive)
REMARK    1  A    between atoms: C_7  and  C_15
REMARK    2  A    between atoms: C_9  and  O_23
REMARK                            x       y       z     vdW  Elec       q    Type
REMARK                         _______ _______ _______ _____ _____    ______ ____
ROOT
ATOM      1  S   UNL     1      33.411 -10.184 -23.888  0.00  0.00    +0.077 S 
ATOM      2  S   UNL     1      31.377 -11.256 -20.414  0.00  0.00    -0.082 S 
ATOM      3  O   UNL     1      32.684  -9.195 -24.659  0.00  0.00    -0.150 OA
ATOM      4  O   UNL     1      34.788  -9.985 -23.485  0.00  0.00    -0.150 OA
ATOM      5  N   UNL     1      33.221 -11.729 -24.598  0.00  0.00    -0.181 N 
ATOM      6  C   UNL     1      32.565 -10.243 -22.408  0.00  0.00    +0.135 C 
ATOM      7  C   UNL     1      32.994 -12.880 -23.740  0.00  0.00    +0.156 C 
ATOM      8  C   UNL     1      32.213 -11.472 -21.907  0.00  0.00    +0.083 C 
ATOM      9  C   UNL     1      32.487 -12.747 -22.492  0.00  0.00    +0.160 C 
ATOM     10  C   UNL     1      32.188  -9.135 -21.616  0.00  0.00    +0.028 C 
ATOM     11  C   UNL     1      33.790 -11.894 -25.959  0.00  0.00    +0.139 C 
ATOM     12  C   UNL     1      31.522  -9.551 -20.487  0.00  0.00    +0.037 C 
ENDROOT
BRANCH   7  15
ATOM     13  O   UNL     1      32.844 -14.513 -25.402  0.00  0.00    -0.268 OA
ATOM     14  N   UNL     1      34.039 -14.984 -23.428  0.00  0.00    -0.265 N 
ATOM     15  C   UNL     1      33.278 -14.216 -24.294  0.00  0.00    +0.269 C 
ATOM     16  H   UNL     1      34.291 -14.561 -22.575  0.00  0.00    +0.157 HD
ATOM     17  N   UNL     1      35.231 -16.894 -22.659  0.00  0.00    -0.229 NA
ATOM     18  C   UNL     1      34.495 -16.309 -23.630  0.00  0.00    +0.134 C 
ATOM     19  C   UNL     1      34.153 -16.927 -24.823  0.00  0.00    +0.034 C 
ATOM     20  C   UNL     1      34.595 -18.229 -25.031  0.00  0.00    +0.004 C 
ATOM     21  C   UNL     1      35.643 -18.159 -22.897  0.00  0.00    +0.100 C 
ATOM     22  C   UNL     1      35.355 -18.864 -24.054  0.00  0.00    +0.021 C 
ENDBRANCH   7  15
BRANCH   9  23
ATOM     23  O   UNL     1      32.181 -13.806 -21.656  0.00  0.00    -0.504 OA
ATOM     24  H   UNL     1      32.461 -13.792 -20.761  0.00  0.00    +0.292 HD
ENDBRANCH   9  23
TORSDOF 2
ENDMDL
MODEL 8
REMARK VINA RESULT:      -8.0     10.209     12.215
REMARK  Name = 54677971
REMARK  2 active torsions:
REMARK  status: ('A' for Active; 'I' for Inactive)
REMARK    1  A    between atoms: C_7  and  C_15
REMARK    2  A    between atoms: C_9  and  O_23
REMARK                            x       y       z     vdW  Elec       q    Type
REMARK                         _______ _______ _______ _____ _____    ______ ____
ROOT
ATOM      1  S   UNL     1      37.681 -24.809 -12.106  0.00  0.00    +0.077 S 
ATOM      2  S   UNL     1      39.495 -24.890 -15.856  0.00  0.00    -0.082 S 
ATOM      3  O   UNL     1      37.809 -26.075 -11.414  0.00  0.00    -0.150 OA
ATOM      4  O   UNL     1      38.093 -23.557 -11.504  0.00  0.00    -0.150 OA
ATOM      5  N   UNL     1      36.106 -24.659 -12.758  0.00  0.00    -0.181 N 
ATOM      6  C   UNL     1      38.726 -24.972 -13.444  0.00  0.00    +0.135 C 
ATOM      7  C   UNL     1      35.942 -24.117 -14.096  0.00  0.00    +0.156 C 
ATOM      8  C   UNL     1      38.251 -24.638 -14.688  0.00  0.00    +0.083 C 
ATOM      9  C   UNL     1      36.946 -24.146 -15.004  0.00  0.00    +0.160 C 
ATOM     10  C   UNL     1      40.068 -25.415 -13.407  0.00  0.00    +0.028 C 
ATOM     11  C   UNL     1      34.997 -24.606 -11.774  0.00  0.00    +0.139 C 
ATOM     12  C   UNL     1      40.611 -25.421 -14.670  0.00  0.00    +0.037 C 
ENDROOT
BRANCH   7  15
ATOM     13  O   UNL     1      34.528 -22.435 -14.888  0.00  0.00    -0.268 OA
ATOM     14  N   UNL     1      33.611 -24.512 -14.261  0.00  0.00    -0.265 N 
ATOM     15  C   UNL     1      34.618 -23.583 -14.463  0.00  0.00    +0.269 C 
ATOM     16  H   UNL     1      33.890 -25.389 -13.910  0.00  0.00    +0.157 HD
ATOM     17  N   UNL     1      31.395 -25.378 -14.241  0.00  0.00    -0.229 NA
ATOM     18  C   UNL     1      32.227 -24.344 -14.504  0.00  0.00    +0.134 C 
ATOM     19  C   UNL     1      31.808 -23.120 -14.999  0.00  0.00    +0.034 C 
ATOM     20  C   UNL     1      30.450 -22.944 -15.240  0.00  0.00    +0.004 C 
ATOM     21  C   UNL     1      30.083 -25.170 -14.488  0.00  0.00    +0.100 C 
ATOM     22  C   UNL     1      29.564 -23.984 -14.982  0.00  0.00    +0.021 C 
ENDBRANCH   7  15
BRANCH   9  23
ATOM     23  O   UNL     1      36.830 -23.713 -16.312  0.00  0.00    -0.504 OA
ATOM     24  H   UNL     1      36.027 -23.839 -16.777  0.00  0.00    +0.292 HD
ENDBRANCH   9  23
TORSDOF 2
ENDMDL
MODEL 9
REMARK VINA RESULT:      -7.9      5.267      9.030
REMARK  Name = 54677971
REMARK  2 active torsions:
REMARK  status: ('A' for Active; 'I' for Inactive)
REMARK    1  A    between atoms: C_7  and  C_15
REMARK    2  A    between atoms: C_9  and  O_23
REMARK                            x       y       z     vdW  Elec       q    Type
REMARK                         _______ _______ _______ _____ _____    ______ ____
ROOT
ATOM      1  S   UNL     1      35.498 -23.441 -15.534  0.00  0.00    +0.077 S 
ATOM      2  S   UNL     1      31.359 -23.624 -15.964  0.00  0.00    -0.082 S 
ATOM      3  O   UNL     1      35.888 -22.761 -14.315  0.00  0.00    -0.150 OA
ATOM      4  O   UNL     1      35.981 -24.767 -15.864  0.00  0.00    -0.150 OA
ATOM      5  N   UNL     1      35.693 -22.393 -16.872  0.00  0.00    -0.181 N 
ATOM      6  C   UNL     1      33.817 -23.660 -15.354  0.00  0.00    +0.135 C 
ATOM      7  C   UNL     1      34.669 -22.362 -17.903  0.00  0.00    +0.156 C 
ATOM      8  C   UNL     1      32.997 -23.302 -16.396  0.00  0.00    +0.083 C 
ATOM      9  C   UNL     1      33.399 -22.758 -17.655  0.00  0.00    +0.160 C 
ATOM     10  C   UNL     1      33.160 -24.196 -14.224  0.00  0.00    +0.028 C 
ATOM     11  C   UNL     1      37.084 -21.966 -17.167  0.00  0.00    +0.139 C 
ATOM     12  C   UNL     1      31.800 -24.231 -14.424  0.00  0.00    +0.037 C 
ENDROOT
BRANCH   7  15
ATOM     13  O   UNL     1      35.763 -22.486 -19.963  0.00  0.00    -0.268 OA
ATOM     14  N   UNL     1      34.486 -20.575 -19.450  0.00  0.00    -0.265 N 
ATOM     15  C   UNL     1      35.041 -21.824 -19.224  0.00  0.00    +0.269 C 
ATOM     16  H   UNL     1      33.928 -20.208 -18.726  0.00  0.00    +0.157 HD
ATOM     17  N   UNL     1      34.004 -18.568 -20.633  0.00  0.00    -0.229 NA
ATOM     18  C   UNL     1      34.629 -19.767 -20.602  0.00  0.00    +0.134 C 
ATOM     19  C   UNL     1      35.409 -20.260 -21.636  0.00  0.00    +0.034 C 
ATOM     20  C   UNL     1      35.558 -19.474 -22.773  0.00  0.00    +0.004 C 
ATOM     21  C   UNL     1      34.170 -17.833 -21.754  0.00  0.00    +0.100 C 
ATOM     22  C   UNL     1      34.930 -18.235 -22.841  0.00  0.00    +0.021 C 
ENDBRANCH   7  15
BRANCH   9  23
ATOM     23  O   UNL     1      32.365 -22.685 -18.571  0.00  0.00    -0.504 OA
ATOM     24  H   UNL     1      32.525 -22.876 -19.475  0.00  0.00    +0.292 HD
ENDBRANCH   9  23
TORSDOF 2
ENDMDL
