MODEL 1
REMARK VINA RESULT:     -10.6      0.000      0.000
REMARK  Name = 3003157
REMARK  4 active torsions:
REMARK  status: ('A' for Active; 'I' for Inactive)
REMARK    1  A    between atoms: C_2  and  C_16
REMARK    2  A    between atoms: C_3  and  C_6
REMARK    3  A    between atoms: C_7  and  C_15
REMARK    4  A    between atoms: C_16  and  C_22
REMARK                            x       y       z     vdW  Elec       q    Type
REMARK                         _______ _______ _______ _____ _____    ______ ____
ROOT
ATOM      1  O   UNL     1      35.088 -17.213 -21.445  0.00  0.00    -0.458 OA
ATOM      2  C   UNL     1      34.989 -16.397 -22.508  0.00  0.00    +0.124 C 
ATOM      3  C   UNL     1      35.450 -18.420 -21.952  0.00  0.00    +0.145 C 
ATOM      4  C   UNL     1      35.269 -17.018 -23.676  0.00  0.00    +0.036 C 
ATOM      5  C   UNL     1      35.575 -18.353 -23.320  0.00  0.00    +0.040 C 
ENDROOT
BRANCH   3   6
ATOM      6  C   UNL     1      35.620 -19.468 -20.985  0.00  0.00    +0.038 C 
ATOM      7  C   UNL     1      34.532 -20.215 -20.519  0.00  0.00    +0.074 C 
ATOM      8  C   UNL     1      36.902 -19.749 -20.498  0.00  0.00    +0.003 C 
ATOM      9  C   UNL     1      34.724 -21.228 -19.580  0.00  0.00    +0.004 C 
ATOM     10  C   UNL     1      37.094 -20.762 -19.560  0.00  0.00    +0.000 C 
ATOM     11  C   UNL     1      36.004 -21.502 -19.100  0.00  0.00    -0.000 C 
BRANCH   7  15
ATOM     12  F   UNL     1      32.590 -18.817 -20.491  0.00  0.00    -0.166 F 
ATOM     13  F   UNL     1      33.066 -19.803 -22.363  0.00  0.00    -0.166 F 
ATOM     14  F   UNL     1      32.281 -20.960 -20.699  0.00  0.00    -0.166 F 
ATOM     15  C   UNL     1      33.144 -19.951 -21.010  0.00  0.00    +0.419 C 
ENDBRANCH   7  15
ENDBRANCH   3   6
BRANCH   2  16
ATOM     16  C   UNL     1      34.592 -14.982 -22.187  0.00  0.00    +0.083 C 
BRANCH  16  22
ATOM     17  S   UNL     1      31.516 -10.565 -21.696  0.00  0.00    -0.018 S 
ATOM     18  O   UNL     1      32.967 -14.281 -24.633  0.00  0.00    -0.274 OA
ATOM     19  O   UNL     1      32.544 -15.094 -19.973  0.00  0.00    -0.274 OA
ATOM     20  N   UNL     1      32.351 -12.619 -23.175  0.00  0.00    -0.267 N 
ATOM     21  N   UNL     1      32.142 -13.021 -20.872  0.00  0.00    -0.267 N 
ATOM     22  C   UNL     1      33.079 -14.788 -22.290  0.00  0.00    +0.161 C 
ATOM     23  C   UNL     1      32.788 -13.895 -23.477  0.00  0.00    +0.236 C 
ATOM     24  C   UNL     1      32.557 -14.338 -20.945  0.00  0.00    +0.236 C 
ATOM     25  C   UNL     1      32.036 -12.139 -21.924  0.00  0.00    +0.143 C 
ATOM     26  H   UNL     1      32.257 -11.992 -23.929  0.00  0.00    +0.157 HD
ATOM     27  H   UNL     1      31.898 -12.681 -19.981  0.00  0.00    +0.157 HD
ENDBRANCH  16  22
ENDBRANCH   2  16
TORSDOF 4
ENDMDL
MODEL 2
REMARK VINA RESULT:      -9.8      1.865      2.425
REMARK  Name = 3003157
REMARK  4 active torsions:
REMARK  status: ('A' for Active; 'I' for Inactive)
REMARK    1  A    between atoms: C_2  and  C_16
REMARK    2  A    between atoms: C_3  and  C_6
REMARK    3  A    between atoms: C_7  and  C_15
REMARK    4  A    between atoms: C_16  and  C_22
REMARK                            x       y       z     vdW  Elec       q    Type
REMARK                         _______ _______ _______ _____ _____    ______ ____
ROOT
ATOM      1  O   UNL     1      34.371 -17.806 -21.255  0.00  0.00    -0.458 OA
ATOM      2  C   UNL     1      34.806 -17.037 -22.267  0.00  0.00    +0.124 C 
ATOM      3  C   UNL     1      34.679 -19.080 -21.614  0.00  0.00    +0.145 C 
ATOM      4  C   UNL     1      35.380 -17.750 -23.262  0.00  0.00    +0.036 C 
ATOM      5  C   UNL     1      35.301 -19.099 -22.841  0.00  0.00    +0.040 C 
ENDROOT
BRANCH   3   6
ATOM      6  C   UNL     1      34.303 -20.094 -20.670  0.00  0.00    +0.038 C 
ATOM      7  C   UNL     1      35.256 -20.745 -19.880  0.00  0.00    +0.074 C 
ATOM      8  C   UNL     1      32.952 -20.437 -20.537  0.00  0.00    +0.003 C 
ATOM      9  C   UNL     1      34.865 -21.727 -18.969  0.00  0.00    +0.004 C 
ATOM     10  C   UNL     1      32.560 -21.418 -19.626  0.00  0.00    +0.000 C 
ATOM     11  C   UNL     1      33.517 -22.063 -18.842  0.00  0.00    -0.000 C 
BRANCH   7  15
ATOM     12  F   UNL     1      37.427 -21.328 -20.698  0.00  0.00    -0.166 F 
ATOM     13  F   UNL     1      36.949 -19.216 -20.597  0.00  0.00    -0.166 F 
ATOM     14  F   UNL     1      37.317 -20.332 -18.768  0.00  0.00    -0.166 F 
ATOM     15  C   UNL     1      36.710 -20.411 -19.987  0.00  0.00    +0.419 C 
ENDBRANCH   7  15
ENDBRANCH   3   6
BRANCH   2  16
ATOM     16  C   UNL     1      34.570 -15.562 -22.090  0.00  0.00    +0.083 C 
BRANCH  16  22
ATOM     17  S   UNL     1      32.091 -10.768 -22.373  0.00  0.00    -0.018 S 
ATOM     18  O   UNL     1      33.245 -14.965 -24.736  0.00  0.00    -0.274 OA
ATOM     19  O   UNL     1      32.364 -15.146 -20.072  0.00  0.00    -0.274 OA
ATOM     20  N   UNL     1      32.750 -13.074 -23.533  0.00  0.00    -0.267 N 
ATOM     21  N   UNL     1      32.315 -13.163 -21.228  0.00  0.00    -0.267 N 
ATOM     22  C   UNL     1      33.110 -15.193 -22.351  0.00  0.00    +0.161 C 
ATOM     23  C   UNL     1      33.032 -14.423 -23.651  0.00  0.00    +0.236 C 
ATOM     24  C   UNL     1      32.553 -14.522 -21.117  0.00  0.00    +0.236 C 
ATOM     25  C   UNL     1      32.409 -12.410 -22.377  0.00  0.00    +0.143 C 
ATOM     26  H   UNL     1      32.800 -12.537 -24.357  0.00  0.00    +0.157 HD
ATOM     27  H   UNL     1      32.052 -12.690 -20.406  0.00  0.00    +0.157 HD
ENDBRANCH  16  22
ENDBRANCH   2  16
TORSDOF 4
ENDMDL
MODEL 3
REMARK VINA RESULT:      -9.8      5.681      8.058
REMARK  Name = 3003157
REMARK  4 active torsions:
REMARK  status: ('A' for Active; 'I' for Inactive)
REMARK    1  A    between atoms: C_2  and  C_16
REMARK    2  A    between atoms: C_3  and  C_6
REMARK    3  A    between atoms: C_7  and  C_15
REMARK    4  A    between atoms: C_16  and  C_22
REMARK                            x       y       z     vdW  Elec       q    Type
REMARK                         _______ _______ _______ _____ _____    ______ ____
ROOT
ATOM      1  O   UNL     1      35.172 -20.404 -20.900  0.00  0.00    -0.458 OA
ATOM      2  C   UNL     1      34.662 -21.090 -19.862  0.00  0.00    +0.124 C 
ATOM      3  C   UNL     1      34.118 -19.738 -21.441  0.00  0.00    +0.145 C 
ATOM      4  C   UNL     1      33.333 -20.900 -19.707  0.00  0.00    +0.036 C 
ATOM      5  C   UNL     1      32.964 -20.009 -20.743  0.00  0.00    +0.040 C 
ENDROOT
BRANCH   3   6
ATOM      6  C   UNL     1      34.426 -18.923 -22.582  0.00  0.00    +0.038 C 
ATOM      7  C   UNL     1      34.702 -17.557 -22.452  0.00  0.00    +0.074 C 
ATOM      8  C   UNL     1      34.450 -19.508 -23.854  0.00  0.00    +0.003 C 
ATOM      9  C   UNL     1      34.998 -16.788 -23.577  0.00  0.00    +0.004 C 
ATOM     10  C   UNL     1      34.747 -18.739 -24.978  0.00  0.00    +0.000 C 
ATOM     11  C   UNL     1      35.021 -17.378 -24.840  0.00  0.00    -0.000 C 
BRANCH   7  15
ATOM     12  F   UNL     1      33.464 -16.902 -20.512  0.00  0.00    -0.166 F 
ATOM     13  F   UNL     1      35.538 -17.459 -20.213  0.00  0.00    -0.166 F 
ATOM     14  F   UNL     1      35.051 -15.576 -21.184  0.00  0.00    -0.166 F 
ATOM     15  C   UNL     1      34.688 -16.889 -21.114  0.00  0.00    +0.419 C 
ENDBRANCH   7  15
ENDBRANCH   3   6
BRANCH   2  16
ATOM     16  C   UNL     1      35.660 -21.917 -19.098  0.00  0.00    +0.083 C 
BRANCH  16  22
ATOM     17  S   UNL     1      37.901 -24.440 -14.877  0.00  0.00    -0.018 S 
ATOM     18  O   UNL     1      37.523 -20.218 -17.439  0.00  0.00    -0.274 OA
ATOM     19  O   UNL     1      33.700 -23.014 -17.081  0.00  0.00    -0.274 OA
ATOM     20  N   UNL     1      37.600 -22.220 -16.319  0.00  0.00    -0.267 N 
ATOM     21  N   UNL     1      35.711 -23.602 -16.142  0.00  0.00    -0.267 N 
ATOM     22  C   UNL     1      35.592 -21.632 -17.598  0.00  0.00    +0.161 C 
ATOM     23  C   UNL     1      36.979 -21.273 -17.112  0.00  0.00    +0.236 C 
ATOM     24  C   UNL     1      34.901 -22.792 -16.917  0.00  0.00    +0.236 C 
ATOM     25  C   UNL     1      37.033 -23.376 -15.831  0.00  0.00    +0.143 C 
ATOM     26  H   UNL     1      38.540 -22.050 -16.081  0.00  0.00    +0.157 HD
ATOM     27  H   UNL     1      35.302 -24.419 -15.777  0.00  0.00    +0.157 HD
ENDBRANCH  16  22
ENDBRANCH   2  16
TORSDOF 4
ENDMDL
MODEL 4
REMARK VINA RESULT:      -9.6      6.699      9.403
REMARK  Name = 3003157
REMARK  4 active torsions:
REMARK  status: ('A' for Active; 'I' for Inactive)
REMARK    1  A    between atoms: C_2  and  C_16
REMARK    2  A    between atoms: C_3  and  C_6
REMARK    3  A    between atoms: C_7  and  C_15
REMARK    4  A    between atoms: C_16  and  C_22
REMARK                            x       y       z     vdW  Elec       q    Type
REMARK                         _______ _______ _______ _____ _____    ______ ____
ROOT
ATOM      1  O   UNL     1      35.457 -21.680 -18.074  0.00  0.00    -0.458 OA
ATOM      2  C   UNL     1      34.942 -22.747 -17.439  0.00  0.00    +0.124 C 
ATOM      3  C   UNL     1      34.811 -21.628 -19.268  0.00  0.00    +0.145 C 
ATOM      4  C   UNL     1      33.996 -23.386 -18.164  0.00  0.00    +0.036 C 
ATOM      5  C   UNL     1      33.902 -22.655 -19.372  0.00  0.00    +0.040 C 
ENDROOT
BRANCH   3   6
ATOM      6  C   UNL     1      35.201 -20.549 -20.132  0.00  0.00    +0.038 C 
ATOM      7  C   UNL     1      34.253 -19.703 -20.717  0.00  0.00    +0.074 C 
ATOM      8  C   UNL     1      36.561 -20.340 -20.394  0.00  0.00    +0.003 C 
ATOM      9  C   UNL     1      34.659 -18.662 -21.553  0.00  0.00    +0.004 C 
ATOM     10  C   UNL     1      36.966 -19.300 -21.228  0.00  0.00    +0.000 C 
ATOM     11  C   UNL     1      36.015 -18.460 -21.809  0.00  0.00    -0.000 C 
BRANCH   7  15
ATOM     12  F   UNL     1      32.189 -20.732 -21.352  0.00  0.00    -0.166 F 
ATOM     13  F   UNL     1      32.511 -20.399 -19.234  0.00  0.00    -0.166 F 
ATOM     14  F   UNL     1      32.097 -18.715 -20.545  0.00  0.00    -0.166 F 
ATOM     15  C   UNL     1      32.790 -19.887 -20.466  0.00  0.00    +0.419 C 
ENDBRANCH   7  15
ENDBRANCH   3   6
BRANCH   2  16
ATOM     16  C   UNL     1      35.515 -23.010 -16.073  0.00  0.00    +0.083 C 
BRANCH  16  22
ATOM     17  S   UNL     1      35.491 -24.581 -10.902  0.00  0.00    -0.018 S 
ATOM     18  O   UNL     1      32.814 -22.929 -14.728  0.00  0.00    -0.274 OA
ATOM     19  O   UNL     1      36.472 -25.832 -15.594  0.00  0.00    -0.274 OA
ATOM     20  N   UNL     1      34.151 -23.713 -13.036  0.00  0.00    -0.267 N 
ATOM     21  N   UNL     1      35.959 -25.148 -13.463  0.00  0.00    -0.267 N 
ATOM     22  C   UNL     1      34.779 -24.148 -15.367  0.00  0.00    +0.161 C 
ATOM     23  C   UNL     1      33.814 -23.550 -14.367  0.00  0.00    +0.236 C 
ATOM     24  C   UNL     1      35.801 -25.129 -14.838  0.00  0.00    +0.236 C 
ATOM     25  C   UNL     1      35.192 -24.468 -12.544  0.00  0.00    +0.143 C 
ATOM     26  H   UNL     1      33.592 -23.242 -12.376  0.00  0.00    +0.157 HD
ATOM     27  H   UNL     1      36.691 -25.702 -13.109  0.00  0.00    +0.157 HD
ENDBRANCH  16  22
ENDBRANCH   2  16
TORSDOF 4
ENDMDL
MODEL 5
REMARK VINA RESULT:      -9.6      4.488      8.104
REMARK  Name = 3003157
REMARK  4 active torsions:
REMARK  status: ('A' for Active; 'I' for Inactive)
REMARK    1  A    between atoms: C_2  and  C_16
REMARK    2  A    between atoms: C_3  and  C_6
REMARK    3  A    between atoms: C_7  and  C_15
REMARK    4  A    between atoms: C_16  and  C_22
REMARK                            x       y       z     vdW  Elec       q    Type
REMARK                         _______ _______ _______ _____ _____    ______ ____
ROOT
ATOM      1  O   UNL     1      33.503 -12.659 -23.180  0.00  0.00    -0.458 OA
ATOM      2  C   UNL     1      33.347 -13.833 -23.815  0.00  0.00    +0.124 C 
ATOM      3  C   UNL     1      33.522 -11.720 -24.162  0.00  0.00    +0.145 C 
ATOM      4  C   UNL     1      33.264 -13.698 -25.158  0.00  0.00    +0.036 C 
ATOM      5  C   UNL     1      33.378 -12.308 -25.397  0.00  0.00    +0.040 C 
ENDROOT
BRANCH   3   6
ATOM      6  C   UNL     1      33.681 -10.364 -23.715  0.00  0.00    +0.038 C 
ATOM      7  C   UNL     1      32.849  -9.817 -22.732  0.00  0.00    +0.074 C 
ATOM      8  C   UNL     1      34.692  -9.574 -24.275  0.00  0.00    +0.003 C 
ATOM      9  C   UNL     1      33.025  -8.498 -22.315  0.00  0.00    +0.004 C 
ATOM     10  C   UNL     1      34.868  -8.255 -23.858  0.00  0.00    +0.000 C 
ATOM     11  C   UNL     1      34.034  -7.716 -22.877  0.00  0.00    -0.000 C 
BRANCH   7  15
ATOM     12  F   UNL     1      30.861 -11.119 -23.007  0.00  0.00    -0.166 F 
ATOM     13  F   UNL     1      32.210 -11.708 -21.415  0.00  0.00    -0.166 F 
ATOM     14  F   UNL     1      31.021  -9.899 -21.214  0.00  0.00    -0.166 F 
ATOM     15  C   UNL     1      31.756 -10.623 -22.105  0.00  0.00    +0.419 C 
ENDBRANCH   7  15
ENDBRANCH   3   6
BRANCH   2  16
ATOM     16  C   UNL     1      33.297 -15.038 -22.916  0.00  0.00    +0.083 C 
BRANCH  16  22
ATOM     17  S   UNL     1      34.930 -19.791 -20.929  0.00  0.00    -0.018 S 
ATOM     18  O   UNL     1      35.042 -16.662 -24.767  0.00  0.00    -0.274 OA
ATOM     19  O   UNL     1      34.911 -14.869 -20.371  0.00  0.00    -0.274 OA
ATOM     20  N   UNL     1      34.937 -18.019 -22.920  0.00  0.00    -0.267 N 
ATOM     21  N   UNL     1      34.873 -17.134 -20.747  0.00  0.00    -0.267 N 
ATOM     22  C   UNL     1      34.695 -15.594 -22.647  0.00  0.00    +0.161 C 
ATOM     23  C   UNL     1      34.920 -16.788 -23.548  0.00  0.00    +0.236 C 
ATOM     24  C   UNL     1      34.850 -15.813 -21.160  0.00  0.00    +0.236 C 
ATOM     25  C   UNL     1      34.903 -18.243 -21.562  0.00  0.00    +0.143 C 
ATOM     26  H   UNL     1      34.977 -18.813 -23.501  0.00  0.00    +0.157 HD
ATOM     27  H   UNL     1      34.867 -17.295 -19.776  0.00  0.00    +0.157 HD
ENDBRANCH  16  22
ENDBRANCH   2  16
TORSDOF 4
ENDMDL
MODEL 6
REMARK VINA RESULT:      -9.6      3.423      4.979
REMARK  Name = 3003157
REMARK  4 active torsions:
REMARK  status: ('A' for Active; 'I' for Inactive)
REMARK    1  A    between atoms: C_2  and  C_16
REMARK    2  A    between atoms: C_3  and  C_6
REMARK    3  A    between atoms: C_7  and  C_15
REMARK    4  A    between atoms: C_16  and  C_22
REMARK                            x       y       z     vdW  Elec       q    Type
REMARK                         _______ _______ _______ _____ _____    ______ ____
ROOT
ATOM      1  O   UNL     1      34.364 -20.470 -19.617  0.00  0.00    -0.458 OA
ATOM      2  C   UNL     1      34.976 -19.911 -20.675  0.00  0.00    +0.124 C 
ATOM      3  C   UNL     1      35.195 -21.464 -19.207  0.00  0.00    +0.145 C 
ATOM      4  C   UNL     1      36.160 -20.494 -20.968  0.00  0.00    +0.036 C 
ATOM      5  C   UNL     1      36.314 -21.520 -20.005  0.00  0.00    +0.040 C 
ENDROOT
BRANCH   3   6
ATOM      6  C   UNL     1      34.743 -22.215 -18.069  0.00  0.00    +0.038 C 
ATOM      7  C   UNL     1      35.562 -22.411 -16.952  0.00  0.00    +0.074 C 
ATOM      8  C   UNL     1      33.454 -22.761 -18.079  0.00  0.00    +0.003 C 
ATOM      9  C   UNL     1      35.099 -23.143 -15.859  0.00  0.00    +0.004 C 
ATOM     10  C   UNL     1      32.991 -23.493 -16.986  0.00  0.00    +0.000 C 
ATOM     11  C   UNL     1      33.814 -23.684 -15.876  0.00  0.00    -0.000 C 
BRANCH   7  15
ATOM     12  F   UNL     1      37.838 -22.516 -17.681  0.00  0.00    -0.166 F 
ATOM     13  F   UNL     1      37.018 -20.545 -17.300  0.00  0.00    -0.166 F 
ATOM     14  F   UNL     1      37.469 -21.871 -15.637  0.00  0.00    -0.166 F 
ATOM     15  C   UNL     1      36.946 -21.846 -16.897  0.00  0.00    +0.419 C 
ENDBRANCH   7  15
ENDBRANCH   3   6
BRANCH   2  16
ATOM     16  C   UNL     1      34.229 -18.768 -21.307  0.00  0.00    +0.083 C 
BRANCH  16  22
ATOM     17  S   UNL     1      33.332 -14.341 -24.275  0.00  0.00    -0.018 S 
ATOM     18  O   UNL     1      35.100 -16.176 -20.028  0.00  0.00    -0.274 OA
ATOM     19  O   UNL     1      35.599 -18.737 -23.997  0.00  0.00    -0.274 OA
ATOM     20  N   UNL     1      34.274 -15.445 -22.040  0.00  0.00    -0.267 N 
ATOM     21  N   UNL     1      34.521 -16.710 -24.002  0.00  0.00    -0.267 N 
ATOM     22  C   UNL     1      35.186 -17.715 -21.866  0.00  0.00    +0.161 C 
ATOM     23  C   UNL     1      34.870 -16.385 -21.220  0.00  0.00    +0.236 C 
ATOM     24  C   UNL     1      35.142 -17.776 -23.376  0.00  0.00    +0.236 C 
ATOM     25  C   UNL     1      34.068 -15.559 -23.397  0.00  0.00    +0.143 C 
ATOM     26  H   UNL     1      33.966 -14.614 -21.612  0.00  0.00    +0.157 HD
ATOM     27  H   UNL     1      34.390 -16.782 -24.975  0.00  0.00    +0.157 HD
ENDBRANCH  16  22
ENDBRANCH   2  16
TORSDOF 4
ENDMDL
MODEL 7
REMARK VINA RESULT:      -9.5      5.818      9.945
REMARK  Name = 3003157
REMARK  4 active torsions:
REMARK  status: ('A' for Active; 'I' for Inactive)
REMARK    1  A    between atoms: C_2  and  C_16
REMARK    2  A    between atoms: C_3  and  C_6
REMARK    3  A    between atoms: C_7  and  C_15
REMARK    4  A    between atoms: C_16  and  C_22
REMARK                            x       y       z     vdW  Elec       q    Type
REMARK                         _______ _______ _______ _____ _____    ______ ____
ROOT
ATOM      1  O   UNL     1      31.975 -10.235 -23.094  0.00  0.00    -0.458 OA
ATOM      2  C   UNL     1      31.931 -11.177 -22.136  0.00  0.00    +0.124 C 
ATOM      3  C   UNL     1      31.877  -9.050 -22.436  0.00  0.00    +0.145 C 
ATOM      4  C   UNL     1      31.810 -10.659 -20.893  0.00  0.00    +0.036 C 
ATOM      5  C   UNL     1      31.774  -9.257 -21.080  0.00  0.00    +0.040 C 
ENDROOT
BRANCH   3   6
ATOM      6  C   UNL     1      31.903  -7.880 -23.268  0.00  0.00    +0.038 C 
ATOM      7  C   UNL     1      33.107  -7.267 -23.628  0.00  0.00    +0.074 C 
ATOM      8  C   UNL     1      30.695  -7.342 -23.728  0.00  0.00    +0.003 C 
ATOM      9  C   UNL     1      33.105  -6.131 -24.438  0.00  0.00    +0.004 C 
ATOM     10  C   UNL     1      30.692  -6.207 -24.538  0.00  0.00    +0.000 C 
ATOM     11  C   UNL     1      31.898  -5.601 -24.893  0.00  0.00    -0.000 C 
BRANCH   7  15
ATOM     12  F   UNL     1      34.548  -7.828 -21.803  0.00  0.00    -0.166 F 
ATOM     13  F   UNL     1      34.658  -9.087 -23.565  0.00  0.00    -0.166 F 
ATOM     14  F   UNL     1      35.478  -7.073 -23.618  0.00  0.00    -0.166 F 
ATOM     15  C   UNL     1      34.422  -7.806 -23.161  0.00  0.00    +0.419 C 
ENDBRANCH   7  15
ENDBRANCH   3   6
BRANCH   2  16
ATOM     16  C   UNL     1      32.024 -12.593 -22.635  0.00  0.00    +0.083 C 
BRANCH  16  22
ATOM     17  S   UNL     1      34.143 -16.922 -25.081  0.00  0.00    -0.018 S 
ATOM     18  O   UNL     1      33.763 -11.983 -25.026  0.00  0.00    -0.274 OA
ATOM     19  O   UNL     1      33.785 -14.312 -20.886  0.00  0.00    -0.274 OA
ATOM     20  N   UNL     1      33.884 -14.273 -24.937  0.00  0.00    -0.267 N 
ATOM     21  N   UNL     1      33.895 -15.424 -22.891  0.00  0.00    -0.267 N 
ATOM     22  C   UNL     1      33.475 -13.008 -22.876  0.00  0.00    +0.161 C 
ATOM     23  C   UNL     1      33.731 -13.023 -24.367  0.00  0.00    +0.236 C 
ATOM     24  C   UNL     1      33.744 -14.288 -22.117  0.00  0.00    +0.236 C 
ATOM     25  C   UNL     1      33.956 -15.473 -24.266  0.00  0.00    +0.143 C 
ATOM     26  H   UNL     1      33.946 -14.308 -25.919  0.00  0.00    +0.157 HD
ATOM     27  H   UNL     1      33.965 -16.281 -22.412  0.00  0.00    +0.157 HD
ENDBRANCH  16  22
ENDBRANCH   2  16
TORSDOF 4
ENDMDL
MODEL 8
REMARK VINA RESULT:      -9.4      4.161      7.659
REMARK  Name = 3003157
REMARK  4 active torsions:
REMARK  status: ('A' for Active; 'I' for Inactive)
REMARK    1  A    between atoms: C_2  and  C_16
REMARK    2  A    between atoms: C_3  and  C_6
REMARK    3  A    between atoms: C_7  and  C_15
REMARK    4  A    between atoms: C_16  and  C_22
REMARK                            x       y       z     vdW  Elec       q    Type
REMARK                         _______ _______ _______ _____ _____    ______ ____
ROOT
ATOM      1  O   UNL     1      34.486 -13.929 -23.603  0.00  0.00    -0.458 OA
ATOM      2  C   UNL     1      34.404 -15.166 -24.123  0.00  0.00    +0.124 C 
ATOM      3  C   UNL     1      33.647 -13.168 -24.352  0.00  0.00    +0.145 C 
ATOM      4  C   UNL     1      33.553 -15.240 -25.171  0.00  0.00    +0.036 C 
ATOM      5  C   UNL     1      33.048 -13.928 -25.330  0.00  0.00    +0.040 C 
ENDROOT
BRANCH   3   6
ATOM      6  C   UNL     1      33.568 -11.784 -23.975  0.00  0.00    +0.038 C 
ATOM      7  C   UNL     1      32.760 -11.362 -22.914  0.00  0.00    +0.074 C 
ATOM      8  C   UNL     1      34.316 -10.838 -24.686  0.00  0.00    +0.003 C 
ATOM      9  C   UNL     1      32.702 -10.012 -22.567  0.00  0.00    +0.004 C 
ATOM     10  C   UNL     1      34.258  -9.489 -24.340  0.00  0.00    +0.000 C 
ATOM     11  C   UNL     1      33.450  -9.075 -23.279  0.00  0.00    -0.000 C 
BRANCH   7  15
ATOM     12  F   UNL     1      31.444 -13.360 -22.877  0.00  0.00    -0.166 F 
ATOM     13  F   UNL     1      32.638 -12.937 -21.117  0.00  0.00    -0.166 F 
ATOM     14  F   UNL     1      30.864 -11.752 -21.533  0.00  0.00    -0.166 F 
ATOM     15  C   UNL     1      31.944 -12.336 -22.126  0.00  0.00    +0.419 C 
ENDBRANCH   7  15
ENDBRANCH   3   6
BRANCH   2  16
ATOM     16  C   UNL     1      35.262 -16.198 -23.444  0.00  0.00    +0.083 C 
BRANCH  16  22
ATOM     17  S   UNL     1      36.681 -20.315 -20.243  0.00  0.00    -0.018 S 
ATOM     18  O   UNL     1      34.479 -15.887 -20.545  0.00  0.00    -0.274 OA
ATOM     19  O   UNL     1      34.101 -18.874 -24.219  0.00  0.00    -0.274 OA
ATOM     20  N   UNL     1      35.501 -17.943 -20.532  0.00  0.00    -0.267 N 
ATOM     21  N   UNL     1      35.314 -19.419 -22.347  0.00  0.00    -0.267 N 
ATOM     22  C   UNL     1      34.424 -17.146 -22.587  0.00  0.00    +0.161 C 
ATOM     23  C   UNL     1      34.782 -16.926 -21.133  0.00  0.00    +0.236 C 
ATOM     24  C   UNL     1      34.576 -18.549 -23.130  0.00  0.00    +0.236 C 
ATOM     25  C   UNL     1      35.799 -19.169 -21.083  0.00  0.00    +0.143 C 
ATOM     26  H   UNL     1      35.833 -17.772 -19.621  0.00  0.00    +0.157 HD
ATOM     27  H   UNL     1      35.512 -20.303 -22.732  0.00  0.00    +0.157 HD
ENDBRANCH  16  22
ENDBRANCH   2  16
TORSDOF 4
ENDMDL
MODEL 9
REMARK VINA RESULT:      -9.3      2.581      4.117
REMARK  Name = 3003157
REMARK  4 active torsions:
REMARK  status: ('A' for Active; 'I' for Inactive)
REMARK    1  A    between atoms: C_2  and  C_16
REMARK    2  A    between atoms: C_3  and  C_6
REMARK    3  A    between atoms: C_7  and  C_15
REMARK    4  A    between atoms: C_16  and  C_22
REMARK                            x       y       z     vdW  Elec       q    Type
REMARK                         _______ _______ _______ _____ _____    ______ ____
ROOT
ATOM      1  O   UNL     1      35.048 -20.116 -19.542  0.00  0.00    -0.458 OA
ATOM      2  C   UNL     1      35.148 -19.758 -20.833  0.00  0.00    +0.124 C 
ATOM      3  C   UNL     1      35.876 -21.184 -19.401  0.00  0.00    +0.145 C 
ATOM      4  C   UNL     1      36.000 -20.541 -21.532  0.00  0.00    +0.036 C 
ATOM      5  C   UNL     1      36.485 -21.485 -20.596  0.00  0.00    +0.040 C 
ENDROOT
BRANCH   3   6
ATOM      6  C   UNL     1      35.935 -21.748 -18.081  0.00  0.00    +0.038 C 
ATOM      7  C   UNL     1      34.894 -22.534 -17.575  0.00  0.00    +0.074 C 
ATOM      8  C   UNL     1      37.060 -21.505 -17.283  0.00  0.00    +0.003 C 
ATOM      9  C   UNL     1      34.976 -23.070 -16.290  0.00  0.00    +0.004 C 
ATOM     10  C   UNL     1      37.142 -22.041 -15.999  0.00  0.00    +0.000 C 
ATOM     11  C   UNL     1      36.100 -22.824 -15.502  0.00  0.00    -0.000 C 
BRANCH   7  15
ATOM     12  F   UNL     1      32.926 -21.711 -18.660  0.00  0.00    -0.166 F 
ATOM     13  F   UNL     1      33.949 -23.372 -19.607  0.00  0.00    -0.166 F 
ATOM     14  F   UNL     1      32.827 -23.693 -17.772  0.00  0.00    -0.166 F 
ATOM     15  C   UNL     1      33.673 -22.820 -18.390  0.00  0.00    +0.419 C 
ENDBRANCH   7  15
ENDBRANCH   3   6
BRANCH   2  16
ATOM     16  C   UNL     1      34.305 -18.577 -21.231  0.00  0.00    +0.083 C 
BRANCH  16  22
ATOM     17  S   UNL     1      32.978 -14.092 -23.939  0.00  0.00    -0.018 S 
ATOM     18  O   UNL     1      35.054 -15.993 -19.863  0.00  0.00    -0.274 OA
ATOM     19  O   UNL     1      35.548 -18.327 -23.970  0.00  0.00    -0.274 OA
ATOM     20  N   UNL     1      34.091 -15.229 -21.801  0.00  0.00    -0.267 N 
ATOM     21  N   UNL     1      34.336 -16.383 -23.831  0.00  0.00    -0.267 N 
ATOM     22  C   UNL     1      35.162 -17.436 -21.776  0.00  0.00    +0.161 C 
ATOM     23  C   UNL     1      34.786 -16.162 -21.053  0.00  0.00    +0.236 C 
ATOM     24  C   UNL     1      35.055 -17.430 -23.284  0.00  0.00    +0.236 C 
ATOM     25  C   UNL     1      33.834 -15.295 -23.152  0.00  0.00    +0.143 C 
ATOM     26  H   UNL     1      33.747 -14.442 -21.320  0.00  0.00    +0.157 HD
ATOM     27  H   UNL     1      34.167 -16.418 -24.800  0.00  0.00    +0.157 HD
ENDBRANCH  16  22
ENDBRANCH   2  16
TORSDOF 4
ENDMDL
