MODEL 1
REMARK VINA RESULT:      -4.8      0.000      0.000
REMARK  Name = 17753872
REMARK  6 active torsions:
REMARK  status: ('A' for Active; 'I' for Inactive)
REMARK    1  A    between atoms: C_1  and  C_3
REMARK    2  A    between atoms: C_1  and  C_6
REMARK    3  A    between atoms: C_1  and  C_11
REMARK    4  A    between atoms: C_3  and  O_4
REMARK    5  A    between atoms: C_6  and  N_7
REMARK    6  A    between atoms: C_11  and  O_12
REMARK                            x       y       z     vdW  Elec       q    Type
REMARK                         _______ _______ _______ _____ _____    ______ ____
ROOT
ATOM      1  C   UNL     1      41.619 -14.193 -15.390  0.00  0.00    +0.106 C 
ENDROOT
BRANCH   1   3
ATOM      2  O   UNL     1      42.188 -16.541 -15.741  0.00  0.00    -0.250 OA
ATOM      3  C   UNL     1      41.354 -15.691 -15.459  0.00  0.00    +0.314 C 
BRANCH   3   4
ATOM      4  O   UNL     1      40.060 -15.996 -15.179  0.00  0.00    -0.480 OA
ATOM      5  H   UNL     1      39.617 -15.560 -14.478  0.00  0.00    +0.295 HD
ENDBRANCH   3   4
ENDBRANCH   1   3
BRANCH   1   6
ATOM      6  C   UNL     1      41.688 -13.633 -16.819  0.00  0.00    -0.072 C 
BRANCH   6   7
ATOM      7  N   UNL     1      41.232 -14.606 -17.804  0.00  0.00    +0.381 N 
ATOM      8  H   UNL     1      40.352 -15.018 -17.495  0.00  0.00    -0.089 HD
ATOM      9  H   UNL     1      41.933 -15.340 -17.906  0.00  0.00    -0.089 HD
ATOM     10  H   UNL     1      41.093 -14.142 -18.702  0.00  0.00    -0.089 HD
ENDBRANCH   6   7
ENDBRANCH   1   6
BRANCH   1  11
ATOM     11  C   UNL     1      40.573 -13.502 -14.502  0.00  0.00    +0.146 C 
BRANCH  11  12
ATOM     12  O   UNL     1      40.916 -13.618 -13.127  0.00  0.00    -0.381 OA
ATOM     13  H   UNL     1      41.882 -13.614 -13.032  0.00  0.00    +0.210 HD
ENDBRANCH  11  12
ENDBRANCH   1  11
TORSDOF 6
ENDMDL
MODEL 2
REMARK VINA RESULT:      -4.7     11.295     11.755
REMARK  Name = 17753872
REMARK  6 active torsions:
REMARK  status: ('A' for Active; 'I' for Inactive)
REMARK    1  A    between atoms: C_1  and  C_3
REMARK    2  A    between atoms: C_1  and  C_6
REMARK    3  A    between atoms: C_1  and  C_11
REMARK    4  A    between atoms: C_3  and  O_4
REMARK    5  A    between atoms: C_6  and  N_7
REMARK    6  A    between atoms: C_11  and  O_12
REMARK                            x       y       z     vdW  Elec       q    Type
REMARK                         _______ _______ _______ _____ _____    ______ ____
ROOT
ATOM      1  C   UNL     1      38.852 -25.066 -14.377  0.00  0.00    +0.106 C 
ENDROOT
BRANCH   1   3
ATOM      2  O   UNL     1      38.108 -27.357 -14.776  0.00  0.00    -0.250 OA
ATOM      3  C   UNL     1      37.922 -26.154 -14.899  0.00  0.00    +0.314 C 
BRANCH   3   4
ATOM      4  O   UNL     1      36.843 -25.639 -15.545  0.00  0.00    -0.480 OA
ATOM      5  H   UNL     1      36.858 -24.754 -15.852  0.00  0.00    +0.295 HD
ENDBRANCH   3   4
ENDBRANCH   1   3
BRANCH   1   6
ATOM      6  C   UNL     1      38.596 -24.870 -12.876  0.00  0.00    -0.072 C 
BRANCH   6   7
ATOM      7  N   UNL     1      37.442 -25.635 -12.418  0.00  0.00    +0.381 N 
ATOM      8  H   UNL     1      36.827 -25.829 -13.209  0.00  0.00    -0.089 HD
ATOM      9  H   UNL     1      36.934 -25.097 -11.717  0.00  0.00    -0.089 HD
ATOM     10  H   UNL     1      37.758 -26.514 -12.009  0.00  0.00    -0.089 HD
ENDBRANCH   6   7
ENDBRANCH   1   6
BRANCH   1  11
ATOM     11  C   UNL     1      40.312 -25.397 -14.721  0.00  0.00    +0.146 C 
BRANCH  11  12
ATOM     12  O   UNL     1      40.414 -25.959 -16.023  0.00  0.00    -0.381 OA
ATOM     13  H   UNL     1      39.537 -25.976 -16.438  0.00  0.00    +0.210 HD
ENDBRANCH  11  12
ENDBRANCH   1  11
TORSDOF 6
ENDMDL
MODEL 3
REMARK VINA RESULT:      -4.6     10.219     11.384
REMARK  Name = 17753872
REMARK  6 active torsions:
REMARK  status: ('A' for Active; 'I' for Inactive)
REMARK    1  A    between atoms: C_1  and  C_3
REMARK    2  A    between atoms: C_1  and  C_6
REMARK    3  A    between atoms: C_1  and  C_11
REMARK    4  A    between atoms: C_3  and  O_4
REMARK    5  A    between atoms: C_6  and  N_7
REMARK    6  A    between atoms: C_11  and  O_12
REMARK                            x       y       z     vdW  Elec       q    Type
REMARK                         _______ _______ _______ _____ _____    ______ ____
ROOT
ATOM      1  C   UNL     1      38.352 -25.523 -13.862  0.00  0.00    +0.106 C 
ENDROOT
BRANCH   1   3
ATOM      2  O   UNL     1      40.642 -24.710 -14.099  0.00  0.00    -0.250 OA
ATOM      3  C   UNL     1      39.826 -25.611 -14.238  0.00  0.00    +0.314 C 
BRANCH   3   4
ATOM      4  O   UNL     1      40.148 -26.819 -14.770  0.00  0.00    -0.480 OA
ATOM      5  H   UNL     1      40.937 -27.251 -14.508  0.00  0.00    +0.295 HD
ENDBRANCH   3   4
ENDBRANCH   1   3
BRANCH   1   6
ATOM      6  C   UNL     1      37.795 -24.174 -14.341  0.00  0.00    -0.072 C 
BRANCH   6   7
ATOM      7  N   UNL     1      38.274 -23.834 -15.676  0.00  0.00    +0.381 N 
ATOM      8  H   UNL     1      37.479 -23.739 -16.309  0.00  0.00    -0.089 HD
ATOM      9  H   UNL     1      38.890 -24.573 -16.014  0.00  0.00    -0.089 HD
ATOM     10  H   UNL     1      38.786 -22.953 -15.639  0.00  0.00    -0.089 HD
ENDBRANCH   6   7
ENDBRANCH   1   6
BRANCH   1  11
ATOM     11  C   UNL     1      37.586 -26.740 -14.402  0.00  0.00    +0.146 C 
BRANCH  11  12
ATOM     12  O   UNL     1      37.398 -26.640 -15.808  0.00  0.00    -0.381 OA
ATOM     13  H   UNL     1      38.094 -27.138 -16.264  0.00  0.00    +0.210 HD
ENDBRANCH  11  12
ENDBRANCH   1  11
TORSDOF 6
ENDMDL
MODEL 4
REMARK VINA RESULT:      -4.5     10.823     11.812
REMARK  Name = 17753872
REMARK  6 active torsions:
REMARK  status: ('A' for Active; 'I' for Inactive)
REMARK    1  A    between atoms: C_1  and  C_3
REMARK    2  A    between atoms: C_1  and  C_6
REMARK    3  A    between atoms: C_1  and  C_11
REMARK    4  A    between atoms: C_3  and  O_4
REMARK    5  A    between atoms: C_6  and  N_7
REMARK    6  A    between atoms: C_11  and  O_12
REMARK                            x       y       z     vdW  Elec       q    Type
REMARK                         _______ _______ _______ _____ _____    ______ ____
ROOT
ATOM      1  C   UNL     1      36.728 -25.365 -14.495  0.00  0.00    +0.106 C 
ENDROOT
BRANCH   1   3
ATOM      2  O   UNL     1      38.454 -27.085 -14.643  0.00  0.00    -0.250 OA
ATOM      3  C   UNL     1      37.419 -26.593 -15.073  0.00  0.00    +0.314 C 
BRANCH   3   4
ATOM      4  O   UNL     1      36.760 -27.093 -16.151  0.00  0.00    -0.480 OA
ATOM      5  H   UNL     1      36.758 -26.620 -16.959  0.00  0.00    +0.295 HD
ENDBRANCH   3   4
ENDBRANCH   1   3
BRANCH   1   6
ATOM      6  C   UNL     1      36.787 -25.435 -12.962  0.00  0.00    -0.072 C 
BRANCH   6   7
ATOM      7  N   UNL     1      38.095 -25.046 -12.452  0.00  0.00    +0.381 N 
ATOM      8  H   UNL     1      37.980 -24.354 -11.710  0.00  0.00    -0.089 HD
ATOM      9  H   UNL     1      38.649 -24.643 -13.207  0.00  0.00    -0.089 HD
ATOM     10  H   UNL     1      38.573 -25.866 -12.079  0.00  0.00    -0.089 HD
ENDBRANCH   6   7
ENDBRANCH   1   6
BRANCH   1  11
ATOM     11  C   UNL     1      37.334 -24.081 -15.082  0.00  0.00    +0.146 C 
BRANCH  11  12
ATOM     12  O   UNL     1      38.727 -24.238 -15.321  0.00  0.00    -0.381 OA
ATOM     13  H   UNL     1      38.941 -25.183 -15.381  0.00  0.00    +0.210 HD
ENDBRANCH  11  12
ENDBRANCH   1  11
TORSDOF 6
ENDMDL
MODEL 5
REMARK VINA RESULT:      -4.5     10.533     11.449
REMARK  Name = 17753872
REMARK  6 active torsions:
REMARK  status: ('A' for Active; 'I' for Inactive)
REMARK    1  A    between atoms: C_1  and  C_3
REMARK    2  A    between atoms: C_1  and  C_6
REMARK    3  A    between atoms: C_1  and  C_11
REMARK    4  A    between atoms: C_3  and  O_4
REMARK    5  A    between atoms: C_6  and  N_7
REMARK    6  A    between atoms: C_11  and  O_12
REMARK                            x       y       z     vdW  Elec       q    Type
REMARK                         _______ _______ _______ _____ _____    ______ ____
ROOT
ATOM      1  C   UNL     1      36.769 -24.637 -12.427  0.00  0.00    +0.106 C 
ENDROOT
BRANCH   1   3
ATOM      2  O   UNL     1      35.315 -25.101 -10.521  0.00  0.00    -0.250 OA
ATOM      3  C   UNL     1      35.524 -24.491 -11.561  0.00  0.00    +0.314 C 
BRANCH   3   4
ATOM      4  O   UNL     1      34.639 -23.602 -12.082  0.00  0.00    -0.480 OA
ATOM      5  H   UNL     1      33.857 -23.908 -12.499  0.00  0.00    +0.295 HD
ENDBRANCH   3   4
ENDBRANCH   1   3
BRANCH   1   6
ATOM      6  C   UNL     1      36.374 -24.464 -13.901  0.00  0.00    -0.072 C 
BRANCH   6   7
ATOM      7  N   UNL     1      35.386 -25.451 -14.316  0.00  0.00    +0.381 N 
ATOM      8  H   UNL     1      34.581 -25.413 -13.690  0.00  0.00    -0.089 HD
ATOM      9  H   UNL     1      35.800 -26.382 -14.280  0.00  0.00    -0.089 HD
ATOM     10  H   UNL     1      35.084 -25.250 -15.270  0.00  0.00    -0.089 HD
ENDBRANCH   6   7
ENDBRANCH   1   6
BRANCH   1  11
ATOM     11  C   UNL     1      37.864 -23.667 -11.959  0.00  0.00    +0.146 C 
BRANCH  11  12
ATOM     12  O   UNL     1      37.362 -22.762 -10.984  0.00  0.00    -0.381 OA
ATOM     13  H   UNL     1      36.791 -23.241 -10.362  0.00  0.00    +0.210 HD
ENDBRANCH  11  12
ENDBRANCH   1  11
TORSDOF 6
ENDMDL
MODEL 6
REMARK VINA RESULT:      -4.5      1.887      3.031
REMARK  Name = 17753872
REMARK  6 active torsions:
REMARK  status: ('A' for Active; 'I' for Inactive)
REMARK    1  A    between atoms: C_1  and  C_3
REMARK    2  A    between atoms: C_1  and  C_6
REMARK    3  A    between atoms: C_1  and  C_11
REMARK    4  A    between atoms: C_3  and  O_4
REMARK    5  A    between atoms: C_6  and  N_7
REMARK    6  A    between atoms: C_11  and  O_12
REMARK                            x       y       z     vdW  Elec       q    Type
REMARK                         _______ _______ _______ _____ _____    ______ ____
ROOT
ATOM      1  C   UNL     1      41.369 -14.916 -17.159  0.00  0.00    +0.106 C 
ENDROOT
BRANCH   1   3
ATOM      2  O   UNL     1      42.422 -16.487 -15.615  0.00  0.00    -0.250 OA
ATOM      3  C   UNL     1      41.422 -15.888 -15.987  0.00  0.00    +0.314 C 
BRANCH   3   4
ATOM      4  O   UNL     1      40.211 -16.037 -15.390  0.00  0.00    -0.480 OA
ATOM      5  H   UNL     1      40.123 -16.593 -14.641  0.00  0.00    +0.295 HD
ENDBRANCH   3   4
ENDBRANCH   1   3
BRANCH   1   6
ATOM      6  C   UNL     1      41.768 -13.518 -16.665  0.00  0.00    -0.072 C 
BRANCH   6   7
ATOM      7  N   UNL     1      41.612 -13.389 -15.221  0.00  0.00    +0.381 N 
ATOM      8  H   UNL     1      41.529 -14.316 -14.803  0.00  0.00    -0.089 HD
ATOM      9  H   UNL     1      40.772 -12.848 -15.017  0.00  0.00    -0.089 HD
ATOM     10  H   UNL     1      42.426 -12.912 -14.833  0.00  0.00    -0.089 HD
ENDBRANCH   6   7
ENDBRANCH   1   6
BRANCH   1  11
ATOM     11  C   UNL     1      42.228 -15.432 -18.324  0.00  0.00    +0.146 C 
BRANCH  11  12
ATOM     12  O   UNL     1      42.177 -16.850 -18.405  0.00  0.00    -0.381 OA
ATOM     13  H   UNL     1      41.510 -17.187 -17.786  0.00  0.00    +0.210 HD
ENDBRANCH  11  12
ENDBRANCH   1  11
TORSDOF 6
ENDMDL
MODEL 7
REMARK VINA RESULT:      -4.5     12.077     12.298
REMARK  Name = 17753872
REMARK  6 active torsions:
REMARK  status: ('A' for Active; 'I' for Inactive)
REMARK    1  A    between atoms: C_1  and  C_3
REMARK    2  A    between atoms: C_1  and  C_6
REMARK    3  A    between atoms: C_1  and  C_11
REMARK    4  A    between atoms: C_3  and  O_4
REMARK    5  A    between atoms: C_6  and  N_7
REMARK    6  A    between atoms: C_11  and  O_12
REMARK                            x       y       z     vdW  Elec       q    Type
REMARK                         _______ _______ _______ _____ _____    ______ ____
ROOT
ATOM      1  C   UNL     1      37.074 -25.181 -14.055  0.00  0.00    +0.106 C 
ENDROOT
BRANCH   1   3
ATOM      2  O   UNL     1      38.310 -27.174 -14.736  0.00  0.00    -0.250 OA
ATOM      3  C   UNL     1      37.247 -26.572 -14.652  0.00  0.00    +0.314 C 
BRANCH   3   4
ATOM      4  O   UNL     1      36.074 -27.085 -15.105  0.00  0.00    -0.480 OA
ATOM      5  H   UNL     1      35.799 -26.920 -15.985  0.00  0.00    +0.295 HD
ENDBRANCH   3   4
ENDBRANCH   1   3
BRANCH   1   6
ATOM      6  C   UNL     1      35.750 -24.585 -14.556  0.00  0.00    -0.072 C 
BRANCH   6   7
ATOM      7  N   UNL     1      34.659 -24.830 -13.622  0.00  0.00    +0.381 N 
ATOM      8  H   UNL     1      34.851 -24.354 -12.740  0.00  0.00    -0.089 HD
ATOM      9  H   UNL     1      34.573 -25.832 -13.454  0.00  0.00    -0.089 HD
ATOM     10  H   UNL     1      33.787 -24.476 -14.016  0.00  0.00    -0.089 HD
ENDBRANCH   6   7
ENDBRANCH   1   6
BRANCH   1  11
ATOM     11  C   UNL     1      37.192 -25.234 -12.525  0.00  0.00    +0.146 C 
BRANCH  11  12
ATOM     12  O   UNL     1      36.830 -26.517 -12.030  0.00  0.00    -0.381 OA
ATOM     13  H   UNL     1      36.641 -27.110 -12.775  0.00  0.00    +0.210 HD
ENDBRANCH  11  12
ENDBRANCH   1  11
TORSDOF 6
ENDMDL
MODEL 8
REMARK VINA RESULT:      -4.4     11.811     12.112
REMARK  Name = 17753872
REMARK  6 active torsions:
REMARK  status: ('A' for Active; 'I' for Inactive)
REMARK    1  A    between atoms: C_1  and  C_3
REMARK    2  A    between atoms: C_1  and  C_6
REMARK    3  A    between atoms: C_1  and  C_11
REMARK    4  A    between atoms: C_3  and  O_4
REMARK    5  A    between atoms: C_6  and  N_7
REMARK    6  A    between atoms: C_11  and  O_12
REMARK                            x       y       z     vdW  Elec       q    Type
REMARK                         _______ _______ _______ _____ _____    ______ ____
ROOT
ATOM      1  C   UNL     1      36.589 -24.758 -13.614  0.00  0.00    +0.106 C 
ENDROOT
BRANCH   1   3
ATOM      2  O   UNL     1      38.538 -26.220 -13.470  0.00  0.00    -0.250 OA
ATOM      3  C   UNL     1      37.434 -25.895 -13.055  0.00  0.00    +0.314 C 
BRANCH   3   4
ATOM      4  O   UNL     1      36.817 -26.536 -12.028  0.00  0.00    -0.480 OA
ATOM      5  H   UNL     1      36.969 -27.449 -11.887  0.00  0.00    +0.295 HD
ENDBRANCH   3   4
ENDBRANCH   1   3
BRANCH   1   6
ATOM      6  C   UNL     1      35.777 -25.282 -14.808  0.00  0.00    -0.072 C 
BRANCH   6   7
ATOM      7  N   UNL     1      36.037 -26.694 -15.062  0.00  0.00    +0.381 N 
ATOM      8  H   UNL     1      35.475 -27.263 -14.428  0.00  0.00    -0.089 HD
ATOM      9  H   UNL     1      37.025 -26.890 -14.910  0.00  0.00    -0.089 HD
ATOM     10  H   UNL     1      35.790 -26.917 -16.027  0.00  0.00    -0.089 HD
ENDBRANCH   6   7
ENDBRANCH   1   6
BRANCH   1  11
ATOM     11  C   UNL     1      35.729 -24.132 -12.506  0.00  0.00    +0.146 C 
BRANCH  11  12
ATOM     12  O   UNL     1      34.585 -24.932 -12.236  0.00  0.00    -0.381 OA
ATOM     13  H   UNL     1      33.889 -24.381 -11.844  0.00  0.00    +0.210 HD
ENDBRANCH  11  12
ENDBRANCH   1  11
TORSDOF 6
ENDMDL
MODEL 9
REMARK VINA RESULT:      -4.4     11.105     11.947
REMARK  Name = 17753872
REMARK  6 active torsions:
REMARK  status: ('A' for Active; 'I' for Inactive)
REMARK    1  A    between atoms: C_1  and  C_3
REMARK    2  A    between atoms: C_1  and  C_6
REMARK    3  A    between atoms: C_1  and  C_11
REMARK    4  A    between atoms: C_3  and  O_4
REMARK    5  A    between atoms: C_6  and  N_7
REMARK    6  A    between atoms: C_11  and  O_12
REMARK                            x       y       z     vdW  Elec       q    Type
REMARK                         _______ _______ _______ _____ _____    ______ ____
ROOT
ATOM      1  C   UNL     1      37.582 -25.017 -13.905  0.00  0.00    +0.106 C 
ENDROOT
BRANCH   1   3
ATOM      2  O   UNL     1      37.930 -24.687 -11.511  0.00  0.00    -0.250 OA
ATOM      3  C   UNL     1      37.499 -25.375 -12.427  0.00  0.00    +0.314 C 
BRANCH   3   4
ATOM      4  O   UNL     1      36.893 -26.574 -12.224  0.00  0.00    -0.480 OA
ATOM      5  H   UNL     1      37.128 -27.099 -11.484  0.00  0.00    +0.295 HD
ENDBRANCH   3   4
ENDBRANCH   1   3
BRANCH   1   6
ATOM      6  C   UNL     1      39.047 -25.103 -14.358  0.00  0.00    -0.072 C 
BRANCH   6   7
ATOM      7  N   UNL     1      39.756 -26.188 -13.692  0.00  0.00    +0.381 N 
ATOM      8  H   UNL     1      40.474 -25.800 -13.078  0.00  0.00    -0.089 HD
ATOM      9  H   UNL     1      40.195 -26.787 -14.390  0.00  0.00    -0.089 HD
ATOM     10  H   UNL     1      39.097 -26.737 -13.139  0.00  0.00    -0.089 HD
ENDBRANCH   6   7
ENDBRANCH   1   6
BRANCH   1  11
ATOM     11  C   UNL     1      36.625 -25.895 -14.726  0.00  0.00    +0.146 C 
BRANCH  11  12
ATOM     12  O   UNL     1      37.326 -26.598 -15.744  0.00  0.00    -0.381 OA
ATOM     13  H   UNL     1      36.870 -27.433 -15.934  0.00  0.00    +0.210 HD
ENDBRANCH  11  12
ENDBRANCH   1  11
TORSDOF 6
ENDMDL
