MODEL 1
REMARK VINA RESULT:      -8.2      0.000      0.000
REMARK  Name = 5288990
REMARK  7 active torsions:
REMARK  status: ('A' for Active; 'I' for Inactive)
REMARK    1  A    between atoms: CA_1  and  CE_4
REMARK    2  A    between atoms: CA_1  and  N_13
REMARK    3  A    between atoms: CA_1  and  C_23
REMARK    4  A    between atoms: CA_7  and  C_9
REMARK    5  A    between atoms: C_9  and  O_10
REMARK    6  A    between atoms: C_14  and  C_16
REMARK    7  A    between atoms: C_16  and  C_18
REMARK                            x       y       z     vdW  Elec       q    Type
REMARK                         _______ _______ _______ _____ _____    ______ ____
ROOT
ATOM      1  CA  MET A   1      33.960 -23.452 -16.842  0.00  0.00    +0.170 C 
ENDROOT
BRANCH   1   4
ATOM      2  SD  MET A   1      33.608 -23.633 -14.149  0.00  0.00    -0.115 S 
ATOM      3  N   MET A   1      35.561 -24.912 -15.780  0.00  0.00    -0.257 NA
ATOM      4  CE  MET A   1      34.768 -23.692 -15.567  0.00  0.00    +0.176 C 
ATOM      5  CG  MET A   1      34.525 -24.684 -12.979  0.00  0.00    +0.066 C 
ATOM      6  CB  MET A   1      35.993 -24.814 -13.343  0.00  0.00    +0.064 C 
ATOM      7  CA  MET A   1      36.126 -25.390 -14.726  0.00  0.00    +0.131 C 
BRANCH   7   9
ATOM      8  OXT MET A   1      37.693 -27.011 -14.012  0.00  0.00    -0.244 OA
ATOM      9  C   MET A   1      36.977 -26.597 -14.897  0.00  0.00    +0.351 C 
BRANCH   9  10
ATOM     10  O   MET A   1      36.797 -27.088 -16.128  0.00  0.00    -0.476 OA
ATOM     11  H   MET A   1      37.530 -27.198 -16.700  0.00  0.00    +0.295 HD
ENDBRANCH   9  10
ENDBRANCH   7   9
ENDBRANCH   1   4
BRANCH   1  13
ATOM     12  O   UNK A   0      34.118 -23.698 -19.705  0.00  0.00    -0.275 OA
ATOM     13  N   MET A   1      34.661 -22.581 -17.741  0.00  0.00    -0.297 N 
ATOM     14  C   UNK A   0      34.684 -22.777 -19.117  0.00  0.00    +0.228 C 
ATOM     15  H   MET A   1      35.147 -21.812 -17.367  0.00  0.00    +0.150 HD
BRANCH  14  16
ATOM     16  C   UNK A   0      35.476 -21.720 -19.862  0.00  0.00    +0.118 C 
BRANCH  16  18
ATOM     17  S   UNK A   0      35.186 -19.277 -21.112  0.00  0.00    -0.090 S 
ATOM     18  C   UNK A   0      34.542 -20.627 -20.304  0.00  0.00    +0.016 C 
ATOM     19  C   UNK A   0      33.191 -20.568 -20.136  0.00  0.00    +0.003 C 
ATOM     20  C   UNK A   0      32.655 -19.370 -20.691  0.00  0.00    +0.007 C 
ATOM     21  C   UNK A   0      33.630 -18.577 -21.253  0.00  0.00    +0.035 C 
ENDBRANCH  16  18
ENDBRANCH  14  16
ENDBRANCH   1  13
BRANCH   1  23
ATOM     22  O   MET A   1      31.729 -22.693 -17.369  0.00  0.00    -0.286 OA
ATOM     23  C   MET A   1      32.627 -22.814 -16.540  0.00  0.00    +0.230 C 
ENDBRANCH   1  23
TORSDOF 7
ENDMDL
MODEL 2
REMARK VINA RESULT:      -8.1      6.917     11.797
REMARK  Name = 5288990
REMARK  7 active torsions:
REMARK  status: ('A' for Active; 'I' for Inactive)
REMARK    1  A    between atoms: CA_1  and  CE_4
REMARK    2  A    between atoms: CA_1  and  N_13
REMARK    3  A    between atoms: CA_1  and  C_23
REMARK    4  A    between atoms: CA_7  and  C_9
REMARK    5  A    between atoms: C_9  and  O_10
REMARK    6  A    between atoms: C_14  and  C_16
REMARK    7  A    between atoms: C_16  and  C_18
REMARK                            x       y       z     vdW  Elec       q    Type
REMARK                         _______ _______ _______ _____ _____    ______ ____
ROOT
ATOM      1  CA  MET A   1      34.134 -15.116 -22.128  0.00  0.00    +0.170 C 
ENDROOT
BRANCH   1   4
ATOM      2  SD  MET A   1      33.463 -15.095 -24.765  0.00  0.00    -0.115 S 
ATOM      3  N   MET A   1      33.805 -12.889 -22.996  0.00  0.00    -0.257 NA
ATOM      4  CE  MET A   1      34.275 -14.232 -23.366  0.00  0.00    +0.176 C 
ATOM      5  CG  MET A   1      33.037 -13.651 -25.790  0.00  0.00    +0.066 C 
ATOM      6  CB  MET A   1      33.854 -12.422 -25.429  0.00  0.00    +0.064 C 
ATOM      7  CA  MET A   1      33.639 -12.076 -23.981  0.00  0.00    +0.131 C 
BRANCH   7   9
ATOM      8  OXT MET A   1      32.175 -10.459 -23.066  0.00  0.00    -0.244 OA
ATOM      9  C   MET A   1      33.208 -10.691 -23.655  0.00  0.00    +0.351 C 
BRANCH   9  10
ATOM     10  O   MET A   1      34.126  -9.830 -24.107  0.00  0.00    -0.476 OA
ATOM     11  H   MET A   1      34.902  -9.667 -23.607  0.00  0.00    +0.295 HD
ENDBRANCH   9  10
ENDBRANCH   7   9
ENDBRANCH   1   4
BRANCH   1  13
ATOM     12  O   UNK A   0      35.396 -17.089 -20.456  0.00  0.00    -0.275 OA
ATOM     13  N   MET A   1      34.363 -16.496 -22.450  0.00  0.00    -0.297 N 
ATOM     14  C   UNK A   0      34.984 -17.382 -21.577  0.00  0.00    +0.228 C 
ATOM     15  H   MET A   1      34.068 -16.829 -23.328  0.00  0.00    +0.150 HD
BRANCH  14  16
ATOM     16  C   UNK A   0      35.101 -18.789 -22.130  0.00  0.00    +0.118 C 
BRANCH  16  18
ATOM     17  S   UNK A   0      35.662 -20.778 -20.302  0.00  0.00    -0.090 S 
ATOM     18  C   UNK A   0      34.568 -19.762 -21.115  0.00  0.00    +0.016 C 
ATOM     19  C   UNK A   0      33.270 -19.949 -20.742  0.00  0.00    +0.003 C 
ATOM     20  C   UNK A   0      33.161 -20.965 -19.750  0.00  0.00    +0.007 C 
ATOM     21  C   UNK A   0      34.386 -21.500 -19.419  0.00  0.00    +0.035 C 
ENDBRANCH  16  18
ENDBRANCH  14  16
ENDBRANCH   1  13
BRANCH   1  23
ATOM     22  O   MET A   1      32.529 -15.076 -20.324  0.00  0.00    -0.286 OA
ATOM     23  C   MET A   1      32.753 -15.014 -21.530  0.00  0.00    +0.230 C 
ENDBRANCH   1  23
TORSDOF 7
ENDMDL
MODEL 3
REMARK VINA RESULT:      -8.1      1.566      2.060
REMARK  Name = 5288990
REMARK  7 active torsions:
REMARK  status: ('A' for Active; 'I' for Inactive)
REMARK    1  A    between atoms: CA_1  and  CE_4
REMARK    2  A    between atoms: CA_1  and  N_13
REMARK    3  A    between atoms: CA_1  and  C_23
REMARK    4  A    between atoms: CA_7  and  C_9
REMARK    5  A    between atoms: C_9  and  O_10
REMARK    6  A    between atoms: C_14  and  C_16
REMARK    7  A    between atoms: C_16  and  C_18
REMARK                            x       y       z     vdW  Elec       q    Type
REMARK                         _______ _______ _______ _____ _____    ______ ____
ROOT
ATOM      1  CA  MET A   1      32.864 -23.444 -16.767  0.00  0.00    +0.170 C 
ENDROOT
BRANCH   1   4
ATOM      2  SD  MET A   1      33.016 -23.873 -14.085  0.00  0.00    -0.115 S 
ATOM      3  N   MET A   1      35.134 -23.652 -15.976  0.00  0.00    -0.257 NA
ATOM      4  CE  MET A   1      33.798 -23.175 -15.588  0.00  0.00    +0.176 C 
ATOM      5  CG  MET A   1      34.512 -24.178 -13.092  0.00  0.00    +0.066 C 
ATOM      6  CB  MET A   1      35.706 -23.375 -13.581  0.00  0.00    +0.064 C 
ATOM      7  CA  MET A   1      35.993 -23.714 -15.018  0.00  0.00    +0.131 C 
BRANCH   7   9
ATOM      8  OXT MET A   1      38.283 -23.358 -15.489  0.00  0.00    -0.244 OA
ATOM      9  C   MET A   1      37.372 -24.147 -15.367  0.00  0.00    +0.351 C 
BRANCH   9  10
ATOM     10  O   MET A   1      37.392 -25.477 -15.501  0.00  0.00    -0.476 OA
ATOM     11  H   MET A   1      37.740 -25.864 -16.280  0.00  0.00    +0.295 HD
ENDBRANCH   9  10
ENDBRANCH   7   9
ENDBRANCH   1   4
BRANCH   1  13
ATOM     12  O   UNK A   0      33.900 -23.592 -19.448  0.00  0.00    -0.275 OA
ATOM     13  N   MET A   1      32.924 -22.377 -17.726  0.00  0.00    -0.297 N 
ATOM     14  C   UNK A   0      33.444 -22.540 -19.005  0.00  0.00    +0.228 C 
ATOM     15  H   MET A   1      32.581 -21.492 -17.466  0.00  0.00    +0.150 HD
BRANCH  14  16
ATOM     16  C   UNK A   0      33.385 -21.277 -19.843  0.00  0.00    +0.118 C 
BRANCH  16  18
ATOM     17  S   UNK A   0      35.017 -19.420 -21.069  0.00  0.00    -0.090 S 
ATOM     18  C   UNK A   0      34.780 -20.750 -20.035  0.00  0.00    +0.016 C 
ATOM     19  C   UNK A   0      35.930 -21.213 -19.471  0.00  0.00    +0.003 C 
ATOM     20  C   UNK A   0      37.057 -20.451 -19.898  0.00  0.00    +0.007 C 
ATOM     21  C   UNK A   0      36.702 -19.445 -20.768  0.00  0.00    +0.035 C 
ENDBRANCH  16  18
ENDBRANCH  14  16
ENDBRANCH   1  13
BRANCH   1  23
ATOM     22  O   MET A   1      30.519 -22.870 -16.750  0.00  0.00    -0.286 OA
ATOM     23  C   MET A   1      31.430 -23.572 -16.320  0.00  0.00    +0.230 C 
ENDBRANCH   1  23
TORSDOF 7
ENDMDL
MODEL 4
REMARK VINA RESULT:      -8.1      8.931     12.194
REMARK  Name = 5288990
REMARK  7 active torsions:
REMARK  status: ('A' for Active; 'I' for Inactive)
REMARK    1  A    between atoms: CA_1  and  CE_4
REMARK    2  A    between atoms: CA_1  and  N_13
REMARK    3  A    between atoms: CA_1  and  C_23
REMARK    4  A    between atoms: CA_7  and  C_9
REMARK    5  A    between atoms: C_9  and  O_10
REMARK    6  A    between atoms: C_14  and  C_16
REMARK    7  A    between atoms: C_16  and  C_18
REMARK                            x       y       z     vdW  Elec       q    Type
REMARK                         _______ _______ _______ _____ _____    ______ ____
ROOT
ATOM      1  CA  MET A   1      33.435 -13.511 -23.558  0.00  0.00    +0.170 C 
ENDROOT
BRANCH   1   4
ATOM      2  SD  MET A   1      34.187 -14.890 -21.335  0.00  0.00    -0.115 S 
ATOM      3  N   MET A   1      34.177 -15.754 -24.049  0.00  0.00    -0.257 NA
ATOM      4  CE  MET A   1      34.396 -14.622 -23.137  0.00  0.00    +0.176 C 
ATOM      5  CG  MET A   1      34.719 -16.628 -21.234  0.00  0.00    +0.066 C 
ATOM      6  CB  MET A   1      35.540 -17.054 -22.439  0.00  0.00    +0.064 C 
ATOM      7  CA  MET A   1      34.738 -16.859 -23.697  0.00  0.00    +0.131 C 
BRANCH   7   9
ATOM      8  OXT MET A   1      34.822 -19.156 -24.254  0.00  0.00    -0.244 OA
ATOM      9  C   MET A   1      34.584 -18.022 -24.610  0.00  0.00    +0.351 C 
BRANCH   9  10
ATOM     10  O   MET A   1      34.161 -17.589 -25.802  0.00  0.00    -0.476 OA
ATOM     11  H   MET A   1      34.004 -18.201 -26.494  0.00  0.00    +0.295 HD
ENDBRANCH   9  10
ENDBRANCH   7   9
ENDBRANCH   1   4
BRANCH   1  13
ATOM     12  O   UNK A   0      33.614 -11.792 -25.859  0.00  0.00    -0.275 OA
ATOM     13  N   MET A   1      34.111 -12.247 -23.636  0.00  0.00    -0.297 N 
ATOM     14  C   UNK A   0      34.146 -11.480 -24.794  0.00  0.00    +0.228 C 
ATOM     15  H   MET A   1      34.569 -11.909 -22.833  0.00  0.00    +0.150 HD
BRANCH  14  16
ATOM     16  C   UNK A   0      34.904 -10.177 -24.630  0.00  0.00    +0.118 C 
BRANCH  16  18
ATOM     17  S   UNK A   0      34.680  -7.684 -23.470  0.00  0.00    -0.090 S 
ATOM     18  C   UNK A   0      34.015  -9.173 -23.951  0.00  0.00    +0.016 C 
ATOM     19  C   UNK A   0      32.691  -9.300 -23.655  0.00  0.00    +0.003 C 
ATOM     20  C   UNK A   0      32.194  -8.132 -23.007  0.00  0.00    +0.007 C 
ATOM     21  C   UNK A   0      33.170  -7.175 -22.844  0.00  0.00    +0.035 C 
ENDBRANCH  16  18
ENDBRANCH  14  16
ENDBRANCH   1  13
BRANCH   1  23
ATOM     22  O   MET A   1      31.840 -12.274 -22.233  0.00  0.00    -0.286 OA
ATOM     23  C   MET A   1      32.300 -13.359 -22.577  0.00  0.00    +0.230 C 
ENDBRANCH   1  23
TORSDOF 7
ENDMDL
MODEL 5
REMARK VINA RESULT:      -8.1      4.010      5.545
REMARK  Name = 5288990
REMARK  7 active torsions:
REMARK  status: ('A' for Active; 'I' for Inactive)
REMARK    1  A    between atoms: CA_1  and  CE_4
REMARK    2  A    between atoms: CA_1  and  N_13
REMARK    3  A    between atoms: CA_1  and  C_23
REMARK    4  A    between atoms: CA_7  and  C_9
REMARK    5  A    between atoms: C_9  and  O_10
REMARK    6  A    between atoms: C_14  and  C_16
REMARK    7  A    between atoms: C_16  and  C_18
REMARK                            x       y       z     vdW  Elec       q    Type
REMARK                         _______ _______ _______ _____ _____    ______ ____
ROOT
ATOM      1  CA  MET A   1      33.727 -23.583 -14.794  0.00  0.00    +0.170 C 
ENDROOT
BRANCH   1   4
ATOM      2  SD  MET A   1      36.253 -24.518 -15.185  0.00  0.00    -0.115 S 
ATOM      3  N   MET A   1      34.904 -24.002 -12.730  0.00  0.00    -0.257 NA
ATOM      4  CE  MET A   1      34.765 -24.476 -14.115  0.00  0.00    +0.176 C 
ATOM      5  CG  MET A   1      37.512 -24.876 -13.919  0.00  0.00    +0.066 C 
ATOM      6  CB  MET A   1      36.911 -25.453 -12.650  0.00  0.00    +0.064 C 
ATOM      7  CA  MET A   1      35.903 -24.493 -12.081  0.00  0.00    +0.131 C 
BRANCH   7   9
ATOM      8  OXT MET A   1      35.369 -24.535  -9.777  0.00  0.00    -0.244 OA
ATOM      9  C   MET A   1      36.061 -24.080 -10.661  0.00  0.00    +0.351 C 
BRANCH   9  10
ATOM     10  O   MET A   1      37.047 -23.181 -10.575  0.00  0.00    -0.476 OA
ATOM     11  H   MET A   1      37.013 -22.398 -11.088  0.00  0.00    +0.295 HD
ENDBRANCH   9  10
ENDBRANCH   7   9
ENDBRANCH   1   4
BRANCH   1  13
ATOM     12  O   UNK A   0      31.650 -23.237 -12.833  0.00  0.00    -0.275 OA
ATOM     13  N   MET A   1      32.434 -24.204 -14.795  0.00  0.00    -0.297 N 
ATOM     14  C   UNK A   0      31.488 -23.978 -13.802  0.00  0.00    +0.228 C 
ATOM     15  H   MET A   1      32.206 -24.816 -15.531  0.00  0.00    +0.150 HD
BRANCH  14  16
ATOM     16  C   UNK A   0      30.190 -24.731 -14.025  0.00  0.00    +0.118 C 
BRANCH  16  18
ATOM     17  S   UNK A   0      29.216 -22.394 -15.122  0.00  0.00    -0.090 S 
ATOM     18  C   UNK A   0      29.432 -24.081 -15.148  0.00  0.00    +0.016 C 
ATOM     19  C   UNK A   0      28.868 -24.685 -16.232  0.00  0.00    +0.003 C 
ATOM     20  C   UNK A   0      28.231 -23.734 -17.080  0.00  0.00    +0.007 C 
ATOM     21  C   UNK A   0      28.345 -22.450 -16.595  0.00  0.00    +0.035 C 
ENDBRANCH  16  18
ENDBRANCH  14  16
ENDBRANCH   1  13
BRANCH   1  23
ATOM     22  O   MET A   1      33.283 -23.296 -17.150  0.00  0.00    -0.286 OA
ATOM     23  C   MET A   1      34.095 -23.299 -16.229  0.00  0.00    +0.230 C 
ENDBRANCH   1  23
TORSDOF 7
ENDMDL
MODEL 6
REMARK VINA RESULT:      -8.0      8.887     11.832
REMARK  Name = 5288990
REMARK  7 active torsions:
REMARK  status: ('A' for Active; 'I' for Inactive)
REMARK    1  A    between atoms: CA_1  and  CE_4
REMARK    2  A    between atoms: CA_1  and  N_13
REMARK    3  A    between atoms: CA_1  and  C_23
REMARK    4  A    between atoms: CA_7  and  C_9
REMARK    5  A    between atoms: C_9  and  O_10
REMARK    6  A    between atoms: C_14  and  C_16
REMARK    7  A    between atoms: C_16  and  C_18
REMARK                            x       y       z     vdW  Elec       q    Type
REMARK                         _______ _______ _______ _____ _____    ______ ____
ROOT
ATOM      1  CA  MET A   1      33.849 -13.229 -23.949  0.00  0.00    +0.170 C 
ENDROOT
BRANCH   1   4
ATOM      2  SD  MET A   1      32.635 -14.253 -21.739  0.00  0.00    -0.115 S 
ATOM      3  N   MET A   1      34.821 -15.315 -23.225  0.00  0.00    -0.257 NA
ATOM      4  CE  MET A   1      34.169 -14.094 -22.730  0.00  0.00    +0.176 C 
ATOM      5  CG  MET A   1      32.983 -15.841 -20.918  0.00  0.00    +0.066 C 
ATOM      6  CB  MET A   1      34.460 -16.192 -20.936  0.00  0.00    +0.064 C 
ATOM      7  CA  MET A   1      34.951 -16.257 -22.357  0.00  0.00    +0.131 C 
BRANCH   7   9
ATOM      8  OXT MET A   1      36.218 -18.225 -22.014  0.00  0.00    -0.244 OA
ATOM      9  C   MET A   1      35.645 -17.497 -22.795  0.00  0.00    +0.351 C 
BRANCH   9  10
ATOM     10  O   MET A   1      35.510 -17.629 -24.119  0.00  0.00    -0.476 OA
ATOM     11  H   MET A   1      35.898 -16.999 -24.694  0.00  0.00    +0.295 HD
ENDBRANCH   9  10
ENDBRANCH   7   9
ENDBRANCH   1   4
BRANCH   1  13
ATOM     12  O   UNK A   0      34.331 -10.395 -23.820  0.00  0.00    -0.275 OA
ATOM     13  N   MET A   1      32.894 -12.209 -23.621  0.00  0.00    -0.297 N 
ATOM     14  C   UNK A   0      33.216 -10.857 -23.582  0.00  0.00    +0.228 C 
ATOM     15  H   MET A   1      31.971 -12.478 -23.414  0.00  0.00    +0.150 HD
BRANCH  14  16
ATOM     16  C   UNK A   0      32.040  -9.968 -23.228  0.00  0.00    +0.118 C 
BRANCH  16  18
ATOM     17  S   UNK A   0      32.370  -8.768 -20.765  0.00  0.00    -0.090 S 
ATOM     18  C   UNK A   0      31.801 -10.036 -21.745  0.00  0.00    +0.016 C 
ATOM     19  C   UNK A   0      31.164 -11.019 -21.048  0.00  0.00    +0.003 C 
ATOM     20  C   UNK A   0      31.137 -10.728 -19.654  0.00  0.00    +0.007 C 
ATOM     21  C   UNK A   0      31.757  -9.534 -19.362  0.00  0.00    +0.035 C 
ENDBRANCH  16  18
ENDBRANCH  14  16
ENDBRANCH   1  13
BRANCH   1  23
ATOM     22  O   MET A   1      33.081 -13.613 -26.205  0.00  0.00    -0.286 OA
ATOM     23  C   MET A   1      33.268 -14.049 -25.073  0.00  0.00    +0.230 C 
ENDBRANCH   1  23
TORSDOF 7
ENDMDL
MODEL 7
REMARK VINA RESULT:      -7.9      2.719      3.608
REMARK  Name = 5288990
REMARK  7 active torsions:
REMARK  status: ('A' for Active; 'I' for Inactive)
REMARK    1  A    between atoms: CA_1  and  CE_4
REMARK    2  A    between atoms: CA_1  and  N_13
REMARK    3  A    between atoms: CA_1  and  C_23
REMARK    4  A    between atoms: CA_7  and  C_9
REMARK    5  A    between atoms: C_9  and  O_10
REMARK    6  A    between atoms: C_14  and  C_16
REMARK    7  A    between atoms: C_16  and  C_18
REMARK                            x       y       z     vdW  Elec       q    Type
REMARK                         _______ _______ _______ _____ _____    ______ ____
ROOT
ATOM      1  CA  MET A   1      36.069 -22.794 -15.349  0.00  0.00    +0.170 C 
ENDROOT
BRANCH   1   4
ATOM      2  SD  MET A   1      38.076 -24.586 -14.943  0.00  0.00    -0.115 S 
ATOM      3  N   MET A   1      35.981 -23.825 -13.170  0.00  0.00    -0.257 NA
ATOM      4  CE  MET A   1      36.355 -24.077 -14.569  0.00  0.00    +0.176 C 
ATOM      5  CG  MET A   1      38.441 -25.517 -13.421  0.00  0.00    +0.066 C 
ATOM      6  CB  MET A   1      37.182 -25.937 -12.682  0.00  0.00    +0.064 C 
ATOM      7  CA  MET A   1      36.370 -24.720 -12.330  0.00  0.00    +0.131 C 
BRANCH   7   9
ATOM      8  OXT MET A   1      35.063 -25.153 -10.406  0.00  0.00    -0.244 OA
ATOM      9  C   MET A   1      35.977 -24.536 -10.907  0.00  0.00    +0.351 C 
BRANCH   9  10
ATOM     10  O   MET A   1      36.780 -23.626 -10.347  0.00  0.00    -0.476 OA
ATOM     11  H   MET A   1      37.710 -23.707 -10.431  0.00  0.00    +0.295 HD
ENDBRANCH   9  10
ENDBRANCH   7   9
ENDBRANCH   1   4
BRANCH   1  13
ATOM     12  O   UNK A   0      33.227 -22.987 -15.759  0.00  0.00    -0.275 OA
ATOM     13  N   MET A   1      35.396 -23.081 -16.585  0.00  0.00    -0.297 N 
ATOM     14  C   UNK A   0      34.013 -23.155 -16.691  0.00  0.00    +0.228 C 
ATOM     15  H   MET A   1      35.939 -23.231 -17.392  0.00  0.00    +0.150 HD
BRANCH  14  16
ATOM     16  C   UNK A   0      33.532 -23.454 -18.098  0.00  0.00    +0.118 C 
BRANCH  16  18
ATOM     17  S   UNK A   0      35.300 -21.906 -19.545  0.00  0.00    -0.090 S 
ATOM     18  C   UNK A   0      33.739 -22.237 -18.956  0.00  0.00    +0.016 C 
ATOM     19  C   UNK A   0      32.806 -21.322 -19.343  0.00  0.00    +0.003 C 
ATOM     20  C   UNK A   0      33.386 -20.305 -20.155  0.00  0.00    +0.007 C 
ATOM     21  C   UNK A   0      34.736 -20.501 -20.345  0.00  0.00    +0.035 C 
ENDBRANCH  16  18
ENDBRANCH  14  16
ENDBRANCH   1  13
BRANCH   1  23
ATOM     22  O   MET A   1      37.462 -21.325 -16.665  0.00  0.00    -0.286 OA
ATOM     23  C   MET A   1      37.340 -22.056 -15.686  0.00  0.00    +0.230 C 
ENDBRANCH   1  23
TORSDOF 7
ENDMDL
MODEL 8
REMARK VINA RESULT:      -7.9      6.476     11.130
REMARK  Name = 5288990
REMARK  7 active torsions:
REMARK  status: ('A' for Active; 'I' for Inactive)
REMARK    1  A    between atoms: CA_1  and  CE_4
REMARK    2  A    between atoms: CA_1  and  N_13
REMARK    3  A    between atoms: CA_1  and  C_23
REMARK    4  A    between atoms: CA_7  and  C_9
REMARK    5  A    between atoms: C_9  and  O_10
REMARK    6  A    between atoms: C_14  and  C_16
REMARK    7  A    between atoms: C_16  and  C_18
REMARK                            x       y       z     vdW  Elec       q    Type
REMARK                         _______ _______ _______ _____ _____    ______ ____
ROOT
ATOM      1  CA  MET A   1      33.939 -16.404 -23.660  0.00  0.00    +0.170 C 
ENDROOT
BRANCH   1   4
ATOM      2  SD  MET A   1      33.031 -15.371 -21.312  0.00  0.00    -0.115 S 
ATOM      3  N   MET A   1      33.607 -14.015 -23.749  0.00  0.00    -0.257 NA
ATOM      4  CE  MET A   1      33.086 -15.248 -23.140  0.00  0.00    +0.176 C 
ATOM      5  CG  MET A   1      32.737 -13.620 -20.910  0.00  0.00    +0.066 C 
ATOM      6  CB  MET A   1      32.192 -12.837 -22.092  0.00  0.00    +0.064 C 
ATOM      7  CA  MET A   1      33.155 -12.920 -23.245  0.00  0.00    +0.131 C 
BRANCH   7   9
ATOM      8  OXT MET A   1      33.271 -10.565 -23.433  0.00  0.00    -0.244 OA
ATOM      9  C   MET A   1      33.617 -11.646 -23.857  0.00  0.00    +0.351 C 
BRANCH   9  10
ATOM     10  O   MET A   1      34.430 -11.924 -24.882  0.00  0.00    -0.476 OA
ATOM     11  H   MET A   1      35.274 -11.521 -24.933  0.00  0.00    +0.295 HD
ENDBRANCH   9  10
ENDBRANCH   7   9
ENDBRANCH   1   4
BRANCH   1  13
ATOM     12  O   UNK A   0      34.900 -19.114 -23.563  0.00  0.00    -0.275 OA
ATOM     13  N   MET A   1      34.686 -17.013 -22.597  0.00  0.00    -0.297 N 
ATOM     14  C   UNK A   0      35.111 -18.335 -22.634  0.00  0.00    +0.228 C 
ATOM     15  H   MET A   1      34.907 -16.469 -21.807  0.00  0.00    +0.150 HD
BRANCH  14  16
ATOM     16  C   UNK A   0      35.897 -18.749 -21.405  0.00  0.00    +0.118 C 
BRANCH  16  18
ATOM     17  S   UNK A   0      36.033 -21.089 -19.949  0.00  0.00    -0.090 S 
ATOM     18  C   UNK A   0      35.149 -19.837 -20.687  0.00  0.00    +0.016 C 
ATOM     19  C   UNK A   0      33.800 -19.964 -20.541  0.00  0.00    +0.003 C 
ATOM     20  C   UNK A   0      33.470 -21.131 -19.794  0.00  0.00    +0.007 C 
ATOM     21  C   UNK A   0      34.589 -21.835 -19.410  0.00  0.00    +0.035 C 
ENDBRANCH  16  18
ENDBRANCH  14  16
ENDBRANCH   1  13
BRANCH   1  23
ATOM     22  O   MET A   1      35.032 -16.447 -25.813  0.00  0.00    -0.286 OA
ATOM     23  C   MET A   1      34.927 -15.939 -24.700  0.00  0.00    +0.230 C 
ENDBRANCH   1  23
TORSDOF 7
ENDMDL
MODEL 9
REMARK VINA RESULT:      -7.8      3.417      6.048
REMARK  Name = 5288990
REMARK  7 active torsions:
REMARK  status: ('A' for Active; 'I' for Inactive)
REMARK    1  A    between atoms: CA_1  and  CE_4
REMARK    2  A    between atoms: CA_1  and  N_13
REMARK    3  A    between atoms: CA_1  and  C_23
REMARK    4  A    between atoms: CA_7  and  C_9
REMARK    5  A    between atoms: C_9  and  O_10
REMARK    6  A    between atoms: C_14  and  C_16
REMARK    7  A    between atoms: C_16  and  C_18
REMARK                            x       y       z     vdW  Elec       q    Type
REMARK                         _______ _______ _______ _____ _____    ______ ____
ROOT
ATOM      1  CA  MET A   1      34.644 -23.992 -13.718  0.00  0.00    +0.170 C 
ENDROOT
BRANCH   1   4
ATOM      2  SD  MET A   1      37.213 -23.456 -14.438  0.00  0.00    -0.115 S 
ATOM      3  N   MET A   1      34.827 -23.086 -15.947  0.00  0.00    -0.257 NA
ATOM      4  CE  MET A   1      35.437 -23.037 -14.610  0.00  0.00    +0.176 C 
ATOM      5  CG  MET A   1      37.812 -22.855 -16.049  0.00  0.00    +0.066 C 
ATOM      6  CB  MET A   1      36.852 -21.870 -16.694  0.00  0.00    +0.064 C 
ATOM      7  CA  MET A   1      35.508 -22.519 -16.881  0.00  0.00    +0.131 C 
BRANCH   7   9
ATOM      8  OXT MET A   1      34.000 -23.233 -18.558  0.00  0.00    -0.244 OA
ATOM      9  C   MET A   1      34.912 -22.500 -18.243  0.00  0.00    +0.351 C 
BRANCH   9  10
ATOM     10  O   MET A   1      35.539 -21.578 -18.982  0.00  0.00    -0.476 OA
ATOM     11  H   MET A   1      36.395 -21.752 -19.320  0.00  0.00    +0.295 HD
ENDBRANCH   9  10
ENDBRANCH   7   9
ENDBRANCH   1   4
BRANCH   1  13
ATOM     12  O   UNK A   0      32.224 -25.518 -14.023  0.00  0.00    -0.275 OA
ATOM     13  N   MET A   1      33.302 -23.522 -13.524  0.00  0.00    -0.297 N 
ATOM     14  C   UNK A   0      32.187 -24.333 -13.694  0.00  0.00    +0.228 C 
ATOM     15  H   MET A   1      33.166 -22.584 -13.259  0.00  0.00    +0.150 HD
BRANCH  14  16
ATOM     16  C   UNK A   0      30.877 -23.620 -13.417  0.00  0.00    +0.118 C 
BRANCH  16  18
ATOM     17  S   UNK A   0      28.991 -24.842 -15.019  0.00  0.00    -0.090 S 
ATOM     18  C   UNK A   0      30.068 -23.569 -14.683  0.00  0.00    +0.016 C 
ATOM     19  C   UNK A   0      30.080 -22.600 -15.641  0.00  0.00    +0.003 C 
ATOM     20  C   UNK A   0      29.173 -22.906 -16.696  0.00  0.00    +0.007 C 
ATOM     21  C   UNK A   0      28.515 -24.097 -16.485  0.00  0.00    +0.035 C 
ENDBRANCH  16  18
ENDBRANCH  14  16
ENDBRANCH   1  13
BRANCH   1  23
ATOM     22  O   MET A   1      34.882 -24.919 -11.501  0.00  0.00    -0.286 OA
ATOM     23  C   MET A   1      35.277 -24.132 -12.357  0.00  0.00    +0.230 C 
ENDBRANCH   1  23
TORSDOF 7
ENDMDL
