MODEL 1
REMARK VINA RESULT:      -7.9      0.000      0.000
REMARK  Name = 5320
REMARK  3 active torsions:
REMARK  status: ('A' for Active; 'I' for Inactive)
REMARK    1  A    between atoms: C_1  and  S_7
REMARK    2  A    between atoms: C_4  and  N_15
REMARK    3  A    between atoms: S_7  and  N_11
REMARK                            x       y       z     vdW  Elec       q    Type
REMARK                         _______ _______ _______ _____ _____    ______ ____
ROOT
ATOM      1  C   UNL     1      34.136 -21.371 -19.609  0.00  0.00    +0.125 C 
ATOM      2  C   UNL     1      32.993 -20.660 -19.978  0.00  0.00    +0.021 C 
ATOM      3  C   UNL     1      35.393 -20.936 -20.026  0.00  0.00    +0.021 C 
ATOM      4  C   UNL     1      34.367 -19.079 -21.182  0.00  0.00    +0.042 C 
ATOM      5  C   UNL     1      33.109 -19.514 -20.764  0.00  0.00    +0.015 C 
ATOM      6  C   UNL     1      35.509 -19.790 -20.813  0.00  0.00    +0.015 C 
ENDROOT
BRANCH   1   7
ATOM      7  S   UNL     1      33.989 -22.805 -18.625  0.00  0.00    +0.076 S 
ATOM      8  O   UNL     1      33.985 -23.976 -19.491  0.00  0.00    -0.150 OA
ATOM      9  O   UNL     1      34.973 -22.708 -17.554  0.00  0.00    -0.150 OA
BRANCH   7  11
ATOM     10  O   UNL     1      32.757 -23.698 -15.898  0.00  0.00    -0.274 OA
ATOM     11  N   UNL     1      32.425 -22.609 -17.952  0.00  0.00    -0.185 N 
ATOM     12  C   UNL     1      32.014 -23.109 -16.677  0.00  0.00    +0.241 C 
ATOM     13  C   UNL     1      30.567 -22.845 -16.370  0.00  0.00    +0.096 C 
ATOM     14  H   UNL     1      31.759 -22.115 -18.484  0.00  0.00    +0.177 HD
ENDBRANCH   7  11
ENDBRANCH   1   7
BRANCH   4  15
ATOM     15  N   UNL     1      34.484 -17.919 -21.976  0.00  0.00    -0.357 N 
ATOM     16  H   UNL     1      34.114 -17.908 -22.888  0.00  0.00    +0.142 HD
ATOM     17  H   UNL     1      34.936 -17.121 -21.618  0.00  0.00    +0.142 HD
ENDBRANCH   4  15
TORSDOF 3
ENDMDL
MODEL 2
REMARK VINA RESULT:      -7.8      3.974      6.135
REMARK  Name = 5320
REMARK  3 active torsions:
REMARK  status: ('A' for Active; 'I' for Inactive)
REMARK    1  A    between atoms: C_1  and  S_7
REMARK    2  A    between atoms: C_4  and  N_15
REMARK    3  A    between atoms: S_7  and  N_11
REMARK                            x       y       z     vdW  Elec       q    Type
REMARK                         _______ _______ _______ _____ _____    ______ ____
ROOT
ATOM      1  C   UNL     1      34.876 -19.951 -20.812  0.00  0.00    +0.125 C 
ATOM      2  C   UNL     1      33.504 -20.059 -20.579  0.00  0.00    +0.021 C 
ATOM      3  C   UNL     1      35.757 -20.859 -20.225  0.00  0.00    +0.021 C 
ATOM      4  C   UNL     1      33.895 -21.983 -19.172  0.00  0.00    +0.042 C 
ATOM      5  C   UNL     1      33.014 -21.075 -19.758  0.00  0.00    +0.015 C 
ATOM      6  C   UNL     1      35.267 -21.875 -19.405  0.00  0.00    +0.015 C 
ENDROOT
BRANCH   1   7
ATOM      7  S   UNL     1      35.487 -18.679 -21.840  0.00  0.00    +0.076 S 
ATOM      8  O   UNL     1      36.935 -18.605 -21.691  0.00  0.00    -0.150 OA
ATOM      9  O   UNL     1      34.910 -18.866 -23.164  0.00  0.00    -0.150 OA
BRANCH   7  11
ATOM     10  O   UNL     1      35.244 -15.725 -22.819  0.00  0.00    -0.274 OA
ATOM     11  N   UNL     1      34.786 -17.287 -21.126  0.00  0.00    -0.185 N 
ATOM     12  C   UNL     1      34.782 -15.982 -21.712  0.00  0.00    +0.241 C 
ATOM     13  C   UNL     1      34.153 -14.937 -20.835  0.00  0.00    +0.096 C 
ATOM     14  H   UNL     1      34.354 -17.394 -20.249  0.00  0.00    +0.177 HD
ENDBRANCH   7  11
ENDBRANCH   1   7
BRANCH   4  15
ATOM     15  N   UNL     1      33.400 -23.011 -18.342  0.00  0.00    -0.357 N 
ATOM     16  H   UNL     1      32.436 -23.209 -18.326  0.00  0.00    +0.142 HD
ATOM     17  H   UNL     1      34.019 -23.532 -17.781  0.00  0.00    +0.142 HD
ENDBRANCH   4  15
TORSDOF 3
ENDMDL
MODEL 3
REMARK VINA RESULT:      -7.8      3.986      6.471
REMARK  Name = 5320
REMARK  3 active torsions:
REMARK  status: ('A' for Active; 'I' for Inactive)
REMARK    1  A    between atoms: C_1  and  S_7
REMARK    2  A    between atoms: C_4  and  N_15
REMARK    3  A    between atoms: S_7  and  N_11
REMARK                            x       y       z     vdW  Elec       q    Type
REMARK                         _______ _______ _______ _____ _____    ______ ____
ROOT
ATOM      1  C   UNL     1      35.105 -19.838 -20.623  0.00  0.00    +0.125 C 
ATOM      2  C   UNL     1      35.936 -20.795 -20.040  0.00  0.00    +0.021 C 
ATOM      3  C   UNL     1      33.720 -19.995 -20.576  0.00  0.00    +0.021 C 
ATOM      4  C   UNL     1      33.996 -22.066 -19.363  0.00  0.00    +0.042 C 
ATOM      5  C   UNL     1      35.382 -21.909 -19.410  0.00  0.00    +0.015 C 
ATOM      6  C   UNL     1      33.166 -21.109 -19.946  0.00  0.00    +0.015 C 
ENDROOT
BRANCH   1   7
ATOM      7  S   UNL     1      35.800 -18.444 -21.411  0.00  0.00    +0.076 S 
ATOM      8  O   UNL     1      35.352 -17.240 -20.724  0.00  0.00    -0.150 OA
ATOM      9  O   UNL     1      37.227 -18.692 -21.569  0.00  0.00    -0.150 OA
BRANCH   7  11
ATOM     10  O   UNL     1      35.503 -16.321 -23.681  0.00  0.00    -0.274 OA
ATOM     11  N   UNL     1      35.057 -18.509 -22.955  0.00  0.00    -0.185 N 
ATOM     12  C   UNL     1      34.990 -17.418 -23.877  0.00  0.00    +0.241 C 
ATOM     13  C   UNL     1      34.224 -17.740 -25.128  0.00  0.00    +0.096 C 
ATOM     14  H   UNL     1      34.646 -19.361 -23.226  0.00  0.00    +0.177 HD
ENDBRANCH   7  11
ENDBRANCH   1   7
BRANCH   4  15
ATOM     15  N   UNL     1      33.435 -23.192 -18.725  0.00  0.00    -0.357 N 
ATOM     16  H   UNL     1      33.278 -24.020 -19.236  0.00  0.00    +0.142 HD
ATOM     17  H   UNL     1      33.202 -23.152 -17.770  0.00  0.00    +0.142 HD
ENDBRANCH   4  15
TORSDOF 3
ENDMDL
MODEL 4
REMARK VINA RESULT:      -7.6      1.654      2.372
REMARK  Name = 5320
REMARK  3 active torsions:
REMARK  status: ('A' for Active; 'I' for Inactive)
REMARK    1  A    between atoms: C_1  and  S_7
REMARK    2  A    between atoms: C_4  and  N_15
REMARK    3  A    between atoms: S_7  and  N_11
REMARK                            x       y       z     vdW  Elec       q    Type
REMARK                         _______ _______ _______ _____ _____    ______ ____
ROOT
ATOM      1  C   UNL     1      34.361 -21.415 -19.559  0.00  0.00    +0.125 C 
ATOM      2  C   UNL     1      35.745 -21.259 -19.636  0.00  0.00    +0.021 C 
ATOM      3  C   UNL     1      33.521 -20.530 -20.235  0.00  0.00    +0.021 C 
ATOM      4  C   UNL     1      35.449 -19.334 -21.066  0.00  0.00    +0.042 C 
ATOM      5  C   UNL     1      36.289 -20.218 -20.389  0.00  0.00    +0.015 C 
ATOM      6  C   UNL     1      34.065 -19.490 -20.988  0.00  0.00    +0.015 C 
ENDROOT
BRANCH   1   7
ATOM      7  S   UNL     1      33.682 -22.717 -18.617  0.00  0.00    +0.076 S 
ATOM      8  O   UNL     1      32.329 -22.356 -18.214  0.00  0.00    -0.150 OA
ATOM      9  O   UNL     1      33.905 -23.956 -19.350  0.00  0.00    -0.150 OA
BRANCH   7  11
ATOM     10  O   UNL     1      33.257 -23.779 -15.711  0.00  0.00    -0.274 OA
ATOM     11  N   UNL     1      34.692 -22.710 -17.231  0.00  0.00    -0.185 N 
ATOM     12  C   UNL     1      34.326 -23.227 -15.949  0.00  0.00    +0.241 C 
ATOM     13  C   UNL     1      35.385 -23.030 -14.902  0.00  0.00    +0.096 C 
ATOM     14  H   UNL     1      35.591 -22.320 -17.326  0.00  0.00    +0.177 HD
ENDBRANCH   7  11
ENDBRANCH   1   7
BRANCH   4  15
ATOM     15  N   UNL     1      35.999 -18.282 -21.828  0.00  0.00    -0.357 N 
ATOM     16  H   UNL     1      35.814 -18.225 -22.793  0.00  0.00    +0.142 HD
ATOM     17  H   UNL     1      36.566 -17.605 -21.394  0.00  0.00    +0.142 HD
ENDBRANCH   4  15
TORSDOF 3
ENDMDL
MODEL 5
REMARK VINA RESULT:      -7.3      4.376      5.682
REMARK  Name = 5320
REMARK  3 active torsions:
REMARK  status: ('A' for Active; 'I' for Inactive)
REMARK    1  A    between atoms: C_1  and  S_7
REMARK    2  A    between atoms: C_4  and  N_15
REMARK    3  A    between atoms: S_7  and  N_11
REMARK                            x       y       z     vdW  Elec       q    Type
REMARK                         _______ _______ _______ _____ _____    ______ ____
ROOT
ATOM      1  C   UNL     1      34.694 -16.963 -22.932  0.00  0.00    +0.125 C 
ATOM      2  C   UNL     1      34.728 -17.606 -24.169  0.00  0.00    +0.021 C 
ATOM      3  C   UNL     1      34.176 -15.672 -22.831  0.00  0.00    +0.021 C 
ATOM      4  C   UNL     1      33.726 -15.667 -25.205  0.00  0.00    +0.042 C 
ATOM      5  C   UNL     1      34.244 -16.958 -25.306  0.00  0.00    +0.015 C 
ATOM      6  C   UNL     1      33.692 -15.024 -23.967  0.00  0.00    +0.015 C 
ENDROOT
BRANCH   1   7
ATOM      7  S   UNL     1      35.300 -17.775 -21.511  0.00  0.00    +0.076 S 
ATOM      8  O   UNL     1      36.506 -18.512 -21.864  0.00  0.00    -0.150 OA
ATOM      9  O   UNL     1      35.345 -16.799 -20.430  0.00  0.00    -0.150 OA
BRANCH   7  11
ATOM     10  O   UNL     1      35.216 -20.393 -19.811  0.00  0.00    -0.274 OA
ATOM     11  N   UNL     1      34.042 -18.895 -21.186  0.00  0.00    -0.185 N 
ATOM     12  C   UNL     1      34.183 -20.075 -20.391  0.00  0.00    +0.241 C 
ATOM     13  C   UNL     1      32.932 -20.904 -20.328  0.00  0.00    +0.096 C 
ATOM     14  H   UNL     1      33.157 -18.711 -21.576  0.00  0.00    +0.177 HD
ENDBRANCH   7  11
ENDBRANCH   1   7
BRANCH   4  15
ATOM     15  N   UNL     1      33.236 -15.012 -26.354  0.00  0.00    -0.357 N 
ATOM     16  H   UNL     1      33.762 -14.292 -26.772  0.00  0.00    +0.142 HD
ATOM     17  H   UNL     1      32.368 -15.274 -26.738  0.00  0.00    +0.142 HD
ENDBRANCH   4  15
TORSDOF 3
ENDMDL
MODEL 6
REMARK VINA RESULT:      -7.2      2.017      5.794
REMARK  Name = 5320
REMARK  3 active torsions:
REMARK  status: ('A' for Active; 'I' for Inactive)
REMARK    1  A    between atoms: C_1  and  S_7
REMARK    2  A    between atoms: C_4  and  N_15
REMARK    3  A    between atoms: S_7  and  N_11
REMARK                            x       y       z     vdW  Elec       q    Type
REMARK                         _______ _______ _______ _____ _____    ______ ____
ROOT
ATOM      1  C   UNL     1      33.012 -23.121 -16.890  0.00  0.00    +0.125 C 
ATOM      2  C   UNL     1      33.664 -23.469 -15.707  0.00  0.00    +0.021 C 
ATOM      3  C   UNL     1      31.632 -22.920 -16.893  0.00  0.00    +0.021 C 
ATOM      4  C   UNL     1      31.556 -23.414 -14.529  0.00  0.00    +0.042 C 
ATOM      5  C   UNL     1      32.936 -23.616 -14.527  0.00  0.00    +0.015 C 
ATOM      6  C   UNL     1      30.904 -23.066 -15.712  0.00  0.00    +0.015 C 
ENDROOT
BRANCH   1   7
ATOM      7  S   UNL     1      33.925 -22.937 -18.367  0.00  0.00    +0.076 S 
ATOM      8  O   UNL     1      35.252 -22.432 -18.043  0.00  0.00    -0.150 OA
ATOM      9  O   UNL     1      33.793 -24.174 -19.125  0.00  0.00    -0.150 OA
BRANCH   7  11
ATOM     10  O   UNL     1      34.791 -20.735 -20.404  0.00  0.00    -0.274 OA
ATOM     11  N   UNL     1      33.044 -21.704 -19.171  0.00  0.00    -0.185 N 
ATOM     12  C   UNL     1      33.611 -20.748 -20.070  0.00  0.00    +0.241 C 
ATOM     13  C   UNL     1      32.615 -19.745 -20.579  0.00  0.00    +0.096 C 
ATOM     14  H   UNL     1      32.076 -21.652 -18.999  0.00  0.00    +0.177 HD
ENDBRANCH   7  11
ENDBRANCH   1   7
BRANCH   4  15
ATOM     15  N   UNL     1      30.819 -23.562 -13.336  0.00  0.00    -0.357 N 
ATOM     16  H   UNL     1      29.849 -23.727 -13.373  0.00  0.00    +0.142 HD
ATOM     17  H   UNL     1      31.274 -23.501 -12.465  0.00  0.00    +0.142 HD
ENDBRANCH   4  15
TORSDOF 3
ENDMDL
MODEL 7
REMARK VINA RESULT:      -7.1      3.221      5.351
REMARK  Name = 5320
REMARK  3 active torsions:
REMARK  status: ('A' for Active; 'I' for Inactive)
REMARK    1  A    between atoms: C_1  and  S_7
REMARK    2  A    between atoms: C_4  and  N_15
REMARK    3  A    between atoms: S_7  and  N_11
REMARK                            x       y       z     vdW  Elec       q    Type
REMARK                         _______ _______ _______ _____ _____    ______ ____
ROOT
ATOM      1  C   UNL     1      34.745 -22.765 -17.327  0.00  0.00    +0.125 C 
ATOM      2  C   UNL     1      34.277 -23.429 -16.193  0.00  0.00    +0.021 C 
ATOM      3  C   UNL     1      36.029 -22.220 -17.337  0.00  0.00    +0.021 C 
ATOM      4  C   UNL     1      36.378 -23.005 -15.079  0.00  0.00    +0.042 C 
ATOM      5  C   UNL     1      35.094 -23.549 -15.069  0.00  0.00    +0.015 C 
ATOM      6  C   UNL     1      36.846 -22.340 -16.213  0.00  0.00    +0.015 C 
ENDROOT
BRANCH   1   7
ATOM      7  S   UNL     1      33.722 -22.616 -18.733  0.00  0.00    +0.076 S 
ATOM      8  O   UNL     1      33.945 -23.762 -19.605  0.00  0.00    -0.150 OA
ATOM      9  O   UNL     1      32.373 -22.319 -18.269  0.00  0.00    -0.150 OA
BRANCH   7  11
ATOM     10  O   UNL     1      32.495 -20.579 -20.756  0.00  0.00    -0.274 OA
ATOM     11  N   UNL     1      34.364 -21.216 -19.486  0.00  0.00    -0.185 N 
ATOM     12  C   UNL     1      33.661 -20.395 -20.422  0.00  0.00    +0.241 C 
ATOM     13  C   UNL     1      34.491 -19.269 -20.969  0.00  0.00    +0.096 C 
ATOM     14  H   UNL     1      35.285 -20.958 -19.256  0.00  0.00    +0.177 HD
ENDBRANCH   7  11
ENDBRANCH   1   7
BRANCH   4  15
ATOM     15  N   UNL     1      37.205 -23.126 -13.942  0.00  0.00    -0.357 N 
ATOM     16  H   UNL     1      37.765 -22.368 -13.658  0.00  0.00    +0.142 HD
ATOM     17  H   UNL     1      37.221 -23.969 -13.433  0.00  0.00    +0.142 HD
ENDBRANCH   4  15
TORSDOF 3
ENDMDL
MODEL 8
REMARK VINA RESULT:      -6.9      4.219      5.866
REMARK  Name = 5320
REMARK  3 active torsions:
REMARK  status: ('A' for Active; 'I' for Inactive)
REMARK    1  A    between atoms: C_1  and  S_7
REMARK    2  A    between atoms: C_4  and  N_15
REMARK    3  A    between atoms: S_7  and  N_11
REMARK                            x       y       z     vdW  Elec       q    Type
REMARK                         _______ _______ _______ _____ _____    ______ ____
ROOT
ATOM      1  C   UNL     1      34.225 -23.578 -15.825  0.00  0.00    +0.125 C 
ATOM      2  C   UNL     1      33.871 -23.225 -17.128  0.00  0.00    +0.021 C 
ATOM      3  C   UNL     1      33.251 -23.637 -14.829  0.00  0.00    +0.021 C 
ATOM      4  C   UNL     1      31.568 -22.990 -16.438  0.00  0.00    +0.042 C 
ATOM      5  C   UNL     1      32.542 -22.930 -17.434  0.00  0.00    +0.015 C 
ATOM      6  C   UNL     1      31.922 -23.343 -15.135  0.00  0.00    +0.015 C 
ENDROOT
BRANCH   1   7
ATOM      7  S   UNL     1      35.888 -23.946 -15.444  0.00  0.00    +0.076 S 
ATOM      8  O   UNL     1      36.071 -25.391 -15.470  0.00  0.00    -0.150 OA
ATOM      9  O   UNL     1      36.731 -23.101 -16.279  0.00  0.00    -0.150 OA
BRANCH   7  11
ATOM     10  O   UNL     1      38.261 -23.903 -13.414  0.00  0.00    -0.274 OA
ATOM     11  N   UNL     1      36.003 -23.404 -13.821  0.00  0.00    -0.185 N 
ATOM     12  C   UNL     1      37.181 -23.480 -13.014  0.00  0.00    +0.241 C 
ATOM     13  C   UNL     1      36.975 -22.988 -11.610  0.00  0.00    +0.096 C 
ATOM     14  H   UNL     1      35.197 -23.011 -13.415  0.00  0.00    +0.177 HD
ENDBRANCH   7  11
ENDBRANCH   1   7
BRANCH   4  15
ATOM     15  N   UNL     1      30.224 -22.693 -16.747  0.00  0.00    -0.357 N 
ATOM     16  H   UNL     1      29.783 -23.141 -17.505  0.00  0.00    +0.142 HD
ATOM     17  H   UNL     1      29.727 -22.039 -16.204  0.00  0.00    +0.142 HD
ENDBRANCH   4  15
TORSDOF 3
ENDMDL
MODEL 9
REMARK VINA RESULT:      -6.9      4.424      5.708
REMARK  Name = 5320
REMARK  3 active torsions:
REMARK  status: ('A' for Active; 'I' for Inactive)
REMARK    1  A    between atoms: C_1  and  S_7
REMARK    2  A    between atoms: C_4  and  N_15
REMARK    3  A    between atoms: S_7  and  N_11
REMARK                            x       y       z     vdW  Elec       q    Type
REMARK                         _______ _______ _______ _____ _____    ______ ____
ROOT
ATOM      1  C   UNL     1      34.782 -16.779 -22.784  0.00  0.00    +0.125 C 
ATOM      2  C   UNL     1      34.415 -16.323 -24.050  0.00  0.00    +0.021 C 
ATOM      3  C   UNL     1      34.713 -15.920 -21.687  0.00  0.00    +0.021 C 
ATOM      4  C   UNL     1      33.910 -14.151 -23.123  0.00  0.00    +0.042 C 
ATOM      5  C   UNL     1      33.979 -15.009 -24.220  0.00  0.00    +0.015 C 
ATOM      6  C   UNL     1      34.277 -14.606 -21.857  0.00  0.00    +0.015 C 
ENDROOT
BRANCH   1   7
ATOM      7  S   UNL     1      35.327 -18.423 -22.573  0.00  0.00    +0.076 S 
ATOM      8  O   UNL     1      35.270 -19.110 -23.856  0.00  0.00    -0.150 OA
ATOM      9  O   UNL     1      36.583 -18.381 -21.837  0.00  0.00    -0.150 OA
BRANCH   7  11
ATOM     10  O   UNL     1      35.353 -20.765 -20.508  0.00  0.00    -0.274 OA
ATOM     11  N   UNL     1      34.111 -19.065 -21.548  0.00  0.00    -0.185 N 
ATOM     12  C   UNL     1      34.289 -20.175 -20.664  0.00  0.00    +0.241 C 
ATOM     13  C   UNL     1      33.035 -20.561 -19.932  0.00  0.00    +0.096 C 
ATOM     14  H   UNL     1      33.225 -18.637 -21.569  0.00  0.00    +0.177 HD
ENDBRANCH   7  11
ENDBRANCH   1   7
BRANCH   4  15
ATOM     15  N   UNL     1      33.468 -12.822 -23.294  0.00  0.00    -0.357 N 
ATOM     16  H   UNL     1      33.540 -12.389 -24.175  0.00  0.00    +0.142 HD
ATOM     17  H   UNL     1      33.088 -12.328 -22.532  0.00  0.00    +0.142 HD
ENDBRANCH   4  15
TORSDOF 3
ENDMDL
