MODEL 1
REMARK VINA RESULT:      -1.8      0.000      0.000
REMARK  Name = 46937025
REMARK  4 active torsions:
REMARK  status: ('A' for Active; 'I' for Inactive)
REMARK    1  A    between atoms: C_12  and  C_24
REMARK    2  A    between atoms: C_13  and  O_28
REMARK    3  A    between atoms: C_16  and  O_30
REMARK    4  A    between atoms: C_18  and  O_32
REMARK                            x       y       z     vdW  Elec       q    Type
REMARK                         _______ _______ _______ _____ _____    ______ ____
ROOT
ATOM      1  O   UNL     1      36.641 -22.568 -13.677  0.00  0.00    -0.314 OA
ATOM      2  O   UNL     1      35.826 -23.722 -16.693  0.00  0.00    -0.448 OA
ATOM      3  O   UNL     1      35.927 -23.532 -11.626  0.00  0.00    -0.423 OA
ATOM      4  O   UNL     1      38.889 -26.562 -14.169  0.00  0.00    -0.450 OA
ATOM      5  O   UNL     1      37.395 -22.095 -16.409  0.00  0.00    -0.248 OA
ATOM      6  O   UNL     1      35.270 -25.369 -10.417  0.00  0.00    -0.247 OA
ATOM      7  O   UNL     1      41.153 -26.123 -14.182  0.00  0.00    -0.250 OA
ATOM      8  C   UNL     1      35.735 -24.658 -14.490  0.00  0.00    +0.109 C 
ATOM      9  C   UNL     1      34.692 -23.949 -13.592  0.00  0.00    +0.110 C 
ATOM     10  C   UNL     1      36.885 -23.625 -14.600  0.00  0.00    +0.194 C 
ATOM     11  C   UNL     1      35.150 -24.717 -15.908  0.00  0.00    +0.201 C 
ATOM     12  C   UNL     1      33.699 -23.324 -14.609  0.00  0.00    +0.040 C 
ATOM     13  C   UNL     1      36.417 -25.985 -14.039  0.00  0.00    +0.157 C 
ATOM     14  C   UNL     1      38.123 -24.416 -14.221  0.00  0.00    +0.089 C 
ATOM     15  C   UNL     1      35.520 -22.908 -12.855  0.00  0.00    +0.294 C 
ATOM     16  C   UNL     1      33.677 -24.360 -15.731  0.00  0.00    +0.151 C 
ATOM     17  C   UNL     1      37.792 -25.819 -14.658  0.00  0.00    +0.199 C 
ATOM     18  C   UNL     1      34.073 -24.717 -12.433  0.00  0.00    +0.216 C 
ATOM     19  C   UNL     1      36.774 -23.056 -15.982  0.00  0.00    +0.342 C 
ATOM     20  C   UNL     1      39.565 -24.315 -14.661  0.00  0.00    +0.105 C 
ATOM     21  C   UNL     1      35.133 -24.617 -11.369  0.00  0.00    +0.346 C 
ATOM     22  C   UNL     1      40.000 -25.744 -14.315  0.00  0.00    +0.317 C 
ATOM     23  C   UNL     1      39.866 -24.017 -16.117  0.00  0.00    +0.012 C 
ENDROOT
BRANCH  12  24
ATOM     24  C   UNL     1      32.300 -22.991 -14.103  0.00  0.00    +0.003 C 
ATOM     25  C   UNL     1      32.378 -22.463 -12.661  0.00  0.00    +0.000 C 
ATOM     26  C   UNL     1      31.420 -24.254 -14.130  0.00  0.00    +0.000 C 
ATOM     27  C   UNL     1      31.662 -21.915 -14.999  0.00  0.00    +0.000 C 
ENDBRANCH  12  24
BRANCH  13  28
ATOM     28  O   UNL     1      35.786 -27.146 -14.545  0.00  0.00    -0.381 OA
ATOM     29  H   UNL     1      34.825 -27.055 -14.461  0.00  0.00    +0.210 HD
ENDBRANCH  13  28
BRANCH  16  30
ATOM     30  O   UNL     1      33.103 -23.845 -16.917  0.00  0.00    -0.381 OA
ATOM     31  H   UNL     1      33.717 -23.974 -17.656  0.00  0.00    +0.210 HD
ENDBRANCH  16  30
BRANCH  18  32
ATOM     32  O   UNL     1      33.714 -26.032 -12.759  0.00  0.00    -0.374 OA
ATOM     33  H   UNL     1      32.803 -26.045 -13.090  0.00  0.00    +0.211 HD
ENDBRANCH  18  32
TORSDOF 4
ENDMDL
MODEL 2
REMARK VINA RESULT:      -1.8      1.620      5.599
REMARK  Name = 46937025
REMARK  4 active torsions:
REMARK  status: ('A' for Active; 'I' for Inactive)
REMARK    1  A    between atoms: C_12  and  C_24
REMARK    2  A    between atoms: C_13  and  O_28
REMARK    3  A    between atoms: C_16  and  O_30
REMARK    4  A    between atoms: C_18  and  O_32
REMARK                            x       y       z     vdW  Elec       q    Type
REMARK                         _______ _______ _______ _____ _____    ______ ____
ROOT
ATOM      1  O   UNL     1      35.466 -25.978 -15.521  0.00  0.00    -0.314 OA
ATOM      2  O   UNL     1      35.798 -22.697 -15.985  0.00  0.00    -0.448 OA
ATOM      3  O   UNL     1      36.256 -27.157 -13.614  0.00  0.00    -0.423 OA
ATOM      4  O   UNL     1      32.664 -23.964 -12.465  0.00  0.00    -0.450 OA
ATOM      5  O   UNL     1      34.500 -23.982 -17.347  0.00  0.00    -0.248 OA
ATOM      6  O   UNL     1      36.784 -27.196 -11.382  0.00  0.00    -0.247 OA
ATOM      7  O   UNL     1      30.490 -24.524 -12.995  0.00  0.00    -0.250 OA
ATOM      8  C   UNL     1      35.993 -24.118 -14.067  0.00  0.00    +0.109 C 
ATOM      9  C   UNL     1      37.211 -25.070 -14.162  0.00  0.00    +0.110 C 
ATOM     10  C   UNL     1      34.987 -24.709 -15.086  0.00  0.00    +0.194 C 
ATOM     11  C   UNL     1      36.413 -22.779 -14.690  0.00  0.00    +0.201 C 
ATOM     12  C   UNL     1      38.166 -24.345 -15.148  0.00  0.00    +0.040 C 
ATOM     13  C   UNL     1      35.191 -23.966 -12.739  0.00  0.00    +0.157 C 
ATOM     14  C   UNL     1      33.701 -24.844 -14.294  0.00  0.00    +0.089 C 
ATOM     15  C   UNL     1      36.612 -26.341 -14.744  0.00  0.00    +0.294 C 
ATOM     16  C   UNL     1      37.930 -22.872 -14.815  0.00  0.00    +0.151 C 
ATOM     17  C   UNL     1      33.793 -23.733 -13.281  0.00  0.00    +0.199 C 
ATOM     18  C   UNL     1      37.840 -25.593 -12.879  0.00  0.00    +0.216 C 
ATOM     19  C   UNL     1      35.028 -23.782 -16.264  0.00  0.00    +0.342 C 
ATOM     20  C   UNL     1      32.247 -24.743 -14.693  0.00  0.00    +0.105 C 
ATOM     21  C   UNL     1      36.920 -26.723 -12.499  0.00  0.00    +0.346 C 
ATOM     22  C   UNL     1      31.664 -24.412 -13.315  0.00  0.00    +0.317 C 
ATOM     23  C   UNL     1      31.838 -23.685 -15.700  0.00  0.00    +0.012 C 
ENDROOT
BRANCH  12  24
ATOM     24  C   UNL     1      39.643 -24.721 -15.092  0.00  0.00    +0.003 C 
ATOM     25  C   UNL     1      40.400 -24.035 -16.241  0.00  0.00    +0.000 C 
ATOM     26  C   UNL     1      39.799 -26.246 -15.224  0.00  0.00    +0.000 C 
ATOM     27  C   UNL     1      40.247 -24.268 -13.750  0.00  0.00    +0.000 C 
ENDBRANCH  12  24
BRANCH  13  28
ATOM     28  O   UNL     1      35.603 -22.866 -11.951  0.00  0.00    -0.381 OA
ATOM     29  H   UNL     1      35.343 -23.014 -11.028  0.00  0.00    +0.210 HD
ENDBRANCH  13  28
BRANCH  16  30
ATOM     30  O   UNL     1      38.441 -22.015 -15.817  0.00  0.00    -0.381 OA
ATOM     31  H   UNL     1      38.367 -22.448 -16.681  0.00  0.00    +0.210 HD
ENDBRANCH  16  30
BRANCH  18  32
ATOM     32  O   UNL     1      37.982 -24.616 -11.884  0.00  0.00    -0.374 OA
ATOM     33  H   UNL     1      38.749 -24.058 -12.088  0.00  0.00    +0.211 HD
ENDBRANCH  18  32
TORSDOF 4
ENDMDL
MODEL 3
REMARK VINA RESULT:      -0.4      1.539      3.951
REMARK  Name = 46937025
REMARK  4 active torsions:
REMARK  status: ('A' for Active; 'I' for Inactive)
REMARK    1  A    between atoms: C_12  and  C_24
REMARK    2  A    between atoms: C_13  and  O_28
REMARK    3  A    between atoms: C_16  and  O_30
REMARK    4  A    between atoms: C_18  and  O_32
REMARK                            x       y       z     vdW  Elec       q    Type
REMARK                         _______ _______ _______ _____ _____    ______ ____
ROOT
ATOM      1  O   UNL     1      35.110 -26.017 -14.917  0.00  0.00    -0.314 OA
ATOM      2  O   UNL     1      35.188 -23.941 -12.314  0.00  0.00    -0.448 OA
ATOM      3  O   UNL     1      34.429 -25.404 -17.110  0.00  0.00    -0.423 OA
ATOM      4  O   UNL     1      38.562 -23.071 -15.732  0.00  0.00    -0.450 OA
ATOM      5  O   UNL     1      36.092 -26.031 -12.218  0.00  0.00    -0.248 OA
ATOM      6  O   UNL     1      34.211 -23.814 -18.750  0.00  0.00    -0.247 OA
ATOM      7  O   UNL     1      40.540 -24.256 -15.735  0.00  0.00    -0.250 OA
ATOM      8  C   UNL     1      35.057 -23.609 -14.682  0.00  0.00    +0.109 C 
ATOM      9  C   UNL     1      33.714 -24.108 -15.273  0.00  0.00    +0.110 C 
ATOM     10  C   UNL     1      35.820 -24.918 -14.354  0.00  0.00    +0.194 C 
ATOM     11  C   UNL     1      34.750 -23.001 -13.306  0.00  0.00    +0.201 C 
ATOM     12  C   UNL     1      32.746 -24.074 -14.059  0.00  0.00    +0.040 C 
ATOM     13  C   UNL     1      36.046 -22.761 -15.536  0.00  0.00    +0.157 C 
ATOM     14  C   UNL     1      37.169 -24.730 -15.019  0.00  0.00    +0.089 C 
ATOM     15  C   UNL     1      34.042 -25.521 -15.730  0.00  0.00    +0.294 C 
ATOM     16  C   UNL     1      33.232 -22.852 -13.281  0.00  0.00    +0.151 C 
ATOM     17  C   UNL     1      37.376 -23.238 -14.982  0.00  0.00    +0.199 C 
ATOM     18  C   UNL     1      33.199 -23.485 -16.561  0.00  0.00    +0.216 C 
ATOM     19  C   UNL     1      35.750 -25.051 -12.862  0.00  0.00    +0.342 C 
ATOM     20  C   UNL     1      38.554 -25.215 -14.660  0.00  0.00    +0.105 C 
ATOM     21  C   UNL     1      33.992 -24.210 -17.617  0.00  0.00    +0.346 C 
ATOM     22  C   UNL     1      39.362 -24.162 -15.427  0.00  0.00    +0.317 C 
ATOM     23  C   UNL     1      38.968 -25.230 -13.201  0.00  0.00    +0.012 C 
ENDROOT
BRANCH  12  24
ATOM     24  C   UNL     1      31.253 -24.011 -14.360  0.00  0.00    +0.003 C 
ATOM     25  C   UNL     1      30.830 -22.552 -14.598  0.00  0.00    +0.000 C 
ATOM     26  C   UNL     1      30.456 -24.579 -13.172  0.00  0.00    +0.000 C 
ATOM     27  C   UNL     1      30.938 -24.839 -15.618  0.00  0.00    +0.000 C 
ENDBRANCH  12  24
BRANCH  13  28
ATOM     28  O   UNL     1      35.906 -21.365 -15.345  0.00  0.00    -0.381 OA
ATOM     29  H   UNL     1      36.171 -20.900 -16.153  0.00  0.00    +0.210 HD
ENDBRANCH  13  28
BRANCH  16  30
ATOM     30  O   UNL     1      32.717 -22.823 -11.964  0.00  0.00    -0.381 OA
ATOM     31  H   UNL     1      32.169 -22.032 -11.849  0.00  0.00    +0.210 HD
ENDBRANCH  16  30
BRANCH  18  32
ATOM     32  O   UNL     1      33.334 -22.091 -16.604  0.00  0.00    -0.374 OA
ATOM     33  H   UNL     1      34.197 -21.862 -16.983  0.00  0.00    +0.211 HD
ENDBRANCH  18  32
TORSDOF 4
ENDMDL
MODEL 4
REMARK VINA RESULT:      -0.4      1.455      3.793
REMARK  Name = 46937025
REMARK  4 active torsions:
REMARK  status: ('A' for Active; 'I' for Inactive)
REMARK    1  A    between atoms: C_12  and  C_24
REMARK    2  A    between atoms: C_13  and  O_28
REMARK    3  A    between atoms: C_16  and  O_30
REMARK    4  A    between atoms: C_18  and  O_32
REMARK                            x       y       z     vdW  Elec       q    Type
REMARK                         _______ _______ _______ _____ _____    ______ ____
ROOT
ATOM      1  O   UNL     1      35.729 -26.239 -15.119  0.00  0.00    -0.314 OA
ATOM      2  O   UNL     1      36.198 -25.178 -11.997  0.00  0.00    -0.448 OA
ATOM      3  O   UNL     1      35.111 -24.842 -16.939  0.00  0.00    -0.423 OA
ATOM      4  O   UNL     1      39.596 -23.730 -15.187  0.00  0.00    -0.450 OA
ATOM      5  O   UNL     1      36.752 -27.290 -12.648  0.00  0.00    -0.248 OA
ATOM      6  O   UNL     1      35.120 -22.785 -17.956  0.00  0.00    -0.247 OA
ATOM      7  O   UNL     1      41.355 -25.123 -15.718  0.00  0.00    -0.250 OA
ATOM      8  C   UNL     1      36.073 -24.065 -14.114  0.00  0.00    +0.109 C 
ATOM      9  C   UNL     1      34.655 -24.138 -14.734  0.00  0.00    +0.110 C 
ATOM     10  C   UNL     1      36.620 -25.506 -14.283  0.00  0.00    +0.194 C 
ATOM     11  C   UNL     1      35.898 -23.908 -12.597  0.00  0.00    +0.201 C 
ATOM     12  C   UNL     1      33.731 -24.366 -13.507  0.00  0.00    +0.040 C 
ATOM     13  C   UNL     1      37.169 -23.137 -14.717  0.00  0.00    +0.157 C 
ATOM     14  C   UNL     1      37.968 -25.308 -14.949  0.00  0.00    +0.089 C 
ATOM     15  C   UNL     1      34.739 -25.351 -15.647  0.00  0.00    +0.294 C 
ATOM     16  C   UNL     1      34.425 -23.556 -12.414  0.00  0.00    +0.151 C 
ATOM     17  C   UNL     1      38.414 -23.960 -14.447  0.00  0.00    +0.199 C 
ATOM     18  C   UNL     1      34.221 -23.055 -15.710  0.00  0.00    +0.216 C 
ATOM     19  C   UNL     1      36.561 -26.113 -12.914  0.00  0.00    +0.342 C 
ATOM     20  C   UNL     1      39.262 -26.082 -14.869  0.00  0.00    +0.105 C 
ATOM     21  C   UNL     1      34.864 -23.497 -16.999  0.00  0.00    +0.346 C 
ATOM     22  C   UNL     1      40.214 -24.965 -15.311  0.00  0.00    +0.317 C 
ATOM     23  C   UNL     1      39.699 -26.639 -13.527  0.00  0.00    +0.012 C 
ENDROOT
BRANCH  12  24
ATOM     24  C   UNL     1      32.262 -23.989 -13.661  0.00  0.00    +0.003 C 
ATOM     25  C   UNL     1      31.994 -22.641 -12.971  0.00  0.00    +0.000 C 
ATOM     26  C   UNL     1      31.374 -25.070 -13.019  0.00  0.00    +0.000 C 
ATOM     27  C   UNL     1      31.907 -23.870 -15.154  0.00  0.00    +0.000 C 
ENDBRANCH  12  24
BRANCH  13  28
ATOM     28  O   UNL     1      37.261 -21.879 -14.076  0.00  0.00    -0.381 OA
ATOM     29  H   UNL     1      38.079 -21.435 -14.350  0.00  0.00    +0.210 HD
ENDBRANCH  13  28
BRANCH  16  30
ATOM     30  O   UNL     1      33.949 -23.889 -11.125  0.00  0.00    -0.381 OA
ATOM     31  H   UNL     1      34.091 -24.835 -10.962  0.00  0.00    +0.210 HD
ENDBRANCH  16  30
BRANCH  18  32
ATOM     32  O   UNL     1      34.580 -21.761 -15.310  0.00  0.00    -0.374 OA
ATOM     33  H   UNL     1      35.373 -21.804 -14.753  0.00  0.00    +0.211 HD
ENDBRANCH  18  32
TORSDOF 4
ENDMDL
MODEL 5
REMARK VINA RESULT:      -0.3      1.949      6.143
REMARK  Name = 46937025
REMARK  4 active torsions:
REMARK  status: ('A' for Active; 'I' for Inactive)
REMARK    1  A    between atoms: C_12  and  C_24
REMARK    2  A    between atoms: C_13  and  O_28
REMARK    3  A    between atoms: C_16  and  O_30
REMARK    4  A    between atoms: C_18  and  O_32
REMARK                            x       y       z     vdW  Elec       q    Type
REMARK                         _______ _______ _______ _____ _____    ______ ____
ROOT
ATOM      1  O   UNL     1      34.237 -22.956 -13.605  0.00  0.00    -0.314 OA
ATOM      2  O   UNL     1      33.768 -26.128 -14.506  0.00  0.00    -0.448 OA
ATOM      3  O   UNL     1      35.672 -21.433 -14.733  0.00  0.00    -0.423 OA
ATOM      4  O   UNL     1      31.861 -22.827 -17.554  0.00  0.00    -0.450 OA
ATOM      5  O   UNL     1      32.485 -25.124 -12.912  0.00  0.00    -0.248 OA
ATOM      6  O   UNL     1      36.697 -20.726 -16.660  0.00  0.00    -0.247 OA
ATOM      7  O   UNL     1      29.788 -21.913 -17.123  0.00  0.00    -0.250 OA
ATOM      8  C   UNL     1      34.689 -24.218 -15.619  0.00  0.00    +0.109 C 
ATOM      9  C   UNL     1      36.022 -23.752 -14.982  0.00  0.00    +0.110 C 
ATOM     10  C   UNL     1      33.619 -23.786 -14.585  0.00  0.00    +0.194 C 
ATOM     11  C   UNL     1      34.668 -25.752 -15.559  0.00  0.00    +0.201 C 
ATOM     12  C   UNL     1      36.553 -25.027 -14.272  0.00  0.00    +0.040 C 
ATOM     13  C   UNL     1      34.201 -23.638 -16.981  0.00  0.00    +0.157 C 
ATOM     14  C   UNL     1      32.608 -23.012 -15.408  0.00  0.00    +0.089 C 
ATOM     15  C   UNL     1      35.581 -22.671 -14.008  0.00  0.00    +0.294 C 
ATOM     16  C   UNL     1      36.101 -26.143 -15.213  0.00  0.00    +0.151 C 
ATOM     17  C   UNL     1      32.699 -23.650 -16.769  0.00  0.00    +0.199 C 
ATOM     18  C   UNL     1      37.024 -22.994 -15.841  0.00  0.00    +0.216 C 
ATOM     19  C   UNL     1      33.195 -25.052 -13.903  0.00  0.00    +0.342 C 
ATOM     20  C   UNL     1      31.113 -22.839 -15.277  0.00  0.00    +0.105 C 
ATOM     21  C   UNL     1      36.471 -21.594 -15.832  0.00  0.00    +0.346 C 
ATOM     22  C   UNL     1      30.807 -22.461 -16.731  0.00  0.00    +0.317 C 
ATOM     23  C   UNL     1      30.272 -24.031 -14.861  0.00  0.00    +0.012 C 
ENDROOT
BRANCH  12  24
ATOM     24  C   UNL     1      38.048 -25.090 -13.977  0.00  0.00    +0.003 C 
ATOM     25  C   UNL     1      38.790 -25.713 -15.172  0.00  0.00    +0.000 C 
ATOM     26  C   UNL     1      38.298 -25.948 -12.725  0.00  0.00    +0.000 C 
ATOM     27  C   UNL     1      38.592 -23.671 -13.731  0.00  0.00    +0.000 C 
ENDBRANCH  12  24
BRANCH  13  28
ATOM     28  O   UNL     1      34.548 -24.439 -18.095  0.00  0.00    -0.381 OA
ATOM     29  H   UNL     1      34.495 -25.376 -17.849  0.00  0.00    +0.210 HD
ENDBRANCH  13  28
BRANCH  16  30
ATOM     30  O   UNL     1      36.178 -27.415 -14.600  0.00  0.00    -0.381 OA
ATOM     31  H   UNL     1      36.531 -27.321 -13.702  0.00  0.00    +0.210 HD
ENDBRANCH  16  30
BRANCH  18  32
ATOM     32  O   UNL     1      37.187 -23.535 -17.123  0.00  0.00    -0.374 OA
ATOM     33  H   UNL     1      37.791 -22.974 -17.635  0.00  0.00    +0.211 HD
ENDBRANCH  18  32
TORSDOF 4
ENDMDL
MODEL 6
REMARK VINA RESULT:      -0.2     15.994     18.907
REMARK  Name = 46937025
REMARK  4 active torsions:
REMARK  status: ('A' for Active; 'I' for Inactive)
REMARK    1  A    between atoms: C_12  and  C_24
REMARK    2  A    between atoms: C_13  and  O_28
REMARK    3  A    between atoms: C_16  and  O_30
REMARK    4  A    between atoms: C_18  and  O_32
REMARK                            x       y       z     vdW  Elec       q    Type
REMARK                         _______ _______ _______ _____ _____    ______ ____
ROOT
ATOM      1  O   UNL     1      30.622  -9.171 -23.499  0.00  0.00    -0.314 OA
ATOM      2  O   UNL     1      32.429  -9.656 -20.744  0.00  0.00    -0.448 OA
ATOM      3  O   UNL     1      31.091  -7.524 -25.147  0.00  0.00    -0.423 OA
ATOM      4  O   UNL     1      34.633 -10.962 -24.898  0.00  0.00    -0.450 OA
ATOM      5  O   UNL     1      30.786 -11.102 -21.378  0.00  0.00    -0.248 OA
ATOM      6  O   UNL     1      32.602  -6.207 -26.265  0.00  0.00    -0.247 OA
ATOM      7  O   UNL     1      34.218 -13.030 -25.829  0.00  0.00    -0.250 OA
ATOM      8  C   UNL     1      32.839  -8.500 -22.801  0.00  0.00    +0.109 C 
ATOM      9  C   UNL     1      31.939  -7.249 -22.963  0.00  0.00    +0.110 C 
ATOM     10  C   UNL     1      31.863  -9.683 -23.023  0.00  0.00    +0.194 C 
ATOM     11  C   UNL     1      33.216  -8.600 -21.316  0.00  0.00    +0.201 C 
ATOM     12  C   UNL     1      31.558  -6.883 -21.503  0.00  0.00    +0.040 C 
ATOM     13  C   UNL     1      34.031  -8.765 -23.769  0.00  0.00    +0.157 C 
ATOM     14  C   UNL     1      32.552 -10.533 -24.073  0.00  0.00    +0.089 C 
ATOM     15  C   UNL     1      30.762  -7.773 -23.770  0.00  0.00    +0.294 C 
ATOM     16  C   UNL     1      32.822  -7.249 -20.728  0.00  0.00    +0.151 C 
ATOM     17  C   UNL     1      34.016 -10.281 -23.825  0.00  0.00    +0.199 C 
ATOM     18  C   UNL     1      32.421  -6.103 -23.840  0.00  0.00    +0.216 C 
ATOM     19  C   UNL     1      31.622 -10.257 -21.659  0.00  0.00    +0.342 C 
ATOM     20  C   UNL     1      32.560 -12.022 -24.328  0.00  0.00    +0.105 C 
ATOM     21  C   UNL     1      32.086  -6.587 -25.226  0.00  0.00    +0.346 C 
ATOM     22  C   UNL     1      33.875 -12.103 -25.113  0.00  0.00    +0.317 C 
ATOM     23  C   UNL     1      32.602 -12.966 -23.142  0.00  0.00    +0.012 C 
ENDROOT
BRANCH  12  24
ATOM     24  C   UNL     1      31.113  -5.449 -21.238  0.00  0.00    +0.003 C 
ATOM     25  C   UNL     1      32.300  -4.622 -20.716  0.00  0.00    +0.000 C 
ATOM     26  C   UNL     1      29.989  -5.436 -20.186  0.00  0.00    +0.000 C 
ATOM     27  C   UNL     1      30.590  -4.815 -22.539  0.00  0.00    +0.000 C 
ENDBRANCH  12  24
BRANCH  13  28
ATOM     28  O   UNL     1      35.275  -8.303 -23.276  0.00  0.00    -0.381 OA
ATOM     29  H   UNL     1      35.982  -8.567 -23.884  0.00  0.00    +0.210 HD
ENDBRANCH  13  28
BRANCH  16  30
ATOM     30  O   UNL     1      32.588  -7.318 -19.335  0.00  0.00    -0.381 OA
ATOM     31  H   UNL     1      33.388  -7.634 -18.887  0.00  0.00    +0.210 HD
ENDBRANCH  16  30
BRANCH  18  32
ATOM     32  O   UNL     1      33.774  -5.787 -23.658  0.00  0.00    -0.374 OA
ATOM     33  H   UNL     1      33.894  -4.828 -23.734  0.00  0.00    +0.211 HD
ENDBRANCH  18  32
TORSDOF 4
ENDMDL
MODEL 7
REMARK VINA RESULT:       0.0      1.930      5.282
REMARK  Name = 46937025
REMARK  4 active torsions:
REMARK  status: ('A' for Active; 'I' for Inactive)
REMARK    1  A    between atoms: C_12  and  C_24
REMARK    2  A    between atoms: C_13  and  O_28
REMARK    3  A    between atoms: C_16  and  O_30
REMARK    4  A    between atoms: C_18  and  O_32
REMARK                            x       y       z     vdW  Elec       q    Type
REMARK                         _______ _______ _______ _____ _____    ______ ____
ROOT
ATOM      1  O   UNL     1      35.201 -21.722 -14.872  0.00  0.00    -0.314 OA
ATOM      2  O   UNL     1      33.158 -24.083 -13.714  0.00  0.00    -0.448 OA
ATOM      3  O   UNL     1      37.455 -22.093 -15.531  0.00  0.00    -0.423 OA
ATOM      4  O   UNL     1      34.252 -24.463 -18.455  0.00  0.00    -0.450 OA
ATOM      5  O   UNL     1      32.412 -21.996 -14.244  0.00  0.00    -0.248 OA
ATOM      6  O   UNL     1      39.076 -23.487 -16.364  0.00  0.00    -0.247 OA
ATOM      7  O   UNL     1      33.080 -23.236 -20.016  0.00  0.00    -0.250 OA
ATOM      8  C   UNL     1      35.235 -24.141 -14.904  0.00  0.00    +0.109 C 
ATOM      9  C   UNL     1      36.416 -23.611 -14.053  0.00  0.00    +0.110 C 
ATOM     10  C   UNL     1      34.437 -22.860 -15.258  0.00  0.00    +0.194 C 
ATOM     11  C   UNL     1      34.304 -24.913 -13.959  0.00  0.00    +0.201 C 
ATOM     12  C   UNL     1      35.932 -23.811 -12.592  0.00  0.00    +0.040 C 
ATOM     13  C   UNL     1      35.482 -24.859 -16.265  0.00  0.00    +0.157 C 
ATOM     14  C   UNL     1      34.275 -22.935 -16.763  0.00  0.00    +0.089 C 
ATOM     15  C   UNL     1      36.503 -22.147 -14.455  0.00  0.00    +0.294 C 
ATOM     16  C   UNL     1      35.120 -25.102 -12.685  0.00  0.00    +0.151 C 
ATOM     17  C   UNL     1      34.257 -24.415 -17.043  0.00  0.00    +0.199 C 
ATOM     18  C   UNL     1      37.825 -24.094 -14.366  0.00  0.00    +0.216 C 
ATOM     19  C   UNL     1      33.218 -22.903 -14.386  0.00  0.00    +0.342 C 
ATOM     20  C   UNL     1      33.182 -22.459 -17.692  0.00  0.00    +0.105 C 
ATOM     21  C   UNL     1      38.215 -23.232 -15.538  0.00  0.00    +0.346 C 
ATOM     22  C   UNL     1      33.472 -23.395 -18.870  0.00  0.00    +0.317 C 
ATOM     23  C   UNL     1      31.737 -22.603 -17.253  0.00  0.00    +0.012 C 
ENDROOT
BRANCH  12  24
ATOM     24  C   UNL     1      37.000 -23.877 -11.506  0.00  0.00    +0.003 C 
ATOM     25  C   UNL     1      37.711 -25.240 -11.556  0.00  0.00    +0.000 C 
ATOM     26  C   UNL     1      36.351 -23.697 -10.122  0.00  0.00    +0.000 C 
ATOM     27  C   UNL     1      38.036 -22.760 -11.723  0.00  0.00    +0.000 C 
ENDBRANCH  12  24
BRANCH  13  28
ATOM     28  O   UNL     1      35.515 -26.270 -16.163  0.00  0.00    -0.381 OA
ATOM     29  H   UNL     1      35.209 -26.538 -15.283  0.00  0.00    +0.210 HD
ENDBRANCH  13  28
BRANCH  16  30
ATOM     30  O   UNL     1      34.303 -25.297 -11.547  0.00  0.00    -0.381 OA
ATOM     31  H   UNL     1      34.529 -24.640 -10.871  0.00  0.00    +0.210 HD
ENDBRANCH  16  30
BRANCH  18  32
ATOM     32  O   UNL     1      37.904 -25.470 -14.620  0.00  0.00    -0.374 OA
ATOM     33  H   UNL     1      37.768 -25.959 -13.794  0.00  0.00    +0.211 HD
ENDBRANCH  18  32
TORSDOF 4
ENDMDL
MODEL 8
REMARK VINA RESULT:       0.2     15.044     18.075
REMARK  Name = 46937025
REMARK  4 active torsions:
REMARK  status: ('A' for Active; 'I' for Inactive)
REMARK    1  A    between atoms: C_12  and  C_24
REMARK    2  A    between atoms: C_13  and  O_28
REMARK    3  A    between atoms: C_16  and  O_30
REMARK    4  A    between atoms: C_18  and  O_32
REMARK                            x       y       z     vdW  Elec       q    Type
REMARK                         _______ _______ _______ _____ _____    ______ ____
ROOT
ATOM      1  O   UNL     1      30.260  -9.624 -23.273  0.00  0.00    -0.314 OA
ATOM      2  O   UNL     1      33.252  -8.818 -24.493  0.00  0.00    -0.448 OA
ATOM      3  O   UNL     1      29.885 -10.521 -21.104  0.00  0.00    -0.423 OA
ATOM      4  O   UNL     1      31.638  -5.903 -20.926  0.00  0.00    -0.450 OA
ATOM      5  O   UNL     1      31.321  -8.262 -25.568  0.00  0.00    -0.248 OA
ATOM      6  O   UNL     1      30.507 -10.723 -18.904  0.00  0.00    -0.247 OA
ATOM      7  O   UNL     1      30.199  -4.167 -21.411  0.00  0.00    -0.250 OA
ATOM      8  C   UNL     1      32.436  -9.250 -22.283  0.00  0.00    +0.109 C 
ATOM      9  C   UNL     1      32.019 -10.729 -22.089  0.00  0.00    +0.110 C 
ATOM     10  C   UNL     1      31.312  -8.668 -23.179  0.00  0.00    +0.194 C 
ATOM     11  C   UNL     1      33.676  -9.242 -23.188  0.00  0.00    +0.201 C 
ATOM     12  C   UNL     1      32.835 -11.484 -23.173  0.00  0.00    +0.040 C 
ATOM     13  C   UNL     1      32.539  -8.276 -21.071  0.00  0.00    +0.157 C 
ATOM     14  C   UNL     1      30.863  -7.423 -22.439  0.00  0.00    +0.089 C 
ATOM     15  C   UNL     1      30.526 -10.708 -22.377  0.00  0.00    +0.294 C 
ATOM     16  C   UNL     1      34.142 -10.694 -23.214  0.00  0.00    +0.151 C 
ATOM     17  C   UNL     1      32.108  -6.974 -21.719  0.00  0.00    +0.199 C 
ATOM     18  C   UNL     1      32.048 -11.325 -20.689  0.00  0.00    +0.216 C 
ATOM     19  C   UNL     1      31.923  -8.532 -24.541  0.00  0.00    +0.342 C 
ATOM     20  C   UNL     1      30.322  -6.097 -22.920  0.00  0.00    +0.105 C 
ATOM     21  C   UNL     1      30.756 -10.829 -20.094  0.00  0.00    +0.346 C 
ATOM     22  C   UNL     1      30.680  -5.254 -21.691  0.00  0.00    +0.317 C 
ATOM     23  C   UNL     1      30.915  -5.475 -24.170  0.00  0.00    +0.012 C 
ENDROOT
BRANCH  12  24
ATOM     24  C   UNL     1      33.067 -12.975 -22.958  0.00  0.00    +0.003 C 
ATOM     25  C   UNL     1      34.447 -13.201 -22.316  0.00  0.00    +0.000 C 
ATOM     26  C   UNL     1      33.013 -13.713 -24.307  0.00  0.00    +0.000 C 
ATOM     27  C   UNL     1      31.980 -13.545 -22.029  0.00  0.00    +0.000 C 
ENDBRANCH  12  24
BRANCH  13  28
ATOM     28  O   UNL     1      33.849  -8.157 -20.550  0.00  0.00    -0.381 OA
ATOM     29  H   UNL     1      33.844  -7.544 -19.799  0.00  0.00    +0.210 HD
ENDBRANCH  13  28
BRANCH  16  30
ATOM     30  O   UNL     1      34.905 -10.993 -24.367  0.00  0.00    -0.381 OA
ATOM     31  H   UNL     1      34.351 -10.888 -25.157  0.00  0.00    +0.210 HD
ENDBRANCH  16  30
BRANCH  18  32
ATOM     32  O   UNL     1      33.187 -10.973 -19.952  0.00  0.00    -0.374 OA
ATOM     33  H   UNL     1      33.193 -11.463 -19.116  0.00  0.00    +0.211 HD
ENDBRANCH  18  32
TORSDOF 4
ENDMDL
MODEL 9
REMARK VINA RESULT:       0.3      8.471     10.679
REMARK  Name = 46937025
REMARK  4 active torsions:
REMARK  status: ('A' for Active; 'I' for Inactive)
REMARK    1  A    between atoms: C_12  and  C_24
REMARK    2  A    between atoms: C_13  and  O_28
REMARK    3  A    between atoms: C_16  and  O_30
REMARK    4  A    between atoms: C_18  and  O_32
REMARK                            x       y       z     vdW  Elec       q    Type
REMARK                         _______ _______ _______ _____ _____    ______ ____
ROOT
ATOM      1  O   UNL     1      36.185 -17.047 -21.062  0.00  0.00    -0.314 OA
ATOM      2  O   UNL     1      35.500 -18.792 -23.815  0.00  0.00    -0.448 OA
ATOM      3  O   UNL     1      34.566 -15.890 -19.761  0.00  0.00    -0.423 OA
ATOM      4  O   UNL     1      33.871 -20.783 -19.667  0.00  0.00    -0.450 OA
ATOM      5  O   UNL     1      37.551 -18.858 -22.823  0.00  0.00    -0.248 OA
ATOM      6  O   UNL     1      32.412 -15.682 -18.999  0.00  0.00    -0.247 OA
ATOM      7  O   UNL     1      35.279 -22.063 -18.365  0.00  0.00    -0.250 OA
ATOM      8  C   UNL     1      34.155 -17.946 -22.023  0.00  0.00    +0.109 C 
ATOM      9  C   UNL     1      34.090 -16.399 -22.015  0.00  0.00    +0.110 C 
ATOM     10  C   UNL     1      35.592 -18.254 -21.531  0.00  0.00    +0.194 C 
ATOM     11  C   UNL     1      34.159 -18.394 -23.491  0.00  0.00    +0.201 C 
ATOM     12  C   UNL     1      34.409 -16.012 -23.485  0.00  0.00    +0.040 C 
ATOM     13  C   UNL     1      33.218 -18.796 -21.112  0.00  0.00    +0.157 C 
ATOM     14  C   UNL     1      35.386 -19.245 -20.401  0.00  0.00    +0.089 C 
ATOM     15  C   UNL     1      35.197 -16.011 -21.047  0.00  0.00    +0.294 C 
ATOM     16  C   UNL     1      33.759 -17.148 -24.274  0.00  0.00    +0.151 C 
ATOM     17  C   UNL     1      34.125 -19.970 -20.794  0.00  0.00    +0.199 C 
ATOM     18  C   UNL     1      32.886 -15.714 -21.386  0.00  0.00    +0.216 C 
ATOM     19  C   UNL     1      36.344 -18.683 -22.754  0.00  0.00    +0.342 C 
ATOM     20  C   UNL     1      36.226 -20.395 -19.894  0.00  0.00    +0.105 C 
ATOM     21  C   UNL     1      33.213 -15.759 -19.917  0.00  0.00    +0.346 C 
ATOM     22  C   UNL     1      35.113 -21.192 -19.204  0.00  0.00    +0.317 C 
ATOM     23  C   UNL     1      36.948 -21.271 -20.900  0.00  0.00    +0.012 C 
ENDROOT
BRANCH  12  24
ATOM     24  C   UNL     1      33.947 -14.640 -23.961  0.00  0.00    +0.003 C 
ATOM     25  C   UNL     1      34.432 -13.557 -22.982  0.00  0.00    +0.000 C 
ATOM     26  C   UNL     1      32.410 -14.602 -24.034  0.00  0.00    +0.000 C 
ATOM     27  C   UNL     1      34.523 -14.350 -25.358  0.00  0.00    +0.000 C 
ENDBRANCH  12  24
BRANCH  13  28
ATOM     28  O   UNL     1      32.045 -19.242 -21.765  0.00  0.00    -0.381 OA
ATOM     29  H   UNL     1      32.280 -19.630 -22.622  0.00  0.00    +0.210 HD
ENDBRANCH  13  28
BRANCH  16  30
ATOM     30  O   UNL     1      34.210 -17.187 -25.614  0.00  0.00    -0.381 OA
ATOM     31  H   UNL     1      35.096 -17.579 -25.645  0.00  0.00    +0.210 HD
ENDBRANCH  16  30
BRANCH  18  32
ATOM     32  O   UNL     1      31.663 -16.313 -21.716  0.00  0.00    -0.374 OA
ATOM     33  H   UNL     1      31.826 -17.193 -22.090  0.00  0.00    +0.211 HD
ENDBRANCH  18  32
TORSDOF 4
ENDMDL
