MODEL 1
REMARK VINA RESULT:     -10.4      0.000      0.000
REMARK  Name = 44629555
REMARK  6 active torsions:
REMARK  status: ('A' for Active; 'I' for Inactive)
REMARK    1  A    between atoms: C_4  and  N_18
REMARK    2  A    between atoms: C_6  and  C_12
REMARK    3  A    between atoms: C_8  and  S_27
REMARK    4  A    between atoms: N_18  and  C_20
REMARK    5  A    between atoms: C_20  and  C_22
REMARK    6  A    between atoms: S_27  and  C_29
REMARK                            x       y       z     vdW  Elec       q    Type
REMARK                         _______ _______ _______ _____ _____    ______ ____
ROOT
ATOM      1  N   UNL     1      35.496 -22.852 -16.241  0.00  0.00    -0.152 N 
ATOM      2  N   UNL     1      33.559 -23.417 -14.927  0.00  0.00    -0.388 NA
ATOM      3  N   UNL     1      36.847 -22.737 -16.103  0.00  0.00    -0.173 NA
ATOM      4  C   UNL     1      34.729 -22.629 -17.396  0.00  0.00    +0.126 C 
ATOM      5  C   UNL     1      34.902 -23.235 -15.038  0.00  0.00    +0.200 C 
ATOM      6  C   UNL     1      32.847 -23.225 -16.001  0.00  0.00    +0.136 C 
ATOM      7  C   UNL     1      33.398 -22.799 -17.327  0.00  0.00    +0.064 C 
ATOM      8  C   UNL     1      35.920 -23.360 -14.120  0.00  0.00    +0.173 C 
ATOM      9  C   UNL     1      37.084 -23.044 -14.829  0.00  0.00    +0.112 C 
ENDROOT
BRANCH   6  12
ATOM     10 CL   UNL     1      31.804 -25.426 -14.167  0.00  0.00    -0.081 Cl
ATOM     11 CL   UNL     1      28.606 -25.719 -14.119  0.00  0.00    -0.081 Cl
ATOM     12  C   UNL     1      31.375 -23.417 -15.929  0.00  0.00    +0.041 C 
ATOM     13  C   UNL     1      30.789 -24.394 -15.123  0.00  0.00    +0.071 C 
ATOM     14  C   UNL     1      30.573 -22.578 -16.703  0.00  0.00    +0.003 C 
ATOM     15  C   UNL     1      29.401 -24.532 -15.093  0.00  0.00    +0.068 C 
ATOM     16  C   UNL     1      29.186 -22.717 -16.673  0.00  0.00    +0.001 C 
ATOM     17  C   UNL     1      28.600 -23.693 -15.868  0.00  0.00    +0.012 C 
ENDBRANCH   6  12
BRANCH   4  18
ATOM     18  N   UNL     1      35.390 -22.242 -18.527  0.00  0.00    -0.316 N 
ATOM     19  H   UNL     1      36.353 -22.048 -18.463  0.00  0.00    +0.148 HD
BRANCH  18  20
ATOM     20  C   UNL     1      34.749 -22.102 -19.808  0.00  0.00    +0.115 C 
BRANCH  20  22
ATOM     21  N   UNL     1      35.267 -18.113 -21.326  0.00  0.00    -0.242 NA
ATOM     22  C   UNL     1      34.931 -20.707 -20.338  0.00  0.00    +0.000 C 
ATOM     23  C   UNL     1      36.208 -20.179 -20.494  0.00  0.00    +0.018 C 
ATOM     24  C   UNL     1      33.822 -19.939 -20.675  0.00  0.00    +0.018 C 
ATOM     25  C   UNL     1      36.321 -18.889 -20.987  0.00  0.00    +0.099 C 
ATOM     26  C   UNL     1      34.042 -18.660 -21.161  0.00  0.00    +0.099 C 
ENDBRANCH  20  22
ENDBRANCH  18  20
ENDBRANCH   4  18
BRANCH   8  27
ATOM     27  S   UNL     1      35.816 -23.814 -12.448  0.00  0.00    -0.022 S 
BRANCH  27  29
ATOM     28  N   UNL     1      38.329 -22.767 -11.575  0.00  0.00    -0.184 NA
ATOM     29  C   UNL     1      37.302 -23.178 -11.924  0.00  0.00    +0.134 C 
ENDBRANCH  27  29
ENDBRANCH   8  27
TORSDOF 6
ENDMDL
MODEL 2
REMARK VINA RESULT:     -10.4      3.341      6.365
REMARK  Name = 44629555
REMARK  6 active torsions:
REMARK  status: ('A' for Active; 'I' for Inactive)
REMARK    1  A    between atoms: C_4  and  N_18
REMARK    2  A    between atoms: C_6  and  C_12
REMARK    3  A    between atoms: C_8  and  S_27
REMARK    4  A    between atoms: N_18  and  C_20
REMARK    5  A    between atoms: C_20  and  C_22
REMARK    6  A    between atoms: S_27  and  C_29
REMARK                            x       y       z     vdW  Elec       q    Type
REMARK                         _______ _______ _______ _____ _____    ______ ____
ROOT
ATOM      1  N   UNL     1      34.379 -24.064 -13.402  0.00  0.00    -0.152 N 
ATOM      2  N   UNL     1      35.759 -23.561 -15.310  0.00  0.00    -0.388 NA
ATOM      3  N   UNL     1      34.497 -24.551 -12.133  0.00  0.00    -0.173 NA
ATOM      4  C   UNL     1      33.208 -23.653 -14.058  0.00  0.00    +0.126 C 
ATOM      5  C   UNL     1      35.622 -24.013 -14.035  0.00  0.00    +0.200 C 
ATOM      6  C   UNL     1      34.675 -23.165 -15.915  0.00  0.00    +0.136 C 
ATOM      7  C   UNL     1      33.302 -23.199 -15.318  0.00  0.00    +0.064 C 
ATOM      8  C   UNL     1      36.543 -24.487 -13.129  0.00  0.00    +0.173 C 
ATOM      9  C   UNL     1      35.798 -24.799 -11.987  0.00  0.00    +0.112 C 
ENDROOT
BRANCH   6  12
ATOM     10 CL   UNL     1      37.170 -21.573 -16.652  0.00  0.00    -0.081 Cl
ATOM     11 CL   UNL     1      37.245 -20.542 -19.693  0.00  0.00    -0.081 Cl
ATOM     12  C   UNL     1      34.778 -22.657 -17.308  0.00  0.00    +0.041 C 
ATOM     13  C   UNL     1      35.874 -21.917 -17.754  0.00  0.00    +0.071 C 
ATOM     14  C   UNL     1      33.728 -22.943 -18.181  0.00  0.00    +0.003 C 
ATOM     15  C   UNL     1      35.919 -21.463 -19.072  0.00  0.00    +0.068 C 
ATOM     16  C   UNL     1      33.774 -22.489 -19.499  0.00  0.00    +0.001 C 
ATOM     17  C   UNL     1      34.869 -21.750 -19.944  0.00  0.00    +0.012 C 
ENDBRANCH   6  12
BRANCH   4  18
ATOM     18  N   UNL     1      32.032 -23.751 -13.369  0.00  0.00    -0.316 N 
ATOM     19  H   UNL     1      31.873 -23.126 -12.624  0.00  0.00    +0.148 HD
BRANCH  18  20
ATOM     20  C   UNL     1      31.014 -24.720 -13.677  0.00  0.00    +0.115 C 
BRANCH  20  22
ATOM     21  N   UNL     1      28.239 -23.128 -16.550  0.00  0.00    -0.242 NA
ATOM     22  C   UNL     1      30.043 -24.163 -14.681  0.00  0.00    +0.000 C 
ATOM     23  C   UNL     1      29.727 -22.809 -14.671  0.00  0.00    +0.018 C 
ATOM     24  C   UNL     1      29.458 -25.001 -15.624  0.00  0.00    +0.018 C 
ATOM     25  C   UNL     1      28.827 -22.346 -15.618  0.00  0.00    +0.099 C 
ATOM     26  C   UNL     1      28.571 -24.439 -16.528  0.00  0.00    +0.099 C 
ENDBRANCH  20  22
ENDBRANCH  18  20
ENDBRANCH   4  18
BRANCH   8  27
ATOM     27  S   UNL     1      38.258 -24.665 -13.328  0.00  0.00    -0.022 S 
BRANCH  27  29
ATOM     28  N   UNL     1      38.281 -27.071 -14.873  0.00  0.00    -0.184 NA
ATOM     29  C   UNL     1      38.255 -26.094 -14.247  0.00  0.00    +0.134 C 
ENDBRANCH  27  29
ENDBRANCH   8  27
TORSDOF 6
ENDMDL
MODEL 3
REMARK VINA RESULT:     -10.2      2.851      6.213
REMARK  Name = 44629555
REMARK  6 active torsions:
REMARK  status: ('A' for Active; 'I' for Inactive)
REMARK    1  A    between atoms: C_4  and  N_18
REMARK    2  A    between atoms: C_6  and  C_12
REMARK    3  A    between atoms: C_8  and  S_27
REMARK    4  A    between atoms: N_18  and  C_20
REMARK    5  A    between atoms: C_20  and  C_22
REMARK    6  A    between atoms: S_27  and  C_29
REMARK                            x       y       z     vdW  Elec       q    Type
REMARK                         _______ _______ _______ _____ _____    ______ ____
ROOT
ATOM      1  N   UNL     1      34.613 -24.206 -13.211  0.00  0.00    -0.152 N 
ATOM      2  N   UNL     1      36.135 -23.490 -14.934  0.00  0.00    -0.388 NA
ATOM      3  N   UNL     1      34.640 -24.769 -11.969  0.00  0.00    -0.173 NA
ATOM      4  C   UNL     1      33.486 -23.825 -13.956  0.00  0.00    +0.126 C 
ATOM      5  C   UNL     1      35.905 -24.035 -13.710  0.00  0.00    +0.200 C 
ATOM      6  C   UNL     1      35.091 -23.123 -15.621  0.00  0.00    +0.136 C 
ATOM      7  C   UNL     1      33.671 -23.282 -15.170  0.00  0.00    +0.064 C 
ATOM      8  C   UNL     1      36.764 -24.511 -12.745  0.00  0.00    +0.173 C 
ATOM      9  C   UNL     1      35.934 -24.944 -11.706  0.00  0.00    +0.112 C 
ENDROOT
BRANCH   6  12
ATOM     10 CL   UNL     1      32.663 -22.924 -17.456  0.00  0.00    -0.081 Cl
ATOM     11 CL   UNL     1      33.259 -21.593 -20.318  0.00  0.00    -0.081 Cl
ATOM     12  C   UNL     1      35.293 -22.516 -16.963  0.00  0.00    +0.041 C 
ATOM     13  C   UNL     1      34.253 -22.375 -17.883  0.00  0.00    +0.071 C 
ATOM     14  C   UNL     1      36.578 -22.080 -17.290  0.00  0.00    +0.003 C 
ATOM     15  C   UNL     1      34.499 -21.799 -19.129  0.00  0.00    +0.068 C 
ATOM     16  C   UNL     1      36.822 -21.504 -18.536  0.00  0.00    +0.001 C 
ATOM     17  C   UNL     1      35.783 -21.363 -19.455  0.00  0.00    +0.012 C 
ENDBRANCH   6  12
BRANCH   4  18
ATOM     18  N   UNL     1      32.258 -24.042 -13.397  0.00  0.00    -0.316 N 
ATOM     19  H   UNL     1      32.007 -23.519 -12.602  0.00  0.00    +0.148 HD
BRANCH  18  20
ATOM     20  C   UNL     1      31.313 -24.997 -13.913  0.00  0.00    +0.115 C 
BRANCH  20  22
ATOM     21  N   UNL     1      28.362 -23.034 -16.347  0.00  0.00    -0.242 NA
ATOM     22  C   UNL     1      30.282 -24.311 -14.765  0.00  0.00    +0.000 C 
ATOM     23  C   UNL     1      29.577 -25.029 -15.724  0.00  0.00    +0.018 C 
ATOM     24  C   UNL     1      30.028 -22.954 -14.595  0.00  0.00    +0.018 C 
ATOM     25  C   UNL     1      28.637 -24.350 -16.483  0.00  0.00    +0.099 C 
ATOM     26  C   UNL     1      29.067 -22.368 -15.404  0.00  0.00    +0.099 C 
ENDBRANCH  20  22
ENDBRANCH  18  20
ENDBRANCH   4  18
BRANCH   8  27
ATOM     27  S   UNL     1      38.499 -24.568 -12.779  0.00  0.00    -0.022 S 
BRANCH  27  29
ATOM     28  N   UNL     1      38.814 -26.682 -14.677  0.00  0.00    -0.184 NA
ATOM     29  C   UNL     1      38.684 -25.836 -13.895  0.00  0.00    +0.134 C 
ENDBRANCH  27  29
ENDBRANCH   8  27
TORSDOF 6
ENDMDL
MODEL 4
REMARK VINA RESULT:     -10.2      1.288      1.851
REMARK  Name = 44629555
REMARK  6 active torsions:
REMARK  status: ('A' for Active; 'I' for Inactive)
REMARK    1  A    between atoms: C_4  and  N_18
REMARK    2  A    between atoms: C_6  and  C_12
REMARK    3  A    between atoms: C_8  and  S_27
REMARK    4  A    between atoms: N_18  and  C_20
REMARK    5  A    between atoms: C_20  and  C_22
REMARK    6  A    between atoms: S_27  and  C_29
REMARK                            x       y       z     vdW  Elec       q    Type
REMARK                         _______ _______ _______ _____ _____    ______ ____
ROOT
ATOM      1  N   UNL     1      35.583 -23.248 -16.065  0.00  0.00    -0.152 N 
ATOM      2  N   UNL     1      33.896 -24.144 -14.599  0.00  0.00    -0.388 NA
ATOM      3  N   UNL     1      36.935 -23.075 -16.111  0.00  0.00    -0.173 NA
ATOM      4  C   UNL     1      34.638 -22.881 -17.036  0.00  0.00    +0.126 C 
ATOM      5  C   UNL     1      35.198 -23.865 -14.874  0.00  0.00    +0.200 C 
ATOM      6  C   UNL     1      33.019 -23.818 -15.505  0.00  0.00    +0.136 C 
ATOM      7  C   UNL     1      33.341 -23.141 -16.802  0.00  0.00    +0.064 C 
ATOM      8  C   UNL     1      36.351 -24.081 -14.154  0.00  0.00    +0.173 C 
ATOM      9  C   UNL     1      37.378 -23.578 -14.960  0.00  0.00    +0.112 C 
ENDROOT
BRANCH   6  12
ATOM     10 CL   UNL     1      30.961 -22.358 -17.219  0.00  0.00    -0.081 Cl
ATOM     11 CL   UNL     1      27.907 -23.092 -16.550  0.00  0.00    -0.081 Cl
ATOM     12  C   UNL     1      31.584 -24.109 -15.251  0.00  0.00    +0.041 C 
ATOM     13  C   UNL     1      30.559 -23.499 -15.975  0.00  0.00    +0.071 C 
ATOM     14  C   UNL     1      31.277 -25.029 -14.247  0.00  0.00    +0.003 C 
ATOM     15  C   UNL     1      29.228 -23.809 -15.694  0.00  0.00    +0.068 C 
ATOM     16  C   UNL     1      29.947 -25.338 -13.968  0.00  0.00    +0.001 C 
ATOM     17  C   UNL     1      28.922 -24.728 -14.691  0.00  0.00    +0.012 C 
ENDBRANCH   6  12
BRANCH   4  18
ATOM     18  N   UNL     1      35.100 -22.268 -18.167  0.00  0.00    -0.316 N 
ATOM     19  H   UNL     1      36.008 -21.889 -18.155  0.00  0.00    +0.148 HD
BRANCH  18  20
ATOM     20  C   UNL     1      34.325 -22.148 -19.373  0.00  0.00    +0.115 C 
BRANCH  20  22
ATOM     21  N   UNL     1      35.252 -18.471 -21.398  0.00  0.00    -0.242 NA
ATOM     22  C   UNL     1      34.649 -20.863 -20.082  0.00  0.00    +0.000 C 
ATOM     23  C   UNL     1      33.627 -20.066 -20.585  0.00  0.00    +0.018 C 
ATOM     24  C   UNL     1      35.972 -20.465 -20.236  0.00  0.00    +0.018 C 
ATOM     25  C   UNL     1      33.978 -18.890 -21.229  0.00  0.00    +0.099 C 
ATOM     26  C   UNL     1      36.218 -19.272 -20.895  0.00  0.00    +0.099 C 
ENDBRANCH  20  22
ENDBRANCH  18  20
ENDBRANCH   4  18
BRANCH   8  27
ATOM     27  S   UNL     1      36.525 -24.815 -12.591  0.00  0.00    -0.022 S 
BRANCH  27  29
ATOM     28  N   UNL     1      38.664 -23.199 -11.599  0.00  0.00    -0.184 NA
ATOM     29  C   UNL     1      37.786 -23.843 -11.997  0.00  0.00    +0.134 C 
ENDBRANCH  27  29
ENDBRANCH   8  27
TORSDOF 6
ENDMDL
MODEL 5
REMARK VINA RESULT:      -9.8      2.634      6.031
REMARK  Name = 44629555
REMARK  6 active torsions:
REMARK  status: ('A' for Active; 'I' for Inactive)
REMARK    1  A    between atoms: C_4  and  N_18
REMARK    2  A    between atoms: C_6  and  C_12
REMARK    3  A    between atoms: C_8  and  S_27
REMARK    4  A    between atoms: N_18  and  C_20
REMARK    5  A    between atoms: C_20  and  C_22
REMARK    6  A    between atoms: S_27  and  C_29
REMARK                            x       y       z     vdW  Elec       q    Type
REMARK                         _______ _______ _______ _____ _____    ______ ____
ROOT
ATOM      1  N   UNL     1      35.612 -22.782 -15.448  0.00  0.00    -0.152 N 
ATOM      2  N   UNL     1      33.493 -23.203 -16.511  0.00  0.00    -0.388 NA
ATOM      3  N   UNL     1      36.862 -22.337 -15.761  0.00  0.00    -0.173 NA
ATOM      4  C   UNL     1      35.138 -23.193 -14.192  0.00  0.00    +0.126 C 
ATOM      5  C   UNL     1      34.789 -22.797 -16.574  0.00  0.00    +0.200 C 
ATOM      6  C   UNL     1      33.047 -23.571 -15.344  0.00  0.00    +0.136 C 
ATOM      7  C   UNL     1      33.862 -23.601 -14.088  0.00  0.00    +0.064 C 
ATOM      8  C   UNL     1      35.556 -22.347 -17.626  0.00  0.00    +0.173 C 
ATOM      9  C   UNL     1      36.811 -22.081 -17.068  0.00  0.00    +0.112 C 
ENDROOT
BRANCH   6  12
ATOM     10 CL   UNL     1      31.017 -22.340 -17.258  0.00  0.00    -0.081 Cl
ATOM     11 CL   UNL     1      28.010 -23.403 -16.878  0.00  0.00    -0.081 Cl
ATOM     12  C   UNL     1      31.634 -24.018 -15.225  0.00  0.00    +0.041 C 
ATOM     13  C   UNL     1      30.623 -23.521 -16.049  0.00  0.00    +0.071 C 
ATOM     14  C   UNL     1      31.335 -24.968 -14.248  0.00  0.00    +0.003 C 
ATOM     15  C   UNL     1      29.313 -23.974 -15.894  0.00  0.00    +0.068 C 
ATOM     16  C   UNL     1      30.025 -25.420 -14.094  0.00  0.00    +0.001 C 
ATOM     17  C   UNL     1      29.014 -24.924 -14.917  0.00  0.00    +0.012 C 
ENDBRANCH   6  12
BRANCH   4  18
ATOM     18  N   UNL     1      36.015 -23.161 -13.144  0.00  0.00    -0.316 N 
ATOM     19  H   UNL     1      36.391 -22.291 -12.876  0.00  0.00    +0.148 HD
BRANCH  18  20
ATOM     20  C   UNL     1      36.417 -24.334 -12.415  0.00  0.00    +0.115 C 
BRANCH  20  22
ATOM     21  N   UNL     1      39.228 -26.644 -14.705  0.00  0.00    -0.242 NA
ATOM     22  C   UNL     1      37.400 -25.141 -13.216  0.00  0.00    +0.000 C 
ATOM     23  C   UNL     1      38.763 -24.882 -13.116  0.00  0.00    +0.018 C 
ATOM     24  C   UNL     1      36.951 -26.151 -14.060  0.00  0.00    +0.018 C 
ATOM     25  C   UNL     1      39.628 -25.655 -13.875  0.00  0.00    +0.099 C 
ATOM     26  C   UNL     1      37.897 -26.867 -14.776  0.00  0.00    +0.099 C 
ENDBRANCH  20  22
ENDBRANCH  18  20
ENDBRANCH   4  18
BRANCH   8  27
ATOM     27  S   UNL     1      35.094 -22.140 -19.286  0.00  0.00    -0.022 S 
BRANCH  27  29
ATOM     28  N   UNL     1      36.772 -19.913 -19.921  0.00  0.00    -0.184 NA
ATOM     29  C   UNL     1      36.104 -20.826 -19.663  0.00  0.00    +0.134 C 
ENDBRANCH  27  29
ENDBRANCH   8  27
TORSDOF 6
ENDMDL
MODEL 6
REMARK VINA RESULT:      -9.8      8.043     12.372
REMARK  Name = 44629555
REMARK  6 active torsions:
REMARK  status: ('A' for Active; 'I' for Inactive)
REMARK    1  A    between atoms: C_4  and  N_18
REMARK    2  A    between atoms: C_6  and  C_12
REMARK    3  A    between atoms: C_8  and  S_27
REMARK    4  A    between atoms: N_18  and  C_20
REMARK    5  A    between atoms: C_20  and  C_22
REMARK    6  A    between atoms: S_27  and  C_29
REMARK                            x       y       z     vdW  Elec       q    Type
REMARK                         _______ _______ _______ _____ _____    ______ ____
ROOT
ATOM      1  N   UNL     1      33.436 -15.262 -23.588  0.00  0.00    -0.152 N 
ATOM      2  N   UNL     1      32.680 -12.977 -23.514  0.00  0.00    -0.388 NA
ATOM      3  N   UNL     1      33.811 -16.203 -24.501  0.00  0.00    -0.173 NA
ATOM      4  C   UNL     1      33.377 -15.396 -22.192  0.00  0.00    +0.126 C 
ATOM      5  C   UNL     1      33.087 -14.066 -24.218  0.00  0.00    +0.200 C 
ATOM      6  C   UNL     1      32.638 -13.095 -22.218  0.00  0.00    +0.136 C 
ATOM      7  C   UNL     1      32.980 -14.341 -21.461  0.00  0.00    +0.064 C 
ATOM      8  C   UNL     1      33.249 -14.273 -25.570  0.00  0.00    +0.173 C 
ATOM      9  C   UNL     1      33.693 -15.595 -25.680  0.00  0.00    +0.112 C 
ENDROOT
BRANCH   6  12
ATOM     10 CL   UNL     1      32.776 -10.343 -23.524  0.00  0.00    -0.081 Cl
ATOM     11 CL   UNL     1      31.807  -7.924 -21.646  0.00  0.00    -0.081 Cl
ATOM     12  C   UNL     1      32.204 -11.928 -21.406  0.00  0.00    +0.041 C 
ATOM     13  C   UNL     1      32.225 -10.624 -21.902  0.00  0.00    +0.071 C 
ATOM     14  C   UNL     1      31.764 -12.171 -20.104  0.00  0.00    +0.003 C 
ATOM     15  C   UNL     1      31.807  -9.564 -21.097  0.00  0.00    +0.068 C 
ATOM     16  C   UNL     1      31.346 -11.112 -19.300  0.00  0.00    +0.001 C 
ATOM     17  C   UNL     1      31.367  -9.809 -19.796  0.00  0.00    +0.012 C 
ENDBRANCH   6  12
BRANCH   4  18
ATOM     18  N   UNL     1      33.722 -16.606 -21.659  0.00  0.00    -0.316 N 
ATOM     19  H   UNL     1      33.013 -17.162 -21.263  0.00  0.00    +0.148 HD
BRANCH  18  20
ATOM     20  C   UNL     1      35.071 -17.108 -21.648  0.00  0.00    +0.115 C 
BRANCH  20  22
ATOM     21  N   UNL     1      35.174 -21.108 -20.074  0.00  0.00    -0.242 NA
ATOM     22  C   UNL     1      35.107 -18.507 -21.098  0.00  0.00    +0.000 C 
ATOM     23  C   UNL     1      36.324 -19.107 -20.794  0.00  0.00    +0.018 C 
ATOM     24  C   UNL     1      33.923 -19.206 -20.891  0.00  0.00    +0.018 C 
ATOM     25  C   UNL     1      36.303 -20.398 -20.289  0.00  0.00    +0.099 C 
ATOM     26  C   UNL     1      34.010 -20.492 -20.382  0.00  0.00    +0.099 C 
ENDBRANCH  20  22
ENDBRANCH  18  20
ENDBRANCH   4  18
BRANCH   8  27
ATOM     27  S   UNL     1      32.975 -13.159 -26.872  0.00  0.00    -0.022 S 
BRANCH  27  29
ATOM     28  N   UNL     1      34.855 -11.154 -26.084  0.00  0.00    -0.184 NA
ATOM     29  C   UNL     1      34.098 -11.967 -26.420  0.00  0.00    +0.134 C 
ENDBRANCH  27  29
ENDBRANCH   8  27
TORSDOF 6
ENDMDL
MODEL 7
REMARK VINA RESULT:      -9.7      3.310      7.333
REMARK  Name = 44629555
REMARK  6 active torsions:
REMARK  status: ('A' for Active; 'I' for Inactive)
REMARK    1  A    between atoms: C_4  and  N_18
REMARK    2  A    between atoms: C_6  and  C_12
REMARK    3  A    between atoms: C_8  and  S_27
REMARK    4  A    between atoms: N_18  and  C_20
REMARK    5  A    between atoms: C_20  and  C_22
REMARK    6  A    between atoms: S_27  and  C_29
REMARK                            x       y       z     vdW  Elec       q    Type
REMARK                         _______ _______ _______ _____ _____    ______ ____
ROOT
ATOM      1  N   UNL     1      32.342 -24.080 -14.925  0.00  0.00    -0.152 N 
ATOM      2  N   UNL     1      31.913 -22.598 -16.774  0.00  0.00    -0.388 NA
ATOM      3  N   UNL     1      31.683 -24.655 -13.879  0.00  0.00    -0.173 NA
ATOM      4  C   UNL     1      33.696 -24.222 -15.267  0.00  0.00    +0.126 C 
ATOM      5  C   UNL     1      31.484 -23.276 -15.676  0.00  0.00    +0.200 C 
ATOM      6  C   UNL     1      33.165 -22.740 -17.101  0.00  0.00    +0.136 C 
ATOM      7  C   UNL     1      34.159 -23.568 -16.346  0.00  0.00    +0.064 C 
ATOM      8  C   UNL     1      30.248 -23.352 -15.074  0.00  0.00    +0.173 C 
ATOM      9  C   UNL     1      30.432 -24.209 -13.983  0.00  0.00    +0.112 C 
ENDROOT
BRANCH   6  12
ATOM     10 CL   UNL     1      36.186 -22.399 -17.351  0.00  0.00    -0.081 Cl
ATOM     11 CL   UNL     1      37.139 -20.829 -19.985  0.00  0.00    -0.081 Cl
ATOM     12  C   UNL     1      33.678 -22.022 -18.297  0.00  0.00    +0.041 C 
ATOM     13  C   UNL     1      35.041 -21.809 -18.513  0.00  0.00    +0.071 C 
ATOM     14  C   UNL     1      32.744 -21.554 -19.223  0.00  0.00    +0.003 C 
ATOM     15  C   UNL     1      35.468 -21.128 -19.653  0.00  0.00    +0.068 C 
ATOM     16  C   UNL     1      33.172 -20.873 -20.361  0.00  0.00    +0.001 C 
ATOM     17  C   UNL     1      34.533 -20.661 -20.577  0.00  0.00    +0.012 C 
ENDBRANCH   6  12
BRANCH   4  18
ATOM     18  N   UNL     1      34.469 -25.016 -14.469  0.00  0.00    -0.316 N 
ATOM     19  H   UNL     1      34.045 -25.459 -13.699  0.00  0.00    +0.148 HD
BRANCH  18  20
ATOM     20  C   UNL     1      35.873 -25.238 -14.697  0.00  0.00    +0.115 C 
BRANCH  20  22
ATOM     21  N   UNL     1      38.214 -23.357 -11.620  0.00  0.00    -0.242 NA
ATOM     22  C   UNL     1      36.691 -24.581 -13.620  0.00  0.00    +0.000 C 
ATOM     23  C   UNL     1      37.993 -25.004 -13.376  0.00  0.00    +0.018 C 
ATOM     24  C   UNL     1      36.150 -23.547 -12.865  0.00  0.00    +0.018 C 
ATOM     25  C   UNL     1      38.706 -24.366 -12.374  0.00  0.00    +0.099 C 
ATOM     26  C   UNL     1      36.945 -22.973 -11.886  0.00  0.00    +0.099 C 
ENDBRANCH  20  22
ENDBRANCH  18  20
ENDBRANCH   4  18
BRANCH   8  27
ATOM     27  S   UNL     1      28.769 -22.574 -15.543  0.00  0.00    -0.022 S 
BRANCH  27  29
ATOM     28  N   UNL     1      27.906 -24.501 -17.471  0.00  0.00    -0.184 NA
ATOM     29  C   UNL     1      28.247 -23.708 -16.696  0.00  0.00    +0.134 C 
ENDBRANCH  27  29
ENDBRANCH   8  27
TORSDOF 6
ENDMDL
MODEL 8
REMARK VINA RESULT:      -9.4      3.081      6.534
REMARK  Name = 44629555
REMARK  6 active torsions:
REMARK  status: ('A' for Active; 'I' for Inactive)
REMARK    1  A    between atoms: C_4  and  N_18
REMARK    2  A    between atoms: C_6  and  C_12
REMARK    3  A    between atoms: C_8  and  S_27
REMARK    4  A    between atoms: N_18  and  C_20
REMARK    5  A    between atoms: C_20  and  C_22
REMARK    6  A    between atoms: S_27  and  C_29
REMARK                            x       y       z     vdW  Elec       q    Type
REMARK                         _______ _______ _______ _____ _____    ______ ____
ROOT
ATOM      1  N   UNL     1      33.972 -23.867 -15.596  0.00  0.00    -0.152 N 
ATOM      2  N   UNL     1      35.740 -22.833 -16.863  0.00  0.00    -0.388 NA
ATOM      3  N   UNL     1      33.802 -24.617 -14.470  0.00  0.00    -0.173 NA
ATOM      4  C   UNL     1      32.983 -23.414 -16.483  0.00  0.00    +0.126 C 
ATOM      5  C   UNL     1      35.321 -23.573 -15.802  0.00  0.00    +0.200 C 
ATOM      6  C   UNL     1      34.822 -22.400 -17.679  0.00  0.00    +0.136 C 
ATOM      7  C   UNL     1      33.357 -22.679 -17.543  0.00  0.00    +0.064 C 
ATOM      8  C   UNL     1      36.013 -24.164 -14.769  0.00  0.00    +0.173 C 
ATOM      9  C   UNL     1      35.032 -24.786 -13.988  0.00  0.00    +0.112 C 
ENDROOT
BRANCH   6  12
ATOM     10 CL   UNL     1      32.613 -21.113 -19.341  0.00  0.00    -0.081 Cl
ATOM     11 CL   UNL     1      33.657 -19.380 -21.835  0.00  0.00    -0.081 Cl
ATOM     12  C   UNL     1      35.233 -21.582 -18.850  0.00  0.00    +0.041 C 
ATOM     13  C   UNL     1      34.307 -20.948 -19.679  0.00  0.00    +0.071 C 
ATOM     14  C   UNL     1      36.599 -21.460 -19.108  0.00  0.00    +0.003 C 
ATOM     15  C   UNL     1      34.747 -20.193 -20.766  0.00  0.00    +0.068 C 
ATOM     16  C   UNL     1      37.038 -20.704 -20.194  0.00  0.00    +0.001 C 
ATOM     17  C   UNL     1      36.113 -20.071 -21.023  0.00  0.00    +0.012 C 
ENDBRANCH   6  12
BRANCH   4  18
ATOM     18  N   UNL     1      31.688 -23.760 -16.214  0.00  0.00    -0.316 N 
ATOM     19  H   UNL     1      31.296 -24.519 -16.702  0.00  0.00    +0.148 HD
BRANCH  18  20
ATOM     20  C   UNL     1      30.869 -23.069 -15.254  0.00  0.00    +0.115 C 
BRANCH  20  22
ATOM     21  N   UNL     1      26.871 -22.582 -16.757  0.00  0.00    -0.242 NA
ATOM     22  C   UNL     1      29.471 -22.898 -15.780  0.00  0.00    +0.000 C 
ATOM     23  C   UNL     1      29.123 -23.421 -17.020  0.00  0.00    +0.018 C 
ATOM     24  C   UNL     1      28.521 -22.216 -15.027  0.00  0.00    +0.018 C 
ATOM     25  C   UNL     1      27.821 -23.237 -17.460  0.00  0.00    +0.099 C 
ATOM     26  C   UNL     1      27.247 -22.087 -15.556  0.00  0.00    +0.099 C 
ENDBRANCH  20  22
ENDBRANCH  18  20
ENDBRANCH   4  18
BRANCH   8  27
ATOM     27  S   UNL     1      37.723 -24.154 -14.470  0.00  0.00    -0.022 S 
BRANCH  27  29
ATOM     28  N   UNL     1      38.185 -26.969 -14.655  0.00  0.00    -0.184 NA
ATOM     29  C   UNL     1      38.002 -25.827 -14.564  0.00  0.00    +0.134 C 
ENDBRANCH  27  29
ENDBRANCH   8  27
TORSDOF 6
ENDMDL
MODEL 9
REMARK VINA RESULT:      -9.2      2.309      6.382
REMARK  Name = 44629555
REMARK  6 active torsions:
REMARK  status: ('A' for Active; 'I' for Inactive)
REMARK    1  A    between atoms: C_4  and  N_18
REMARK    2  A    between atoms: C_6  and  C_12
REMARK    3  A    between atoms: C_8  and  S_27
REMARK    4  A    between atoms: N_18  and  C_20
REMARK    5  A    between atoms: C_20  and  C_22
REMARK    6  A    between atoms: S_27  and  C_29
REMARK                            x       y       z     vdW  Elec       q    Type
REMARK                         _______ _______ _______ _____ _____    ______ ____
ROOT
ATOM      1  N   UNL     1      35.852 -22.459 -17.294  0.00  0.00    -0.152 N 
ATOM      2  N   UNL     1      33.463 -22.755 -17.240  0.00  0.00    -0.388 NA
ATOM      3  N   UNL     1      36.817 -21.938 -18.105  0.00  0.00    -0.173 NA
ATOM      4  C   UNL     1      36.024 -23.077 -16.045  0.00  0.00    +0.126 C 
ATOM      5  C   UNL     1      34.587 -22.313 -17.864  0.00  0.00    +0.200 C 
ATOM      6  C   UNL     1      33.619 -23.316 -16.074  0.00  0.00    +0.136 C 
ATOM      7  C   UNL     1      34.937 -23.526 -15.396  0.00  0.00    +0.064 C 
ATOM      8  C   UNL     1      34.773 -21.682 -19.074  0.00  0.00    +0.173 C 
ATOM      9  C   UNL     1      36.154 -21.478 -19.165  0.00  0.00    +0.112 C 
ENDROOT
BRANCH   6  12
ATOM     10 CL   UNL     1      30.889 -22.464 -17.135  0.00  0.00    -0.081 Cl
ATOM     11 CL   UNL     1      28.394 -23.608 -15.468  0.00  0.00    -0.081 Cl
ATOM     12  C   UNL     1      32.418 -23.809 -15.352  0.00  0.00    +0.041 C 
ATOM     13  C   UNL     1      31.120 -23.482 -15.749  0.00  0.00    +0.071 C 
ATOM     14  C   UNL     1      32.621 -24.628 -14.240  0.00  0.00    +0.003 C 
ATOM     15  C   UNL     1      30.028 -23.972 -15.033  0.00  0.00    +0.068 C 
ATOM     16  C   UNL     1      31.528 -25.117 -13.525  0.00  0.00    +0.001 C 
ATOM     17  C   UNL     1      30.232 -24.790 -13.922  0.00  0.00    +0.012 C 
ENDBRANCH   6  12
BRANCH   4  18
ATOM     18  N   UNL     1      37.299 -23.191 -15.567  0.00  0.00    -0.316 N 
ATOM     19  H   UNL     1      37.935 -22.464 -15.754  0.00  0.00    +0.148 HD
BRANCH  18  20
ATOM     20  C   UNL     1      37.758 -24.322 -14.805  0.00  0.00    +0.115 C 
BRANCH  20  22
ATOM     21  N   UNL     1      36.432 -24.031 -10.726  0.00  0.00    -0.242 NA
ATOM     22  C   UNL     1      37.293 -24.220 -13.379  0.00  0.00    +0.000 C 
ATOM     23  C   UNL     1      36.653 -25.296 -12.774  0.00  0.00    +0.018 C 
ATOM     24  C   UNL     1      37.503 -23.049 -12.659  0.00  0.00    +0.018 C 
ATOM     25  C   UNL     1      36.245 -25.152 -11.458  0.00  0.00    +0.099 C 
ATOM     26  C   UNL     1      37.057 -23.006 -11.348  0.00  0.00    +0.099 C 
ENDBRANCH  20  22
ENDBRANCH  18  20
ENDBRANCH   4  18
BRANCH   8  27
ATOM     27  S   UNL     1      33.578 -21.222 -20.245  0.00  0.00    -0.022 S 
BRANCH  27  29
ATOM     28  N   UNL     1      34.724 -18.747 -21.101  0.00  0.00    -0.184 NA
ATOM     29  C   UNL     1      34.274 -19.757 -20.750  0.00  0.00    +0.134 C 
ENDBRANCH  27  29
ENDBRANCH   8  27
TORSDOF 6
ENDMDL
