MODEL 1
REMARK VINA RESULT:      -5.7      0.000      0.000
REMARK  Name = 11862103
REMARK  5 active torsions:
REMARK  status: ('A' for Active; 'I' for Inactive)
REMARK    1  A    between atoms: CA_1  and  N_2
REMARK    2  A    between atoms: CA_1  and  C_8
REMARK    3  A    between atoms: CA_1  and  C_9
REMARK    4  A    between atoms: C_9  and  C_10
REMARK    5  A    between atoms: C_10  and  S_11
REMARK                            x       y       z     vdW  Elec       q    Type
REMARK                         _______ _______ _______ _____ _____    ______ ____
ROOT
ATOM      1  CA  UNL     1      38.715 -25.547 -14.429  0.00  0.00    +0.041 C 
ENDROOT
BRANCH   1   2
ATOM      2  N   UNL     1      38.175 -26.938 -14.545  0.00  0.00    +0.389 N 
ATOM      3  H1  UNL     1      37.206 -26.902 -14.860  0.00  0.00    -0.088 HD
ATOM      4  H2  UNL     1      38.220 -27.397 -13.635  0.00  0.00    -0.088 HD
ATOM      5  H3  UNL     1      38.732 -27.464 -15.220  0.00  0.00    -0.088 HD
ENDBRANCH   1   2
BRANCH   1   8
ATOM      6  O   UNL     1      40.889 -24.627 -14.136  0.00  0.00    -0.248 OA
ATOM      7  OXT UNL     1      40.536 -26.101 -15.841  0.00  0.00    -0.248 OA
ATOM      8  C   UNL     1      40.189 -25.403 -14.846  0.00  0.00    +0.345 C 
ENDBRANCH   1   8
BRANCH   1   9
ATOM      9  C   UNL     1      38.373 -25.036 -13.023  0.00  0.00    +0.003 C 
BRANCH   9  10
ATOM     10  C   UNL     1      37.140 -25.690 -12.405  0.00  0.00    +0.090 C 
BRANCH  10  11
ATOM     11  S   UNL     1      36.069 -24.431 -11.638  0.00  0.00    +0.043 S 
ATOM     12  O   UNL     1      35.321 -25.107 -10.532  0.00  0.00    -0.256 OA
ATOM     13  C   UNL     1      34.949 -24.281 -13.049  0.00  0.00    +0.106 C 
ENDBRANCH  10  11
ENDBRANCH   9  10
ENDBRANCH   1   9
TORSDOF 5
ENDMDL
MODEL 2
REMARK VINA RESULT:      -5.6      1.767      2.097
REMARK  Name = 11862103
REMARK  5 active torsions:
REMARK  status: ('A' for Active; 'I' for Inactive)
REMARK    1  A    between atoms: CA_1  and  N_2
REMARK    2  A    between atoms: CA_1  and  C_8
REMARK    3  A    between atoms: CA_1  and  C_9
REMARK    4  A    between atoms: C_9  and  C_10
REMARK    5  A    between atoms: C_10  and  S_11
REMARK                            x       y       z     vdW  Elec       q    Type
REMARK                         _______ _______ _______ _____ _____    ______ ____
ROOT
ATOM      1  CA  UNL     1      38.741 -25.495 -14.603  0.00  0.00    +0.041 C 
ENDROOT
BRANCH   1   2
ATOM      2  N   UNL     1      38.420 -26.242 -13.346  0.00  0.00    +0.389 N 
ATOM      3  H1  UNL     1      39.110 -26.979 -13.203  0.00  0.00    -0.088 HD
ATOM      4  H2  UNL     1      37.491 -26.657 -13.425  0.00  0.00    -0.088 HD
ATOM      5  H3  UNL     1      38.440 -25.599 -12.554  0.00  0.00    -0.088 HD
ENDBRANCH   1   2
BRANCH   1   8
ATOM      6  O   UNL     1      40.642 -26.111 -15.893  0.00  0.00    -0.248 OA
ATOM      7  OXT UNL     1      40.904 -24.621 -14.185  0.00  0.00    -0.248 OA
ATOM      8  C   UNL     1      40.244 -25.409 -14.922  0.00  0.00    +0.345 C 
ENDBRANCH   1   8
BRANCH   1   9
ATOM      9  C   UNL     1      38.001 -24.152 -14.543  0.00  0.00    +0.003 C 
BRANCH   9  10
ATOM     10  C   UNL     1      36.827 -24.130 -13.567  0.00  0.00    +0.090 C 
BRANCH  10  11
ATOM     11  S   UNL     1      37.229 -23.107 -12.113  0.00  0.00    +0.043 S 
ATOM     12  O   UNL     1      38.642 -23.422 -11.733  0.00  0.00    -0.256 OA
ATOM     13  C   UNL     1      36.141 -23.996 -10.976  0.00  0.00    +0.106 C 
ENDBRANCH  10  11
ENDBRANCH   9  10
ENDBRANCH   1   9
TORSDOF 5
ENDMDL
MODEL 3
REMARK VINA RESULT:      -5.4      2.335      2.846
REMARK  Name = 11862103
REMARK  5 active torsions:
REMARK  status: ('A' for Active; 'I' for Inactive)
REMARK    1  A    between atoms: CA_1  and  N_2
REMARK    2  A    between atoms: CA_1  and  C_8
REMARK    3  A    between atoms: CA_1  and  C_9
REMARK    4  A    between atoms: C_9  and  C_10
REMARK    5  A    between atoms: C_10  and  S_11
REMARK                            x       y       z     vdW  Elec       q    Type
REMARK                         _______ _______ _______ _____ _____    ______ ____
ROOT
ATOM      1  CA  UNL     1      37.010 -25.127 -14.611  0.00  0.00    +0.041 C 
ENDROOT
BRANCH   1   2
ATOM      2  N   UNL     1      37.899 -24.144 -15.307  0.00  0.00    +0.389 N 
ATOM      3  H1  UNL     1      38.798 -24.581 -15.509  0.00  0.00    -0.088 HD
ATOM      4  H2  UNL     1      38.044 -23.332 -14.706  0.00  0.00    -0.088 HD
ATOM      5  H3  UNL     1      37.461 -23.848 -16.180  0.00  0.00    -0.088 HD
ENDBRANCH   1   2
BRANCH   1   8
ATOM      6  O   UNL     1      38.148 -27.215 -14.676  0.00  0.00    -0.248 OA
ATOM      7  OXT UNL     1      36.234 -26.964 -15.892  0.00  0.00    -0.248 OA
ATOM      8  C   UNL     1      37.151 -26.574 -15.114  0.00  0.00    +0.345 C 
ENDBRANCH   1   8
BRANCH   1   9
ATOM      9  C   UNL     1      35.586 -24.557 -14.633  0.00  0.00    +0.003 C 
BRANCH   9  10
ATOM     10  C   UNL     1      35.008 -24.268 -13.249  0.00  0.00    +0.090 C 
BRANCH  10  11
ATOM     11  S   UNL     1      36.196 -24.747 -11.952  0.00  0.00    +0.043 S 
ATOM     12  O   UNL     1      35.398 -25.111 -10.740  0.00  0.00    -0.256 OA
ATOM     13  C   UNL     1      36.852 -23.082 -11.701  0.00  0.00    +0.106 C 
ENDBRANCH  10  11
ENDBRANCH   9  10
ENDBRANCH   1   9
TORSDOF 5
ENDMDL
MODEL 4
REMARK VINA RESULT:      -5.4      2.623      2.873
REMARK  Name = 11862103
REMARK  5 active torsions:
REMARK  status: ('A' for Active; 'I' for Inactive)
REMARK    1  A    between atoms: CA_1  and  N_2
REMARK    2  A    between atoms: CA_1  and  C_8
REMARK    3  A    between atoms: CA_1  and  C_9
REMARK    4  A    between atoms: C_9  and  C_10
REMARK    5  A    between atoms: C_10  and  S_11
REMARK                            x       y       z     vdW  Elec       q    Type
REMARK                         _______ _______ _______ _____ _____    ______ ____
ROOT
ATOM      1  CA  UNL     1      37.905 -26.311 -14.578  0.00  0.00    +0.041 C 
ENDROOT
BRANCH   1   2
ATOM      2  N   UNL     1      38.915 -25.338 -15.100  0.00  0.00    +0.389 N 
ATOM      3  H1  UNL     1      38.438 -24.500 -15.434  0.00  0.00    -0.088 HD
ATOM      4  H2  UNL     1      39.431 -25.764 -15.870  0.00  0.00    -0.088 HD
ATOM      5  H3  UNL     1      39.562 -25.086 -14.353  0.00  0.00    -0.088 HD
ENDBRANCH   1   2
BRANCH   1   8
ATOM      6  O   UNL     1      35.756 -25.590 -15.300  0.00  0.00    -0.248 OA
ATOM      7  OXT UNL     1      36.684 -27.434 -16.271  0.00  0.00    -0.248 OA
ATOM      8  C   UNL     1      36.655 -26.463 -15.462  0.00  0.00    +0.345 C 
ENDBRANCH   1   8
BRANCH   1   9
ATOM      9  C   UNL     1      37.636 -25.954 -13.110  0.00  0.00    +0.003 C 
BRANCH   9  10
ATOM     10  C   UNL     1      38.278 -24.644 -12.660  0.00  0.00    +0.090 C 
BRANCH  10  11
ATOM     11  S   UNL     1      36.999 -23.393 -12.315  0.00  0.00    +0.043 S 
ATOM     12  O   UNL     1      37.385 -22.710 -11.041  0.00  0.00    -0.256 OA
ATOM     13  C   UNL     1      35.697 -24.586 -11.929  0.00  0.00    +0.106 C 
ENDBRANCH  10  11
ENDBRANCH   9  10
ENDBRANCH   1   9
TORSDOF 5
ENDMDL
MODEL 5
REMARK VINA RESULT:      -5.4      2.738      3.034
REMARK  Name = 11862103
REMARK  5 active torsions:
REMARK  status: ('A' for Active; 'I' for Inactive)
REMARK    1  A    between atoms: CA_1  and  N_2
REMARK    2  A    between atoms: CA_1  and  C_8
REMARK    3  A    between atoms: CA_1  and  C_9
REMARK    4  A    between atoms: C_9  and  C_10
REMARK    5  A    between atoms: C_10  and  S_11
REMARK                            x       y       z     vdW  Elec       q    Type
REMARK                         _______ _______ _______ _____ _____    ______ ____
ROOT
ATOM      1  CA  UNL     1      36.632 -25.424 -15.027  0.00  0.00    +0.041 C 
ENDROOT
BRANCH   1   2
ATOM      2  N   UNL     1      35.213 -25.403 -14.553  0.00  0.00    +0.389 N 
ATOM      3  H1  UNL     1      34.853 -26.357 -14.515  0.00  0.00    -0.088 HD
ATOM      4  H2  UNL     1      34.647 -24.853 -15.199  0.00  0.00    -0.088 HD
ATOM      5  H3  UNL     1      35.171 -24.987 -13.623  0.00  0.00    -0.088 HD
ENDBRANCH   1   2
BRANCH   1   8
ATOM      6  O   UNL     1      38.087 -27.255 -14.593  0.00  0.00    -0.248 OA
ATOM      7  OXT UNL     1      36.615 -27.404 -16.329  0.00  0.00    -0.248 OA
ATOM      8  C   UNL     1      37.171 -26.828 -15.351  0.00  0.00    +0.345 C 
ENDBRANCH   1   8
BRANCH   1   9
ATOM      9  C   UNL     1      37.465 -24.612 -14.026  0.00  0.00    +0.003 C 
BRANCH   9  10
ATOM     10  C   UNL     1      36.819 -23.294 -13.603  0.00  0.00    +0.090 C 
BRANCH  10  11
ATOM     11  S   UNL     1      37.164 -22.952 -11.846  0.00  0.00    +0.043 S 
ATOM     12  O   UNL     1      38.593 -23.324 -11.600  0.00  0.00    -0.256 OA
ATOM     13  C   UNL     1      36.129 -24.289 -11.208  0.00  0.00    +0.106 C 
ENDBRANCH  10  11
ENDBRANCH   9  10
ENDBRANCH   1   9
TORSDOF 5
ENDMDL
MODEL 6
REMARK VINA RESULT:      -5.3      2.982      3.348
REMARK  Name = 11862103
REMARK  5 active torsions:
REMARK  status: ('A' for Active; 'I' for Inactive)
REMARK    1  A    between atoms: CA_1  and  N_2
REMARK    2  A    between atoms: CA_1  and  C_8
REMARK    3  A    between atoms: CA_1  and  C_9
REMARK    4  A    between atoms: C_9  and  C_10
REMARK    5  A    between atoms: C_10  and  S_11
REMARK                            x       y       z     vdW  Elec       q    Type
REMARK                         _______ _______ _______ _____ _____    ______ ____
ROOT
ATOM      1  CA  UNL     1      38.701 -25.533 -14.742  0.00  0.00    +0.041 C 
ENDROOT
BRANCH   1   2
ATOM      2  N   UNL     1      38.293 -26.150 -13.440  0.00  0.00    +0.389 N 
ATOM      3  H1  UNL     1      39.082 -26.662 -13.044  0.00  0.00    -0.088 HD
ATOM      4  H2  UNL     1      37.516 -26.793 -13.597  0.00  0.00    -0.088 HD
ATOM      5  H3  UNL     1      38.004 -25.418 -12.792  0.00  0.00    -0.088 HD
ENDBRANCH   1   2
BRANCH   1   8
ATOM      6  O   UNL     1      40.685 -26.149 -15.900  0.00  0.00    -0.248 OA
ATOM      7  OXT UNL     1      40.832 -24.670 -14.169  0.00  0.00    -0.248 OA
ATOM      8  C   UNL     1      40.222 -25.451 -14.954  0.00  0.00    +0.345 C 
ENDBRANCH   1   8
BRANCH   1   9
ATOM      9  C   UNL     1      37.941 -24.207 -14.881  0.00  0.00    +0.003 C 
BRANCH   9  10
ATOM     10  C   UNL     1      36.440 -24.370 -15.108  0.00  0.00    +0.090 C 
BRANCH  10  11
ATOM     11  S   UNL     1      35.725 -22.824 -15.757  0.00  0.00    +0.043 S 
ATOM     12  O   UNL     1      34.958 -23.181 -16.992  0.00  0.00    -0.256 OA
ATOM     13  C   UNL     1      37.303 -22.112 -16.275  0.00  0.00    +0.106 C 
ENDBRANCH  10  11
ENDBRANCH   9  10
ENDBRANCH   1   9
TORSDOF 5
ENDMDL
MODEL 7
REMARK VINA RESULT:      -5.2      2.637      4.643
REMARK  Name = 11862103
REMARK  5 active torsions:
REMARK  status: ('A' for Active; 'I' for Inactive)
REMARK    1  A    between atoms: CA_1  and  N_2
REMARK    2  A    between atoms: CA_1  and  C_8
REMARK    3  A    between atoms: CA_1  and  C_9
REMARK    4  A    between atoms: C_9  and  C_10
REMARK    5  A    between atoms: C_10  and  S_11
REMARK                            x       y       z     vdW  Elec       q    Type
REMARK                         _______ _______ _______ _____ _____    ______ ____
ROOT
ATOM      1  CA  UNL     1      35.946 -24.104 -12.218  0.00  0.00    +0.041 C 
ENDROOT
BRANCH   1   2
ATOM      2  N   UNL     1      35.901 -23.214 -13.421  0.00  0.00    +0.389 N 
ATOM      3  H1  UNL     1      35.674 -23.769 -14.246  0.00  0.00    -0.088 HD
ATOM      4  H2  UNL     1      36.811 -22.771 -13.550  0.00  0.00    -0.088 HD
ATOM      5  H3  UNL     1      35.189 -22.497 -13.287  0.00  0.00    -0.088 HD
ENDBRANCH   1   2
BRANCH   1   8
ATOM      6  O   UNL     1      36.359 -24.029  -9.877  0.00  0.00    -0.248 OA
ATOM      7  OXT UNL     1      37.324 -22.456 -11.218  0.00  0.00    -0.248 OA
ATOM      8  C   UNL     1      36.599 -23.464 -10.981  0.00  0.00    +0.345 C 
ENDBRANCH   1   8
BRANCH   1   9
ATOM      9  C   UNL     1      36.543 -25.447 -12.660  0.00  0.00    +0.003 C 
BRANCH   9  10
ATOM     10  C   UNL     1      38.069 -25.470 -12.693  0.00  0.00    +0.090 C 
BRANCH  10  11
ATOM     11  S   UNL     1      38.668 -25.470 -14.414  0.00  0.00    +0.043 S 
ATOM     12  O   UNL     1      38.550 -24.066 -14.919  0.00  0.00    -0.256 OA
ATOM     13  C   UNL     1      37.276 -26.413 -15.077  0.00  0.00    +0.106 C 
ENDBRANCH  10  11
ENDBRANCH   9  10
ENDBRANCH   1   9
TORSDOF 5
ENDMDL
MODEL 8
REMARK VINA RESULT:      -5.2      2.709      4.854
REMARK  Name = 11862103
REMARK  5 active torsions:
REMARK  status: ('A' for Active; 'I' for Inactive)
REMARK    1  A    between atoms: CA_1  and  N_2
REMARK    2  A    between atoms: CA_1  and  C_8
REMARK    3  A    between atoms: CA_1  and  C_9
REMARK    4  A    between atoms: C_9  and  C_10
REMARK    5  A    between atoms: C_10  and  S_11
REMARK                            x       y       z     vdW  Elec       q    Type
REMARK                         _______ _______ _______ _____ _____    ______ ____
ROOT
ATOM      1  CA  UNL     1      36.609 -23.387 -11.974  0.00  0.00    +0.041 C 
ENDROOT
BRANCH   1   2
ATOM      2  N   UNL     1      38.075 -23.340 -11.675  0.00  0.00    +0.389 N 
ATOM      3  H1  UNL     1      38.380 -24.249 -11.329  0.00  0.00    -0.088 HD
ATOM      4  H2  UNL     1      38.254 -22.629 -10.965  0.00  0.00    -0.088 HD
ATOM      5  H3  UNL     1      38.588 -23.110 -12.525  0.00  0.00    -0.088 HD
ENDBRANCH   1   2
BRANCH   1   8
ATOM      6  O   UNL     1      36.135 -24.195  -9.787  0.00  0.00    -0.248 OA
ATOM      7  OXT UNL     1      34.849 -24.911 -11.531  0.00  0.00    -0.248 OA
ATOM      8  C   UNL     1      35.791 -24.254 -11.002  0.00  0.00    +0.345 C 
ENDBRANCH   1   8
BRANCH   1   9
ATOM      9  C   UNL     1      36.453 -23.734 -13.460  0.00  0.00    +0.003 C 
BRANCH   9  10
ATOM     10  C   UNL     1      37.775 -23.947 -14.193  0.00  0.00    +0.090 C 
BRANCH  10  11
ATOM     11  S   UNL     1      38.153 -25.726 -14.320  0.00  0.00    +0.043 S 
ATOM     12  O   UNL     1      38.231 -26.258 -12.923  0.00  0.00    -0.256 OA
ATOM     13  C   UNL     1      39.843 -25.497 -14.918  0.00  0.00    +0.106 C 
ENDBRANCH  10  11
ENDBRANCH   9  10
ENDBRANCH   1   9
TORSDOF 5
ENDMDL
MODEL 9
REMARK VINA RESULT:      -5.1      7.082      9.329
REMARK  Name = 11862103
REMARK  5 active torsions:
REMARK  status: ('A' for Active; 'I' for Inactive)
REMARK    1  A    between atoms: CA_1  and  N_2
REMARK    2  A    between atoms: CA_1  and  C_8
REMARK    3  A    between atoms: CA_1  and  C_9
REMARK    4  A    between atoms: C_9  and  C_10
REMARK    5  A    between atoms: C_10  and  S_11
REMARK                            x       y       z     vdW  Elec       q    Type
REMARK                         _______ _______ _______ _____ _____    ______ ____
ROOT
ATOM      1  CA  UNL     1      29.138 -23.405 -15.712  0.00  0.00    +0.041 C 
ENDROOT
BRANCH   1   2
ATOM      2  N   UNL     1      28.860 -24.746 -15.107  0.00  0.00    +0.389 N 
ATOM      3  H1  UNL     1      28.768 -25.441 -15.847  0.00  0.00    -0.088 HD
ATOM      4  H2  UNL     1      27.993 -24.704 -14.570  0.00  0.00    -0.088 HD
ATOM      5  H3  UNL     1      29.630 -25.007 -14.490  0.00  0.00    -0.088 HD
ENDBRANCH   1   2
BRANCH   1   8
ATOM      6  O   UNL     1      27.716 -23.969 -17.533  0.00  0.00    -0.248 OA
ATOM      7  OXT UNL     1      27.946 -21.775 -16.952  0.00  0.00    -0.248 OA
ATOM      8  C   UNL     1      28.179 -23.014 -16.849  0.00  0.00    +0.345 C 
ENDBRANCH   1   8
BRANCH   1   9
ATOM      9  C   UNL     1      30.631 -23.357 -16.061  0.00  0.00    +0.003 C 
BRANCH   9  10
ATOM     10  C   UNL     1      31.543 -23.101 -14.863  0.00  0.00    +0.090 C 
BRANCH  10  11
ATOM     11  S   UNL     1      32.129 -24.677 -14.160  0.00  0.00    +0.043 S 
ATOM     12  O   UNL     1      31.246 -24.990 -12.993  0.00  0.00    -0.256 OA
ATOM     13  C   UNL     1      33.679 -24.008 -13.515  0.00  0.00    +0.106 C 
ENDBRANCH  10  11
ENDBRANCH   9  10
ENDBRANCH   1   9
TORSDOF 5
ENDMDL
