MODEL 1
REMARK VINA RESULT:      -4.6      0.000      0.000
REMARK  Name = 12374
REMARK  7 active torsions:
REMARK  status: ('A' for Active; 'I' for Inactive)
REMARK    1  A    between atoms: C_1  and  C_2
REMARK    2  A    between atoms: C_1  and  C_7
REMARK    3  A    between atoms: C_2  and  C_3
REMARK    4  A    between atoms: C_3  and  C_4
REMARK    5  A    between atoms: C_4  and  O_5
REMARK    6  A    between atoms: C_7  and  C_8
REMARK    7  A    between atoms: C_8  and  O_9
REMARK                            x       y       z     vdW  Elec       q    Type
REMARK                         _______ _______ _______ _____ _____    ______ ____
ROOT
ATOM      1  C   UNL     1      34.974 -18.975 -21.490  0.00  0.00    +0.003 C 
ENDROOT
BRANCH   1   2
ATOM      2  C   UNL     1      34.793 -19.281 -22.977  0.00  0.00    +0.003 C 
BRANCH   2   3
ATOM      3  C   UNL     1      35.233 -18.103 -23.844  0.00  0.00    +0.032 C 
BRANCH   3   4
ATOM      4  C   UNL     1      34.380 -17.979 -25.099  0.00  0.00    +0.137 C 
BRANCH   4   5
ATOM      5  O   UNL     1      34.816 -16.849 -25.840  0.00  0.00    -0.382 OA
ATOM      6  H   UNL     1      35.654 -16.526 -25.475  0.00  0.00    +0.210 HD
ENDBRANCH   4   5
ENDBRANCH   3   4
ENDBRANCH   2   3
ENDBRANCH   1   2
BRANCH   1   7
ATOM      7  C   UNL     1      34.449 -20.115 -20.620  0.00  0.00    +0.032 C 
BRANCH   7   8
ATOM      8  C   UNL     1      32.928 -20.114 -20.550  0.00  0.00    +0.137 C 
BRANCH   8   9
ATOM      9  O   UNL     1      32.521 -20.853 -19.407  0.00  0.00    -0.382 OA
ATOM     10  H   UNL     1      31.882 -20.331 -18.896  0.00  0.00    +0.210 HD
ENDBRANCH   8   9
ENDBRANCH   7   8
ENDBRANCH   1   7
TORSDOF 7
ENDMDL
MODEL 2
REMARK VINA RESULT:      -4.5      2.724      3.217
REMARK  Name = 12374
REMARK  7 active torsions:
REMARK  status: ('A' for Active; 'I' for Inactive)
REMARK    1  A    between atoms: C_1  and  C_2
REMARK    2  A    between atoms: C_1  and  C_7
REMARK    3  A    between atoms: C_2  and  C_3
REMARK    4  A    between atoms: C_3  and  C_4
REMARK    5  A    between atoms: C_4  and  O_5
REMARK    6  A    between atoms: C_7  and  C_8
REMARK    7  A    between atoms: C_8  and  O_9
REMARK                            x       y       z     vdW  Elec       q    Type
REMARK                         _______ _______ _______ _____ _____    ______ ____
ROOT
ATOM      1  C   UNL     1      33.149 -20.623 -20.243  0.00  0.00    +0.003 C 
ENDROOT
BRANCH   1   2
ATOM      2  C   UNL     1      33.536 -19.332 -20.965  0.00  0.00    +0.003 C 
BRANCH   2   3
ATOM      3  C   UNL     1      34.724 -19.552 -21.899  0.00  0.00    +0.032 C 
BRANCH   3   4
ATOM      4  C   UNL     1      35.729 -18.413 -21.809  0.00  0.00    +0.137 C 
BRANCH   4   5
ATOM      5  O   UNL     1      35.469 -17.662 -20.632  0.00  0.00    -0.382 OA
ATOM      6  H   UNL     1      36.005 -16.854 -20.639  0.00  0.00    +0.210 HD
ENDBRANCH   4   5
ENDBRANCH   3   4
ENDBRANCH   2   3
ENDBRANCH   1   2
BRANCH   1   7
ATOM      7  C   UNL     1      34.375 -21.323 -19.662  0.00  0.00    +0.032 C 
BRANCH   7   8
ATOM      8  C   UNL     1      33.984 -22.457 -18.724  0.00  0.00    +0.137 C 
BRANCH   8   9
ATOM      9  O   UNL     1      33.967 -23.674 -19.457  0.00  0.00    -0.382 OA
ATOM     10  H   UNL     1      34.128 -23.488 -20.396  0.00  0.00    +0.210 HD
ENDBRANCH   8   9
ENDBRANCH   7   8
ENDBRANCH   1   7
TORSDOF 7
ENDMDL
MODEL 3
REMARK VINA RESULT:      -4.5      1.338      1.449
REMARK  Name = 12374
REMARK  7 active torsions:
REMARK  status: ('A' for Active; 'I' for Inactive)
REMARK    1  A    between atoms: C_1  and  C_2
REMARK    2  A    between atoms: C_1  and  C_7
REMARK    3  A    between atoms: C_2  and  C_3
REMARK    4  A    between atoms: C_3  and  C_4
REMARK    5  A    between atoms: C_4  and  O_5
REMARK    6  A    between atoms: C_7  and  C_8
REMARK    7  A    between atoms: C_8  and  O_9
REMARK                            x       y       z     vdW  Elec       q    Type
REMARK                         _______ _______ _______ _____ _____    ______ ____
ROOT
ATOM      1  C   UNL     1      34.112 -19.019 -21.149  0.00  0.00    +0.003 C 
ENDROOT
BRANCH   1   2
ATOM      2  C   UNL     1      34.563 -19.366 -22.569  0.00  0.00    +0.003 C 
BRANCH   2   3
ATOM      3  C   UNL     1      35.597 -18.367 -23.083  0.00  0.00    +0.032 C 
BRANCH   3   4
ATOM      4  C   UNL     1      34.948 -17.244 -23.880  0.00  0.00    +0.137 C 
BRANCH   4   5
ATOM      5  O   UNL     1      35.614 -16.026 -23.585  0.00  0.00    -0.382 OA
ATOM      6  H   UNL     1      35.991 -15.657 -24.400  0.00  0.00    +0.210 HD
ENDBRANCH   4   5
ENDBRANCH   3   4
ENDBRANCH   2   3
ENDBRANCH   1   2
BRANCH   1   7
ATOM      7  C   UNL     1      33.100 -20.035 -20.624  0.00  0.00    +0.032 C 
BRANCH   7   8
ATOM      8  C   UNL     1      33.768 -21.102 -19.768  0.00  0.00    +0.137 C 
BRANCH   8   9
ATOM      9  O   UNL     1      32.895 -22.218 -19.663  0.00  0.00    -0.382 OA
ATOM     10  H   UNL     1      32.022 -21.980 -20.013  0.00  0.00    +0.210 HD
ENDBRANCH   8   9
ENDBRANCH   7   8
ENDBRANCH   1   7
TORSDOF 7
ENDMDL
MODEL 4
REMARK VINA RESULT:      -4.5      2.576      5.307
REMARK  Name = 12374
REMARK  7 active torsions:
REMARK  status: ('A' for Active; 'I' for Inactive)
REMARK    1  A    between atoms: C_1  and  C_2
REMARK    2  A    between atoms: C_1  and  C_7
REMARK    3  A    between atoms: C_2  and  C_3
REMARK    4  A    between atoms: C_3  and  C_4
REMARK    5  A    between atoms: C_4  and  O_5
REMARK    6  A    between atoms: C_7  and  C_8
REMARK    7  A    between atoms: C_8  and  O_9
REMARK                            x       y       z     vdW  Elec       q    Type
REMARK                         _______ _______ _______ _____ _____    ______ ____
ROOT
ATOM      1  C   UNL     1      33.530 -19.265 -21.031  0.00  0.00    +0.003 C 
ENDROOT
BRANCH   1   2
ATOM      2  C   UNL     1      33.125 -20.470 -20.182  0.00  0.00    +0.003 C 
BRANCH   2   3
ATOM      3  C   UNL     1      34.346 -21.276 -19.743  0.00  0.00    +0.032 C 
BRANCH   3   4
ATOM      4  C   UNL     1      33.967 -22.393 -18.781  0.00  0.00    +0.137 C 
BRANCH   4   5
ATOM      5  O   UNL     1      32.574 -22.316 -18.513  0.00  0.00    -0.382 OA
ATOM      6  H   UNL     1      32.259 -21.416 -18.693  0.00  0.00    +0.210 HD
ENDBRANCH   4   5
ENDBRANCH   3   4
ENDBRANCH   2   3
ENDBRANCH   1   2
BRANCH   1   7
ATOM      7  C   UNL     1      34.776 -19.564 -21.861  0.00  0.00    +0.032 C 
BRANCH   7   8
ATOM      8  C   UNL     1      35.810 -18.453 -21.743  0.00  0.00    +0.137 C 
BRANCH   8   9
ATOM      9  O   UNL     1      35.480 -17.635 -20.629  0.00  0.00    -0.382 OA
ATOM     10  H   UNL     1      34.561 -17.800 -20.368  0.00  0.00    +0.210 HD
ENDBRANCH   8   9
ENDBRANCH   7   8
ENDBRANCH   1   7
TORSDOF 7
ENDMDL
MODEL 5
REMARK VINA RESULT:      -4.5      1.371      5.248
REMARK  Name = 12374
REMARK  7 active torsions:
REMARK  status: ('A' for Active; 'I' for Inactive)
REMARK    1  A    between atoms: C_1  and  C_2
REMARK    2  A    between atoms: C_1  and  C_7
REMARK    3  A    between atoms: C_2  and  C_3
REMARK    4  A    between atoms: C_3  and  C_4
REMARK    5  A    between atoms: C_4  and  O_5
REMARK    6  A    between atoms: C_7  and  C_8
REMARK    7  A    between atoms: C_8  and  O_9
REMARK                            x       y       z     vdW  Elec       q    Type
REMARK                         _______ _______ _______ _____ _____    ______ ____
ROOT
ATOM      1  C   UNL     1      34.704 -19.412 -22.447  0.00  0.00    +0.003 C 
ENDROOT
BRANCH   1   2
ATOM      2  C   UNL     1      34.170 -19.086 -21.052  0.00  0.00    +0.003 C 
BRANCH   2   3
ATOM      3  C   UNL     1      33.230 -20.179 -20.548  0.00  0.00    +0.032 C 
BRANCH   3   4
ATOM      4  C   UNL     1      33.988 -21.285 -19.828  0.00  0.00    +0.137 C 
BRANCH   4   5
ATOM      5  O   UNL     1      33.069 -22.297 -19.443  0.00  0.00    -0.382 OA
ATOM      6  H   UNL     1      33.046 -22.362 -18.475  0.00  0.00    +0.210 HD
ENDBRANCH   4   5
ENDBRANCH   3   4
ENDBRANCH   2   3
ENDBRANCH   1   2
BRANCH   1   7
ATOM      7  C   UNL     1      35.658 -18.328 -22.943  0.00  0.00    +0.032 C 
BRANCH   7   8
ATOM      8  C   UNL     1      34.917 -17.223 -23.683  0.00  0.00    +0.137 C 
BRANCH   8   9
ATOM      9  O   UNL     1      35.694 -16.034 -23.631  0.00  0.00    -0.382 OA
ATOM     10  H   UNL     1      35.765 -15.735 -22.710  0.00  0.00    +0.210 HD
ENDBRANCH   8   9
ENDBRANCH   7   8
ENDBRANCH   1   7
TORSDOF 7
ENDMDL
MODEL 6
REMARK VINA RESULT:      -4.4     11.422     12.674
REMARK  Name = 12374
REMARK  7 active torsions:
REMARK  status: ('A' for Active; 'I' for Inactive)
REMARK    1  A    between atoms: C_1  and  C_2
REMARK    2  A    between atoms: C_1  and  C_7
REMARK    3  A    between atoms: C_2  and  C_3
REMARK    4  A    between atoms: C_3  and  C_4
REMARK    5  A    between atoms: C_4  and  O_5
REMARK    6  A    between atoms: C_7  and  C_8
REMARK    7  A    between atoms: C_8  and  O_9
REMARK                            x       y       z     vdW  Elec       q    Type
REMARK                         _______ _______ _______ _____ _____    ______ ____
ROOT
ATOM      1  C   UNL     1      37.724 -26.074 -14.119  0.00  0.00    +0.003 C 
ENDROOT
BRANCH   1   2
ATOM      2  C   UNL     1      37.491 -26.097 -12.608  0.00  0.00    +0.003 C 
BRANCH   2   3
ATOM      3  C   UNL     1      37.097 -24.717 -12.086  0.00  0.00    +0.032 C 
BRANCH   3   4
ATOM      4  C   UNL     1      35.600 -24.621 -11.826  0.00  0.00    +0.137 C 
BRANCH   4   5
ATOM      5  O   UNL     1      35.334 -25.064 -10.503  0.00  0.00    -0.382 OA
ATOM      6  H   UNL     1      35.771 -25.917 -10.353  0.00  0.00    +0.210 HD
ENDBRANCH   4   5
ENDBRANCH   3   4
ENDBRANCH   2   3
ENDBRANCH   1   2
BRANCH   1   7
ATOM      7  C   UNL     1      38.822 -25.082 -14.496  0.00  0.00    +0.032 C 
BRANCH   7   8
ATOM      8  C   UNL     1      40.175 -25.767 -14.634  0.00  0.00    +0.137 C 
BRANCH   8   9
ATOM      9  O   UNL     1      40.449 -25.968 -16.014  0.00  0.00    -0.382 OA
ATOM     10  H   UNL     1      41.117 -26.665 -16.112  0.00  0.00    +0.210 HD
ENDBRANCH   8   9
ENDBRANCH   7   8
ENDBRANCH   1   7
TORSDOF 7
ENDMDL
MODEL 7
REMARK VINA RESULT:      -4.4     11.339     11.939
REMARK  Name = 12374
REMARK  7 active torsions:
REMARK  status: ('A' for Active; 'I' for Inactive)
REMARK    1  A    between atoms: C_1  and  C_2
REMARK    2  A    between atoms: C_1  and  C_7
REMARK    3  A    between atoms: C_2  and  C_3
REMARK    4  A    between atoms: C_3  and  C_4
REMARK    5  A    between atoms: C_4  and  O_5
REMARK    6  A    between atoms: C_7  and  C_8
REMARK    7  A    between atoms: C_8  and  O_9
REMARK                            x       y       z     vdW  Elec       q    Type
REMARK                         _______ _______ _______ _____ _____    ______ ____
ROOT
ATOM      1  C   UNL     1      37.830 -25.762 -12.398  0.00  0.00    +0.003 C 
ENDROOT
BRANCH   1   2
ATOM      2  C   UNL     1      37.788 -26.083 -13.893  0.00  0.00    +0.003 C 
BRANCH   2   3
ATOM      3  C   UNL     1      38.781 -25.225 -14.674  0.00  0.00    +0.032 C 
BRANCH   3   4
ATOM      4  C   UNL     1      40.160 -25.867 -14.725  0.00  0.00    +0.137 C 
BRANCH   4   5
ATOM      5  O   UNL     1      40.556 -25.996 -16.083  0.00  0.00    -0.382 OA
ATOM      6  H   UNL     1      39.775 -26.158 -16.634  0.00  0.00    +0.210 HD
ENDBRANCH   4   5
ENDBRANCH   3   4
ENDBRANCH   2   3
ENDBRANCH   1   2
BRANCH   1   7
ATOM      7  C   UNL     1      38.135 -24.285 -12.156  0.00  0.00    +0.032 C 
BRANCH   7   8
ATOM      8  C   UNL     1      36.918 -23.538 -11.631  0.00  0.00    +0.137 C 
BRANCH   8   9
ATOM      9  O   UNL     1      37.333 -22.271 -11.139  0.00  0.00    -0.382 OA
ATOM     10  H   UNL     1      37.615 -22.360 -10.216  0.00  0.00    +0.210 HD
ENDBRANCH   8   9
ENDBRANCH   7   8
ENDBRANCH   1   7
TORSDOF 7
ENDMDL
MODEL 8
REMARK VINA RESULT:      -4.4      2.647      2.827
REMARK  Name = 12374
REMARK  7 active torsions:
REMARK  status: ('A' for Active; 'I' for Inactive)
REMARK    1  A    between atoms: C_1  and  C_2
REMARK    2  A    between atoms: C_1  and  C_7
REMARK    3  A    between atoms: C_2  and  C_3
REMARK    4  A    between atoms: C_3  and  C_4
REMARK    5  A    between atoms: C_4  and  O_5
REMARK    6  A    between atoms: C_7  and  C_8
REMARK    7  A    between atoms: C_8  and  O_9
REMARK                            x       y       z     vdW  Elec       q    Type
REMARK                         _______ _______ _______ _____ _____    ______ ____
ROOT
ATOM      1  C   UNL     1      35.725 -18.101 -22.599  0.00  0.00    +0.003 C 
ENDROOT
BRANCH   1   2
ATOM      2  C   UNL     1      34.756 -19.023 -23.340  0.00  0.00    +0.003 C 
BRANCH   2   3
ATOM      3  C   UNL     1      34.494 -18.525 -24.760  0.00  0.00    +0.032 C 
BRANCH   3   4
ATOM      4  C   UNL     1      34.811 -17.044 -24.905  0.00  0.00    +0.137 C 
BRANCH   4   5
ATOM      5  O   UNL     1      34.107 -16.530 -26.027  0.00  0.00    -0.382 OA
ATOM      6  H   UNL     1      34.330 -15.594 -26.147  0.00  0.00    +0.210 HD
ENDBRANCH   4   5
ENDBRANCH   3   4
ENDBRANCH   2   3
ENDBRANCH   1   2
BRANCH   1   7
ATOM      7  C   UNL     1      35.183 -17.715 -21.225  0.00  0.00    +0.032 C 
BRANCH   7   8
ATOM      8  C   UNL     1      34.549 -16.331 -21.239  0.00  0.00    +0.137 C 
BRANCH   8   9
ATOM      9  O   UNL     1      34.967 -15.623 -20.080  0.00  0.00    -0.382 OA
ATOM     10  H   UNL     1      34.229 -15.568 -19.452  0.00  0.00    +0.210 HD
ENDBRANCH   8   9
ENDBRANCH   7   8
ENDBRANCH   1   7
TORSDOF 7
ENDMDL
MODEL 9
REMARK VINA RESULT:      -4.3      3.929      5.378
REMARK  Name = 12374
REMARK  7 active torsions:
REMARK  status: ('A' for Active; 'I' for Inactive)
REMARK    1  A    between atoms: C_1  and  C_2
REMARK    2  A    between atoms: C_1  and  C_7
REMARK    3  A    between atoms: C_2  and  C_3
REMARK    4  A    between atoms: C_3  and  C_4
REMARK    5  A    between atoms: C_4  and  O_5
REMARK    6  A    between atoms: C_7  and  C_8
REMARK    7  A    between atoms: C_8  and  O_9
REMARK                            x       y       z     vdW  Elec       q    Type
REMARK                         _______ _______ _______ _____ _____    ______ ____
ROOT
ATOM      1  C   UNL     1      32.838 -15.262 -21.215  0.00  0.00    +0.003 C 
ENDROOT
BRANCH   1   2
ATOM      2  C   UNL     1      34.260 -15.417 -20.672  0.00  0.00    +0.003 C 
BRANCH   2   3
ATOM      3  C   UNL     1      34.904 -16.712 -21.164  0.00  0.00    +0.032 C 
BRANCH   3   4
ATOM      4  C   UNL     1      34.718 -16.899 -22.663  0.00  0.00    +0.137 C 
BRANCH   4   5
ATOM      5  O   UNL     1      35.543 -15.969 -23.348  0.00  0.00    -0.382 OA
ATOM      6  H   UNL     1      36.078 -16.436 -24.010  0.00  0.00    +0.210 HD
ENDBRANCH   4   5
ENDBRANCH   3   4
ENDBRANCH   2   3
ENDBRANCH   1   2
BRANCH   1   7
ATOM      7  C   UNL     1      32.557 -13.821 -21.632  0.00  0.00    +0.032 C 
BRANCH   7   8
ATOM      8  C   UNL     1      32.796 -13.610 -23.121  0.00  0.00    +0.137 C 
BRANCH   8   9
ATOM      9  O   UNL     1      34.164 -13.285 -23.325  0.00  0.00    -0.382 OA
ATOM     10  H   UNL     1      34.373 -12.460 -22.859  0.00  0.00    +0.210 HD
ENDBRANCH   8   9
ENDBRANCH   7   8
ENDBRANCH   1   7
TORSDOF 7
ENDMDL
