MODEL 1
REMARK VINA RESULT:      -6.7      0.000      0.000
REMARK  Name = 448581
REMARK  10 active torsions:
REMARK  status: ('A' for Active; 'I' for Inactive)
REMARK    1  A    between atoms: N_2  and  CA_5
REMARK    2  A    between atoms: C_3  and  C_14
REMARK    3  A    between atoms: CA_5  and  C_7
REMARK    4  A    between atoms: CA_5  and  CB_10
REMARK    5  A    between atoms: C_7  and  O_8
REMARK    6  A    between atoms: CB_10  and  CG_11
REMARK    7  A    between atoms: CG_11  and  SD_12
REMARK    8  A    between atoms: C_14  and  C_15
REMARK    9  A    between atoms: C_15  and  C_17
REMARK   10  A    between atoms: C_17  and  O_18
REMARK                            x       y       z     vdW  Elec       q    Type
REMARK                         _______ _______ _______ _____ _____    ______ ____
ROOT
ATOM      1  O   UNL     1      35.917 -24.734 -15.623  0.00  0.00    -0.275 OA
ATOM      2  N   UNL     1      37.977 -23.835 -15.030  0.00  0.00    -0.297 N 
ATOM      3  C   ACE A   0      36.689 -23.783 -15.545  0.00  0.00    +0.223 C 
ATOM      4  H   UNL     1      38.510 -23.008 -15.016  0.00  0.00    +0.150 HD
ENDROOT
BRANCH   2   5
ATOM      5  CA  UNL     1      38.570 -25.046 -14.511  0.00  0.00    +0.172 C 
BRANCH   5   7
ATOM      6  OXT UNL     1      40.967 -24.777 -14.306  0.00  0.00    -0.248 OA
ATOM      7  C   UNL     1      40.018 -25.219 -14.944  0.00  0.00    +0.332 C 
BRANCH   7   8
ATOM      8  O   UNL     1      40.177 -25.856 -16.130  0.00  0.00    -0.479 OA
ATOM      9  H   UNL     1      39.608 -25.660 -16.847  0.00  0.00    +0.295 HD
ENDBRANCH   7   8
ENDBRANCH   5   7
BRANCH   5  10
ATOM     10  CB  UNL     1      38.407 -25.134 -12.988  0.00  0.00    +0.043 C 
BRANCH  10  11
ATOM     11  CG  UNL     1      37.148 -25.885 -12.548  0.00  0.00    +0.060 C 
BRANCH  11  12
ATOM     12  SD  UNL     1      35.943 -24.734 -11.826  0.00  0.00    -0.139 S 
ATOM     13  CE  UNL     1      37.036 -23.309 -11.617  0.00  0.00    +0.069 C 
ENDBRANCH  11  12
ENDBRANCH  10  11
ENDBRANCH   5  10
ENDBRANCH   2   5
BRANCH   3  14
ATOM     14  C   UNL     1      36.334 -22.383 -16.017  0.00  0.00    +0.097 C 
BRANCH  14  15
ATOM     15  C   UNL     1      37.155 -21.950 -17.226  0.00  0.00    +0.119 C 
BRANCH  15  17
ATOM     16  O   UNL     1      36.439 -20.650 -19.154  0.00  0.00    -0.250 OA
ATOM     17  C   UNL     1      36.281 -21.608 -18.410  0.00  0.00    +0.314 C 
BRANCH  17  18
ATOM     18  O   UNL     1      35.274 -22.507 -18.561  0.00  0.00    -0.480 OA
ATOM     19  H   UNL     1      34.478 -22.404 -18.078  0.00  0.00    +0.295 HD
ENDBRANCH  17  18
ENDBRANCH  15  17
ENDBRANCH  14  15
ENDBRANCH   3  14
TORSDOF 10
ENDMDL
MODEL 2
REMARK VINA RESULT:      -6.6      3.170      5.993
REMARK  Name = 448581
REMARK  10 active torsions:
REMARK  status: ('A' for Active; 'I' for Inactive)
REMARK    1  A    between atoms: N_2  and  CA_5
REMARK    2  A    between atoms: C_3  and  C_14
REMARK    3  A    between atoms: CA_5  and  C_7
REMARK    4  A    between atoms: CA_5  and  CB_10
REMARK    5  A    between atoms: C_7  and  O_8
REMARK    6  A    between atoms: CB_10  and  CG_11
REMARK    7  A    between atoms: CG_11  and  SD_12
REMARK    8  A    between atoms: C_14  and  C_15
REMARK    9  A    between atoms: C_15  and  C_17
REMARK   10  A    between atoms: C_17  and  O_18
REMARK                            x       y       z     vdW  Elec       q    Type
REMARK                         _______ _______ _______ _____ _____    ______ ____
ROOT
ATOM      1  O   UNL     1      36.132 -26.503 -15.855  0.00  0.00    -0.275 OA
ATOM      2  N   UNL     1      36.013 -24.989 -14.095  0.00  0.00    -0.297 N 
ATOM      3  C   ACE A   0      36.592 -26.018 -14.825  0.00  0.00    +0.223 C 
ATOM      4  H   UNL     1      36.470 -24.678 -13.281  0.00  0.00    +0.150 HD
ENDROOT
BRANCH   2   5
ATOM      5  CA  UNL     1      34.773 -24.353 -14.475  0.00  0.00    +0.172 C 
BRANCH   5   7
ATOM      6  OXT UNL     1      32.650 -24.713 -13.367  0.00  0.00    -0.248 OA
ATOM      7  C   UNL     1      33.788 -24.257 -13.320  0.00  0.00    +0.332 C 
BRANCH   7   8
ATOM      8  O   UNL     1      34.249 -23.573 -12.245  0.00  0.00    -0.479 OA
ATOM      9  H   UNL     1      34.705 -24.024 -11.563  0.00  0.00    +0.295 HD
ENDBRANCH   7   8
ENDBRANCH   5   7
BRANCH   5  10
ATOM     10  CB  UNL     1      35.029 -22.991 -15.133  0.00  0.00    +0.043 C 
BRANCH  10  11
ATOM     11  CG  UNL     1      35.039 -23.041 -16.663  0.00  0.00    +0.060 C 
BRANCH  11  12
ATOM     12  SD  UNL     1      33.348 -23.223 -17.300  0.00  0.00    -0.139 S 
ATOM     13  CE  UNL     1      33.537 -22.267 -18.822  0.00  0.00    +0.069 C 
ENDBRANCH  11  12
ENDBRANCH  10  11
ENDBRANCH   5  10
ENDBRANCH   2   5
BRANCH   3  14
ATOM     14  C   UNL     1      37.888 -26.493 -14.190  0.00  0.00    +0.097 C 
BRANCH  14  15
ATOM     15  C   UNL     1      38.994 -25.447 -14.273  0.00  0.00    +0.119 C 
BRANCH  15  17
ATOM     16  O   UNL     1      41.149 -26.561 -14.077  0.00  0.00    -0.250 OA
ATOM     17  C   UNL     1      40.292 -26.037 -14.775  0.00  0.00    +0.314 C 
BRANCH  17  18
ATOM     18  O   UNL     1      40.404 -25.916 -16.123  0.00  0.00    -0.480 OA
ATOM     19  H   UNL     1      41.235 -25.722 -16.509  0.00  0.00    +0.295 HD
ENDBRANCH  17  18
ENDBRANCH  15  17
ENDBRANCH  14  15
ENDBRANCH   3  14
TORSDOF 10
ENDMDL
MODEL 3
REMARK VINA RESULT:      -6.5      5.057      8.096
REMARK  Name = 448581
REMARK  10 active torsions:
REMARK  status: ('A' for Active; 'I' for Inactive)
REMARK    1  A    between atoms: N_2  and  CA_5
REMARK    2  A    between atoms: C_3  and  C_14
REMARK    3  A    between atoms: CA_5  and  C_7
REMARK    4  A    between atoms: CA_5  and  CB_10
REMARK    5  A    between atoms: C_7  and  O_8
REMARK    6  A    between atoms: CB_10  and  CG_11
REMARK    7  A    between atoms: CG_11  and  SD_12
REMARK    8  A    between atoms: C_14  and  C_15
REMARK    9  A    between atoms: C_15  and  C_17
REMARK   10  A    between atoms: C_17  and  O_18
REMARK                            x       y       z     vdW  Elec       q    Type
REMARK                         _______ _______ _______ _____ _____    ______ ____
ROOT
ATOM      1  O   UNL     1      35.320 -17.837 -20.680  0.00  0.00    -0.275 OA
ATOM      2  N   UNL     1      35.250 -20.084 -21.270  0.00  0.00    -0.297 N 
ATOM      3  C   ACE A   0      35.484 -18.735 -21.501  0.00  0.00    +0.223 C 
ATOM      4  H   UNL     1      35.415 -20.720 -22.002  0.00  0.00    +0.150 HD
ENDROOT
BRANCH   2   5
ATOM      5  CA  UNL     1      34.777 -20.597 -20.005  0.00  0.00    +0.172 C 
BRANCH   5   7
ATOM      6  OXT UNL     1      32.439 -20.092 -20.376  0.00  0.00    -0.248 OA
ATOM      7  C   UNL     1      33.287 -20.903 -20.018  0.00  0.00    +0.332 C 
BRANCH   7   8
ATOM      8  O   UNL     1      32.961 -22.131 -19.548  0.00  0.00    -0.479 OA
ATOM      9  H   UNL     1      32.580 -22.221 -18.697  0.00  0.00    +0.295 HD
ENDBRANCH   7   8
ENDBRANCH   5   7
BRANCH   5  10
ATOM     10  CB  UNL     1      35.612 -21.803 -19.551  0.00  0.00    +0.043 C 
BRANCH  10  11
ATOM     11  CG  UNL     1      36.559 -21.491 -18.390  0.00  0.00    +0.060 C 
BRANCH  11  12
ATOM     12  SD  UNL     1      35.980 -22.298 -16.868  0.00  0.00    -0.139 S 
ATOM     13  CE  UNL     1      37.591 -22.611 -16.110  0.00  0.00    +0.069 C 
ENDBRANCH  11  12
ENDBRANCH  10  11
ENDBRANCH   5  10
ENDBRANCH   2   5
BRANCH   3  14
ATOM     14  C   UNL     1      35.973 -18.488 -22.917  0.00  0.00    +0.097 C 
BRANCH  14  15
ATOM     15  C   UNL     1      34.826 -18.316 -23.908  0.00  0.00    +0.119 C 
BRANCH  15  17
ATOM     16  O   UNL     1      34.515 -16.809 -25.793  0.00  0.00    -0.250 OA
ATOM     17  C   UNL     1      34.915 -17.005 -24.653  0.00  0.00    +0.314 C 
BRANCH  17  18
ATOM     18  O   UNL     1      35.506 -16.043 -23.898  0.00  0.00    -0.480 OA
ATOM     19  H   UNL     1      36.118 -15.450 -24.287  0.00  0.00    +0.295 HD
ENDBRANCH  17  18
ENDBRANCH  15  17
ENDBRANCH  14  15
ENDBRANCH   3  14
TORSDOF 10
ENDMDL
MODEL 4
REMARK VINA RESULT:      -6.5      3.841      5.700
REMARK  Name = 448581
REMARK  10 active torsions:
REMARK  status: ('A' for Active; 'I' for Inactive)
REMARK    1  A    between atoms: N_2  and  CA_5
REMARK    2  A    between atoms: C_3  and  C_14
REMARK    3  A    between atoms: CA_5  and  C_7
REMARK    4  A    between atoms: CA_5  and  CB_10
REMARK    5  A    between atoms: C_7  and  O_8
REMARK    6  A    between atoms: CB_10  and  CG_11
REMARK    7  A    between atoms: CG_11  and  SD_12
REMARK    8  A    between atoms: C_14  and  C_15
REMARK    9  A    between atoms: C_15  and  C_17
REMARK   10  A    between atoms: C_17  and  O_18
REMARK                            x       y       z     vdW  Elec       q    Type
REMARK                         _______ _______ _______ _____ _____    ______ ____
ROOT
ATOM      1  O   UNL     1      37.254 -26.702 -11.925  0.00  0.00    -0.275 OA
ATOM      2  N   UNL     1      36.171 -25.108 -13.224  0.00  0.00    -0.297 N 
ATOM      3  C   ACE A   0      37.127 -26.084 -12.978  0.00  0.00    +0.223 C 
ATOM      4  H   UNL     1      36.160 -24.675 -14.107  0.00  0.00    +0.150 HD
ENDROOT
BRANCH   2   5
ATOM      5  CA  UNL     1      35.191 -24.698 -12.244  0.00  0.00    +0.172 C 
BRANCH   5   7
ATOM      6  OXT UNL     1      36.647 -23.090 -11.168  0.00  0.00    -0.248 OA
ATOM      7  C   UNL     1      35.817 -23.986 -11.054  0.00  0.00    +0.332 C 
BRANCH   7   8
ATOM      8  O   UNL     1      35.426 -24.461  -9.847  0.00  0.00    -0.479 OA
ATOM      9  H   UNL     1      34.751 -25.108  -9.794  0.00  0.00    +0.295 HD
ENDBRANCH   7   8
ENDBRANCH   5   7
BRANCH   5  10
ATOM     10  CB  UNL     1      34.074 -23.869 -12.893  0.00  0.00    +0.043 C 
BRANCH  10  11
ATOM     11  CG  UNL     1      33.895 -24.145 -14.387  0.00  0.00    +0.060 C 
BRANCH  11  12
ATOM     12  SD  UNL     1      32.195 -23.765 -14.902  0.00  0.00    -0.139 S 
ATOM     13  CE  UNL     1      31.338 -25.013 -13.914  0.00  0.00    +0.069 C 
ENDBRANCH  11  12
ENDBRANCH  10  11
ENDBRANCH   5  10
ENDBRANCH   2   5
BRANCH   3  14
ATOM     14  C   UNL     1      38.022 -26.305 -14.185  0.00  0.00    +0.097 C 
BRANCH  14  15
ATOM     15  C   UNL     1      39.262 -25.419 -14.161  0.00  0.00    +0.119 C 
BRANCH  15  17
ATOM     16  O   UNL     1      41.302 -26.742 -14.079  0.00  0.00    -0.250 OA
ATOM     17  C   UNL     1      40.471 -26.123 -14.730  0.00  0.00    +0.314 C 
BRANCH  17  18
ATOM     18  O   UNL     1      40.535 -25.989 -16.080  0.00  0.00    -0.480 OA
ATOM     19  H   UNL     1      41.176 -26.466 -16.569  0.00  0.00    +0.295 HD
ENDBRANCH  17  18
ENDBRANCH  15  17
ENDBRANCH  14  15
ENDBRANCH   3  14
TORSDOF 10
ENDMDL
MODEL 5
REMARK VINA RESULT:      -6.3      7.309     10.653
REMARK  Name = 448581
REMARK  10 active torsions:
REMARK  status: ('A' for Active; 'I' for Inactive)
REMARK    1  A    between atoms: N_2  and  CA_5
REMARK    2  A    between atoms: C_3  and  C_14
REMARK    3  A    between atoms: CA_5  and  C_7
REMARK    4  A    between atoms: CA_5  and  CB_10
REMARK    5  A    between atoms: C_7  and  O_8
REMARK    6  A    between atoms: CB_10  and  CG_11
REMARK    7  A    between atoms: CG_11  and  SD_12
REMARK    8  A    between atoms: C_14  and  C_15
REMARK    9  A    between atoms: C_15  and  C_17
REMARK   10  A    between atoms: C_17  and  O_18
REMARK                            x       y       z     vdW  Elec       q    Type
REMARK                         _______ _______ _______ _____ _____    ______ ____
ROOT
ATOM      1  O   UNL     1      36.126 -18.686 -21.071  0.00  0.00    -0.275 OA
ATOM      2  N   UNL     1      34.401 -18.371 -22.596  0.00  0.00    -0.297 N 
ATOM      3  C   ACE A   0      34.983 -18.912 -21.458  0.00  0.00    +0.223 C 
ATOM      4  H   UNL     1      33.475 -18.622 -22.812  0.00  0.00    +0.150 HD
ENDROOT
BRANCH   2   5
ATOM      5  CA  UNL     1      35.090 -17.455 -23.475  0.00  0.00    +0.172 C 
BRANCH   5   7
ATOM      6  OXT UNL     1      34.959 -16.802 -25.803  0.00  0.00    -0.248 OA
ATOM      7  C   UNL     1      34.670 -17.613 -24.929  0.00  0.00    +0.332 C 
BRANCH   7   8
ATOM      8  O   UNL     1      33.897 -18.697 -25.175  0.00  0.00    -0.479 OA
ATOM      9  H   UNL     1      33.520 -18.822 -26.023  0.00  0.00    +0.295 HD
ENDBRANCH   7   8
ENDBRANCH   5   7
BRANCH   5  10
ATOM     10  CB  UNL     1      34.951 -16.007 -22.985  0.00  0.00    +0.043 C 
BRANCH  10  11
ATOM     11  CG  UNL     1      33.522 -15.465 -23.072  0.00  0.00    +0.060 C 
BRANCH  11  12
ATOM     12  SD  UNL     1      32.943 -14.943 -21.431  0.00  0.00    -0.139 S 
ATOM     13  CE  UNL     1      34.449 -15.297 -20.497  0.00  0.00    +0.069 C 
ENDBRANCH  11  12
ENDBRANCH  10  11
ENDBRANCH   5  10
ENDBRANCH   2   5
BRANCH   3  14
ATOM     14  C   UNL     1      34.027 -19.841 -20.730  0.00  0.00    +0.097 C 
BRANCH  14  15
ATOM     15  C   UNL     1      34.755 -20.906 -19.917  0.00  0.00    +0.119 C 
BRANCH  15  17
ATOM     16  O   UNL     1      32.645 -21.811 -19.111  0.00  0.00    -0.250 OA
ATOM     17  C   UNL     1      33.815 -21.981 -19.424  0.00  0.00    +0.314 C 
BRANCH  17  18
ATOM     18  O   UNL     1      34.431 -23.191 -19.365  0.00  0.00    -0.480 OA
ATOM     19  H   UNL     1      35.007 -23.458 -20.054  0.00  0.00    +0.295 HD
ENDBRANCH  17  18
ENDBRANCH  15  17
ENDBRANCH  14  15
ENDBRANCH   3  14
TORSDOF 10
ENDMDL
MODEL 6
REMARK VINA RESULT:      -6.3     10.869     13.750
REMARK  Name = 448581
REMARK  10 active torsions:
REMARK  status: ('A' for Active; 'I' for Inactive)
REMARK    1  A    between atoms: N_2  and  CA_5
REMARK    2  A    between atoms: C_3  and  C_14
REMARK    3  A    between atoms: CA_5  and  C_7
REMARK    4  A    between atoms: CA_5  and  CB_10
REMARK    5  A    between atoms: C_7  and  O_8
REMARK    6  A    between atoms: CB_10  and  CG_11
REMARK    7  A    between atoms: CG_11  and  SD_12
REMARK    8  A    between atoms: C_14  and  C_15
REMARK    9  A    between atoms: C_15  and  C_17
REMARK   10  A    between atoms: C_17  and  O_18
REMARK                            x       y       z     vdW  Elec       q    Type
REMARK                         _______ _______ _______ _____ _____    ______ ____
ROOT
ATOM      1  O   UNL     1      32.407 -13.526 -22.585  0.00  0.00    -0.275 OA
ATOM      2  N   UNL     1      33.978 -14.042 -24.219  0.00  0.00    -0.297 N 
ATOM      3  C   ACE A   0      33.212 -13.180 -23.445  0.00  0.00    +0.223 C 
ATOM      4  H   UNL     1      34.593 -13.654 -24.881  0.00  0.00    +0.150 HD
ENDROOT
BRANCH   2   5
ATOM      5  CA  UNL     1      33.913 -15.480 -24.097  0.00  0.00    +0.172 C 
BRANCH   5   7
ATOM      6  OXT UNL     1      34.459 -17.301 -25.596  0.00  0.00    -0.248 OA
ATOM      7  C   UNL     1      33.975 -16.184 -25.444  0.00  0.00    +0.332 C 
BRANCH   7   8
ATOM      8  O   UNL     1      33.501 -15.453 -26.481  0.00  0.00    -0.479 OA
ATOM      9  H   UNL     1      33.820 -15.609 -27.348  0.00  0.00    +0.295 HD
ENDBRANCH   7   8
ENDBRANCH   5   7
BRANCH   5  10
ATOM     10  CB  UNL     1      34.979 -16.000 -23.121  0.00  0.00    +0.043 C 
BRANCH  10  11
ATOM     11  CG  UNL     1      34.395 -16.653 -21.867  0.00  0.00    +0.060 C 
BRANCH  11  12
ATOM     12  SD  UNL     1      35.407 -18.076 -21.366  0.00  0.00    -0.139 S 
ATOM     13  CE  UNL     1      34.684 -19.313 -22.469  0.00  0.00    +0.069 C 
ENDBRANCH  11  12
ENDBRANCH  10  11
ENDBRANCH   5  10
ENDBRANCH   2   5
BRANCH   3  14
ATOM     14  C   UNL     1      33.485 -11.727 -23.792  0.00  0.00    +0.097 C 
BRANCH  14  15
ATOM     15  C   UNL     1      33.968 -11.551 -25.227  0.00  0.00    +0.119 C 
BRANCH  15  17
ATOM     16  O   UNL     1      35.723 -10.287 -26.343  0.00  0.00    -0.250 OA
ATOM     17  C   UNL     1      35.098 -10.553 -25.325  0.00  0.00    +0.314 C 
BRANCH  17  18
ATOM     18  O   UNL     1      35.350  -9.968 -24.125  0.00  0.00    -0.480 OA
ATOM     19  H   UNL     1      35.622  -9.072 -24.088  0.00  0.00    +0.295 HD
ENDBRANCH  17  18
ENDBRANCH  15  17
ENDBRANCH  14  15
ENDBRANCH   3  14
TORSDOF 10
ENDMDL
MODEL 7
REMARK VINA RESULT:      -6.3      5.155      6.678
REMARK  Name = 448581
REMARK  10 active torsions:
REMARK  status: ('A' for Active; 'I' for Inactive)
REMARK    1  A    between atoms: N_2  and  CA_5
REMARK    2  A    between atoms: C_3  and  C_14
REMARK    3  A    between atoms: CA_5  and  C_7
REMARK    4  A    between atoms: CA_5  and  CB_10
REMARK    5  A    between atoms: C_7  and  O_8
REMARK    6  A    between atoms: CB_10  and  CG_11
REMARK    7  A    between atoms: CG_11  and  SD_12
REMARK    8  A    between atoms: C_14  and  C_15
REMARK    9  A    between atoms: C_15  and  C_17
REMARK   10  A    between atoms: C_17  and  O_18
REMARK                            x       y       z     vdW  Elec       q    Type
REMARK                         _______ _______ _______ _____ _____    ______ ____
ROOT
ATOM      1  O   UNL     1      31.405 -24.975 -14.681  0.00  0.00    -0.275 OA
ATOM      2  N   UNL     1      31.859 -23.118 -16.002  0.00  0.00    -0.297 N 
ATOM      3  C   ACE A   0      31.075 -23.895 -15.161  0.00  0.00    +0.223 C 
ATOM      4  H   UNL     1      31.493 -22.266 -16.330  0.00  0.00    +0.150 HD
ENDROOT
BRANCH   2   5
ATOM      5  CA  UNL     1      33.189 -23.503 -16.419  0.00  0.00    +0.172 C 
BRANCH   5   7
ATOM      6  OXT UNL     1      34.710 -22.931 -18.213  0.00  0.00    -0.248 OA
ATOM      7  C   UNL     1      33.564 -22.928 -17.777  0.00  0.00    +0.332 C 
BRANCH   7   8
ATOM      8  O   UNL     1      32.536 -22.358 -18.449  0.00  0.00    -0.479 OA
ATOM      9  H   UNL     1      32.703 -21.685 -19.078  0.00  0.00    +0.295 HD
ENDBRANCH   7   8
ENDBRANCH   5   7
BRANCH   5  10
ATOM     10  CB  UNL     1      34.226 -23.164 -15.339  0.00  0.00    +0.043 C 
BRANCH  10  11
ATOM     11  CG  UNL     1      34.865 -24.396 -14.695  0.00  0.00    +0.060 C 
BRANCH  11  12
ATOM     12  SD  UNL     1      36.648 -24.438 -15.043  0.00  0.00    -0.139 S 
ATOM     13  CE  UNL     1      36.859 -26.232 -15.104  0.00  0.00    +0.069 C 
ENDBRANCH  11  12
ENDBRANCH  10  11
ENDBRANCH   5  10
ENDBRANCH   2   5
BRANCH   3  14
ATOM     14  C   UNL     1      29.728 -23.244 -14.896  0.00  0.00    +0.097 C 
BRANCH  14  15
ATOM     15  C   UNL     1      28.596 -23.915 -15.666  0.00  0.00    +0.119 C 
BRANCH  15  17
ATOM     16  O   UNL     1      27.509 -23.578 -17.817  0.00  0.00    -0.250 OA
ATOM     17  C   UNL     1      28.263 -23.176 -16.941  0.00  0.00    +0.314 C 
BRANCH  17  18
ATOM     18  O   UNL     1      28.910 -21.984 -17.007  0.00  0.00    -0.480 OA
ATOM     19  H   UNL     1      28.506 -21.211 -16.665  0.00  0.00    +0.295 HD
ENDBRANCH  17  18
ENDBRANCH  15  17
ENDBRANCH  14  15
ENDBRANCH   3  14
TORSDOF 10
ENDMDL
MODEL 8
REMARK VINA RESULT:      -6.2      6.735     10.306
REMARK  Name = 448581
REMARK  10 active torsions:
REMARK  status: ('A' for Active; 'I' for Inactive)
REMARK    1  A    between atoms: N_2  and  CA_5
REMARK    2  A    between atoms: C_3  and  C_14
REMARK    3  A    between atoms: CA_5  and  C_7
REMARK    4  A    between atoms: CA_5  and  CB_10
REMARK    5  A    between atoms: C_7  and  O_8
REMARK    6  A    between atoms: CB_10  and  CG_11
REMARK    7  A    between atoms: CG_11  and  SD_12
REMARK    8  A    between atoms: C_14  and  C_15
REMARK    9  A    between atoms: C_15  and  C_17
REMARK   10  A    between atoms: C_17  and  O_18
REMARK                            x       y       z     vdW  Elec       q    Type
REMARK                         _______ _______ _______ _____ _____    ______ ____
ROOT
ATOM      1  O   UNL     1      36.429 -19.556 -20.755  0.00  0.00    -0.275 OA
ATOM      2  N   UNL     1      34.476 -18.355 -21.136  0.00  0.00    -0.297 N 
ATOM      3  C   ACE A   0      35.205 -19.468 -20.740  0.00  0.00    +0.223 C 
ATOM      4  H   UNL     1      33.494 -18.395 -21.083  0.00  0.00    +0.150 HD
ENDROOT
BRANCH   2   5
ATOM      5  CA  UNL     1      35.091 -17.141 -21.622  0.00  0.00    +0.172 C 
BRANCH   5   7
ATOM      6  OXT UNL     1      34.527 -17.875 -23.859  0.00  0.00    -0.248 OA
ATOM      7  C   UNL     1      35.031 -17.021 -23.137  0.00  0.00    +0.332 C 
BRANCH   7   8
ATOM      8  O   UNL     1      35.634 -15.916 -23.637  0.00  0.00    -0.479 OA
ATOM      9  H   UNL     1      36.497 -15.975 -23.996  0.00  0.00    +0.295 HD
ENDBRANCH   7   8
ENDBRANCH   5   7
BRANCH   5  10
ATOM     10  CB  UNL     1      34.508 -15.907 -20.919  0.00  0.00    +0.043 C 
BRANCH  10  11
ATOM     11  CG  UNL     1      33.014 -15.703 -21.178  0.00  0.00    +0.060 C 
BRANCH  11  12
ATOM     12  SD  UNL     1      32.644 -13.937 -21.390  0.00  0.00    -0.139 S 
ATOM     13  CE  UNL     1      32.765 -13.859 -23.191  0.00  0.00    +0.069 C 
ENDBRANCH  11  12
ENDBRANCH  10  11
ENDBRANCH   5  10
ENDBRANCH   2   5
BRANCH   3  14
ATOM     14  C   UNL     1      34.297 -20.595 -20.279  0.00  0.00    +0.097 C 
BRANCH  14  15
ATOM     15  C   UNL     1      35.038 -21.640 -19.454  0.00  0.00    +0.119 C 
BRANCH  15  17
ATOM     16  O   UNL     1      34.428 -23.114 -17.616  0.00  0.00    -0.250 OA
ATOM     17  C   UNL     1      34.099 -22.446 -18.587  0.00  0.00    +0.314 C 
BRANCH  17  18
ATOM     18  O   UNL     1      32.814 -22.342 -19.016  0.00  0.00    -0.480 OA
ATOM     19  H   UNL     1      32.107 -22.479 -18.417  0.00  0.00    +0.295 HD
ENDBRANCH  17  18
ENDBRANCH  15  17
ENDBRANCH  14  15
ENDBRANCH   3  14
TORSDOF 10
ENDMDL
MODEL 9
REMARK VINA RESULT:      -6.2      2.459      2.845
REMARK  Name = 448581
REMARK  10 active torsions:
REMARK  status: ('A' for Active; 'I' for Inactive)
REMARK    1  A    between atoms: N_2  and  CA_5
REMARK    2  A    between atoms: C_3  and  C_14
REMARK    3  A    between atoms: CA_5  and  C_7
REMARK    4  A    between atoms: CA_5  and  CB_10
REMARK    5  A    between atoms: C_7  and  O_8
REMARK    6  A    between atoms: CB_10  and  CG_11
REMARK    7  A    between atoms: CG_11  and  SD_12
REMARK    8  A    between atoms: C_14  and  C_15
REMARK    9  A    between atoms: C_15  and  C_17
REMARK   10  A    between atoms: C_17  and  O_18
REMARK                            x       y       z     vdW  Elec       q    Type
REMARK                         _______ _______ _______ _____ _____    ______ ____
ROOT
ATOM      1  O   UNL     1      33.924 -24.564 -13.587  0.00  0.00    -0.275 OA
ATOM      2  N   UNL     1      35.647 -24.514 -15.145  0.00  0.00    -0.297 N 
ATOM      3  C   ACE A   0      34.375 -24.220 -14.675  0.00  0.00    +0.223 C 
ATOM      4  H   UNL     1      35.905 -24.186 -16.036  0.00  0.00    +0.150 HD
ENDROOT
BRANCH   2   5
ATOM      5  CA  UNL     1      36.612 -25.278 -14.387  0.00  0.00    +0.172 C 
BRANCH   5   7
ATOM      6  OXT UNL     1      38.050 -27.178 -14.810  0.00  0.00    -0.248 OA
ATOM      7  C   UNL     1      37.033 -26.555 -15.097  0.00  0.00    +0.332 C 
BRANCH   7   8
ATOM      8  O   UNL     1      36.222 -26.924 -16.117  0.00  0.00    -0.479 OA
ATOM      9  H   UNL     1      35.374 -27.278 -15.937  0.00  0.00    +0.295 HD
ENDBRANCH   7   8
ENDBRANCH   5   7
BRANCH   5  10
ATOM     10  CB  UNL     1      37.814 -24.411 -13.990  0.00  0.00    +0.043 C 
BRANCH  10  11
ATOM     11  CG  UNL     1      38.058 -24.354 -12.480  0.00  0.00    +0.060 C 
BRANCH  11  12
ATOM     12  SD  UNL     1      36.991 -23.098 -11.715  0.00  0.00    -0.139 S 
ATOM     13  CE  UNL     1      35.881 -24.209 -10.820  0.00  0.00    +0.069 C 
ENDBRANCH  11  12
ENDBRANCH  10  11
ENDBRANCH   5  10
ENDBRANCH   2   5
BRANCH   3  14
ATOM     14  C   UNL     1      33.582 -23.407 -15.683  0.00  0.00    +0.097 C 
BRANCH  14  15
ATOM     15  C   UNL     1      34.368 -23.137 -16.961  0.00  0.00    +0.119 C 
BRANCH  15  17
ATOM     16  O   UNL     1      32.404 -22.389 -18.188  0.00  0.00    -0.250 OA
ATOM     17  C   UNL     1      33.463 -23.000 -18.164  0.00  0.00    +0.314 C 
BRANCH  17  18
ATOM     18  O   UNL     1      33.971 -23.648 -19.244  0.00  0.00    -0.480 OA
ATOM     19  H   UNL     1      34.766 -23.349 -19.639  0.00  0.00    +0.295 HD
ENDBRANCH  17  18
ENDBRANCH  15  17
ENDBRANCH  14  15
ENDBRANCH   3  14
TORSDOF 10
ENDMDL
