MODEL 1
REMARK VINA RESULT:      -5.7      0.000      0.000
REMARK  Name = 5801
REMARK  2 active torsions:
REMARK  status: ('A' for Active; 'I' for Inactive)
REMARK    1  A    between atoms: C_1  and  N_7
REMARK    2  A    between atoms: C_2  and  O_10
REMARK                            x       y       z     vdW  Elec       q    Type
REMARK                         _______ _______ _______ _____ _____    ______ ____
ROOT
ATOM      1  C   UNL     1      33.519 -21.296 -19.550  0.00  0.00    +0.076 C 
ATOM      2  C   UNL     1      34.904 -21.448 -19.509  0.00  0.00    +0.146 C 
ATOM      3  C   UNL     1      32.948 -20.313 -20.359  0.00  0.00    +0.017 C 
ATOM      4  C   UNL     1      35.720 -20.617 -20.277  0.00  0.00    +0.038 C 
ATOM      5  C   UNL     1      33.764 -19.482 -21.127  0.00  0.00    +0.001 C 
ATOM      6  C   UNL     1      35.150 -19.635 -21.086  0.00  0.00    +0.003 C 
ENDROOT
BRANCH   1   7
ATOM      7  N   UNL     1      32.682 -22.130 -18.778  0.00  0.00    -0.355 N 
ATOM      8  H   UNL     1      32.705 -23.106 -18.906  0.00  0.00    +0.142 HD
ATOM      9  H   UNL     1      32.073 -21.735 -18.111  0.00  0.00    +0.142 HD
ENDBRANCH   1   7
BRANCH   2  10
ATOM     10  O   UNL     1      35.482 -22.402 -18.725  0.00  0.00    -0.504 OA
ATOM     11  H   UNL     1      36.377 -22.313 -18.462  0.00  0.00    +0.292 HD
ENDBRANCH   2  10
TORSDOF 2
ENDMDL
MODEL 2
REMARK VINA RESULT:      -5.4      1.625      2.391
REMARK  Name = 5801
REMARK  2 active torsions:
REMARK  status: ('A' for Active; 'I' for Inactive)
REMARK    1  A    between atoms: C_1  and  N_7
REMARK    2  A    between atoms: C_2  and  O_10
REMARK                            x       y       z     vdW  Elec       q    Type
REMARK                         _______ _______ _______ _____ _____    ______ ____
ROOT
ATOM      1  C   UNL     1      33.942 -21.599 -19.380  0.00  0.00    +0.076 C 
ATOM      2  C   UNL     1      33.684 -20.570 -20.284  0.00  0.00    +0.146 C 
ATOM      3  C   UNL     1      35.257 -21.908 -19.031  0.00  0.00    +0.017 C 
ATOM      4  C   UNL     1      34.740 -19.849 -20.841  0.00  0.00    +0.038 C 
ATOM      5  C   UNL     1      36.313 -21.187 -19.587  0.00  0.00    +0.001 C 
ATOM      6  C   UNL     1      36.055 -20.158 -20.492  0.00  0.00    +0.003 C 
ENDROOT
BRANCH   1   7
ATOM      7  N   UNL     1      32.882 -22.337 -18.809  0.00  0.00    -0.355 N 
ATOM      8  H   UNL     1      33.030 -23.264 -18.513  0.00  0.00    +0.142 HD
ATOM      9  H   UNL     1      31.993 -21.924 -18.708  0.00  0.00    +0.142 HD
ENDBRANCH   1   7
BRANCH   2  10
ATOM     10  O   UNL     1      32.406 -20.252 -20.639  0.00  0.00    -0.504 OA
ATOM     11  H   UNL     1      32.019 -20.644 -21.397  0.00  0.00    +0.292 HD
ENDBRANCH   2  10
TORSDOF 2
ENDMDL
MODEL 3
REMARK VINA RESULT:      -5.4      1.525      2.203
REMARK  Name = 5801
REMARK  2 active torsions:
REMARK  status: ('A' for Active; 'I' for Inactive)
REMARK    1  A    between atoms: C_1  and  N_7
REMARK    2  A    between atoms: C_2  and  O_10
REMARK                            x       y       z     vdW  Elec       q    Type
REMARK                         _______ _______ _______ _____ _____    ______ ____
ROOT
ATOM      1  C   UNL     1      33.739 -20.563 -20.283  0.00  0.00    +0.076 C 
ATOM      2  C   UNL     1      33.887 -21.620 -19.385  0.00  0.00    +0.146 C 
ATOM      3  C   UNL     1      34.864 -19.892 -20.763  0.00  0.00    +0.017 C 
ATOM      4  C   UNL     1      35.160 -22.007 -18.968  0.00  0.00    +0.038 C 
ATOM      5  C   UNL     1      36.137 -20.279 -20.345  0.00  0.00    +0.001 C 
ATOM      6  C   UNL     1      36.285 -21.336 -19.448  0.00  0.00    +0.003 C 
ENDROOT
BRANCH   1   7
ATOM      7  N   UNL     1      32.456 -20.161 -20.714  0.00  0.00    -0.355 N 
ATOM      8  H   UNL     1      32.203 -20.254 -21.661  0.00  0.00    +0.142 HD
ATOM      9  H   UNL     1      31.815 -19.786 -20.067  0.00  0.00    +0.142 HD
ENDBRANCH   1   7
BRANCH   2  10
ATOM     10  O   UNL     1      32.800 -22.288 -18.904  0.00  0.00    -0.504 OA
ATOM     11  H   UNL     1      32.891 -23.168 -18.596  0.00  0.00    +0.292 HD
ENDBRANCH   2  10
TORSDOF 2
ENDMDL
MODEL 4
REMARK VINA RESULT:      -5.4      1.420      2.220
REMARK  Name = 5801
REMARK  2 active torsions:
REMARK  status: ('A' for Active; 'I' for Inactive)
REMARK    1  A    between atoms: C_1  and  N_7
REMARK    2  A    between atoms: C_2  and  O_10
REMARK                            x       y       z     vdW  Elec       q    Type
REMARK                         _______ _______ _______ _____ _____    ______ ____
ROOT
ATOM      1  C   UNL     1      34.859 -21.259 -19.566  0.00  0.00    +0.076 C 
ATOM      2  C   UNL     1      33.472 -21.159 -19.678  0.00  0.00    +0.146 C 
ATOM      3  C   UNL     1      35.682 -20.437 -20.335  0.00  0.00    +0.017 C 
ATOM      4  C   UNL     1      32.909 -20.236 -20.559  0.00  0.00    +0.038 C 
ATOM      5  C   UNL     1      35.119 -19.514 -21.216  0.00  0.00    +0.001 C 
ATOM      6  C   UNL     1      33.732 -19.414 -21.328  0.00  0.00    +0.003 C 
ENDROOT
BRANCH   1   7
ATOM      7  N   UNL     1      35.442 -22.189 -18.678  0.00  0.00    -0.355 N 
ATOM      8  H   UNL     1      34.894 -22.614 -17.979  0.00  0.00    +0.142 HD
ATOM      9  H   UNL     1      36.398 -22.411 -18.757  0.00  0.00    +0.142 HD
ENDBRANCH   1   7
BRANCH   2  10
ATOM     10  O   UNL     1      32.650 -21.953 -18.936  0.00  0.00    -0.504 OA
ATOM     11  H   UNL     1      31.831 -21.619 -18.626  0.00  0.00    +0.292 HD
ENDBRANCH   2  10
TORSDOF 2
ENDMDL
MODEL 5
REMARK VINA RESULT:      -5.2      2.115      2.710
REMARK  Name = 5801
REMARK  2 active torsions:
REMARK  status: ('A' for Active; 'I' for Inactive)
REMARK    1  A    between atoms: C_1  and  N_7
REMARK    2  A    between atoms: C_2  and  O_10
REMARK                            x       y       z     vdW  Elec       q    Type
REMARK                         _______ _______ _______ _____ _____    ______ ____
ROOT
ATOM      1  C   UNL     1      35.207 -19.659 -20.840  0.00  0.00    +0.076 C 
ATOM      2  C   UNL     1      35.582 -20.784 -20.106  0.00  0.00    +0.146 C 
ATOM      3  C   UNL     1      33.858 -19.339 -20.988  0.00  0.00    +0.017 C 
ATOM      4  C   UNL     1      34.606 -21.590 -19.520  0.00  0.00    +0.038 C 
ATOM      5  C   UNL     1      32.882 -20.145 -20.402  0.00  0.00    +0.001 C 
ATOM      6  C   UNL     1      33.257 -21.271 -19.668  0.00  0.00    +0.003 C 
ENDROOT
BRANCH   1   7
ATOM      7  N   UNL     1      36.184 -18.834 -21.439  0.00  0.00    -0.355 N 
ATOM      8  H   UNL     1      36.113 -17.854 -21.368  0.00  0.00    +0.142 HD
ATOM      9  H   UNL     1      36.937 -19.238 -21.928  0.00  0.00    +0.142 HD
ENDBRANCH   1   7
BRANCH   2  10
ATOM     10  O   UNL     1      36.896 -21.113 -19.950  0.00  0.00    -0.504 OA
ATOM     11  H   UNL     1      37.131 -21.969 -19.650  0.00  0.00    +0.292 HD
ENDBRANCH   2  10
TORSDOF 2
ENDMDL
MODEL 6
REMARK VINA RESULT:      -5.1      5.583      6.406
REMARK  Name = 5801
REMARK  2 active torsions:
REMARK  status: ('A' for Active; 'I' for Inactive)
REMARK    1  A    between atoms: C_1  and  N_7
REMARK    2  A    between atoms: C_2  and  O_10
REMARK                            x       y       z     vdW  Elec       q    Type
REMARK                         _______ _______ _______ _____ _____    ______ ____
ROOT
ATOM      1  C   UNL     1      34.690 -16.341 -23.674  0.00  0.00    +0.076 C 
ATOM      2  C   UNL     1      34.434 -16.908 -24.921  0.00  0.00    +0.146 C 
ATOM      3  C   UNL     1      35.034 -17.155 -22.594  0.00  0.00    +0.017 C 
ATOM      4  C   UNL     1      34.521 -18.290 -25.090  0.00  0.00    +0.038 C 
ATOM      5  C   UNL     1      35.121 -18.536 -22.763  0.00  0.00    +0.001 C 
ATOM      6  C   UNL     1      34.864 -19.104 -24.012  0.00  0.00    +0.003 C 
ENDROOT
BRANCH   1   7
ATOM      7  N   UNL     1      34.605 -14.944 -23.489  0.00  0.00    -0.355 N 
ATOM      8  H   UNL     1      34.171 -14.579 -22.684  0.00  0.00    +0.142 HD
ATOM      9  H   UNL     1      34.980 -14.334 -24.166  0.00  0.00    +0.142 HD
ENDBRANCH   1   7
BRANCH   2  10
ATOM     10  O   UNL     1      34.096 -16.130 -25.989  0.00  0.00    -0.504 OA
ATOM     11  H   UNL     1      34.058 -15.198 -25.896  0.00  0.00    +0.292 HD
ENDBRANCH   2  10
TORSDOF 2
ENDMDL
MODEL 7
REMARK VINA RESULT:      -5.1      2.727      3.611
REMARK  Name = 5801
REMARK  2 active torsions:
REMARK  status: ('A' for Active; 'I' for Inactive)
REMARK    1  A    between atoms: C_1  and  N_7
REMARK    2  A    between atoms: C_2  and  O_10
REMARK                            x       y       z     vdW  Elec       q    Type
REMARK                         _______ _______ _______ _____ _____    ______ ____
ROOT
ATOM      1  C   UNL     1      35.592 -19.837 -20.631  0.00  0.00    +0.076 C 
ATOM      2  C   UNL     1      34.291 -19.424 -20.915  0.00  0.00    +0.146 C 
ATOM      3  C   UNL     1      35.810 -20.996 -19.887  0.00  0.00    +0.017 C 
ATOM      4  C   UNL     1      33.207 -20.169 -20.455  0.00  0.00    +0.038 C 
ATOM      5  C   UNL     1      34.725 -21.742 -19.426  0.00  0.00    +0.001 C 
ATOM      6  C   UNL     1      33.423 -21.328 -19.710  0.00  0.00    +0.003 C 
ENDROOT
BRANCH   1   7
ATOM      7  N   UNL     1      36.700 -19.092 -21.091  0.00  0.00    -0.355 N 
ATOM      8  H   UNL     1      37.575 -19.528 -21.204  0.00  0.00    +0.142 HD
ATOM      9  H   UNL     1      36.597 -18.134 -21.298  0.00  0.00    +0.142 HD
ENDBRANCH   1   7
BRANCH   2  10
ATOM     10  O   UNL     1      34.058 -18.293 -21.642  0.00  0.00    -0.504 OA
ATOM     11  H   UNL     1      33.841 -18.358 -22.551  0.00  0.00    +0.292 HD
ENDBRANCH   2  10
TORSDOF 2
ENDMDL
MODEL 8
REMARK VINA RESULT:      -5.1      4.616      5.418
REMARK  Name = 5801
REMARK  2 active torsions:
REMARK  status: ('A' for Active; 'I' for Inactive)
REMARK    1  A    between atoms: C_1  and  N_7
REMARK    2  A    between atoms: C_2  and  O_10
REMARK                            x       y       z     vdW  Elec       q    Type
REMARK                         _______ _______ _______ _____ _____    ______ ____
ROOT
ATOM      1  C   UNL     1      35.057 -17.642 -22.305  0.00  0.00    +0.076 C 
ATOM      2  C   UNL     1      34.944 -16.569 -23.188  0.00  0.00    +0.146 C 
ATOM      3  C   UNL     1      34.949 -18.950 -22.777  0.00  0.00    +0.017 C 
ATOM      4  C   UNL     1      34.724 -16.804 -24.545  0.00  0.00    +0.038 C 
ATOM      5  C   UNL     1      34.729 -19.185 -24.134  0.00  0.00    +0.001 C 
ATOM      6  C   UNL     1      34.616 -18.111 -25.019  0.00  0.00    +0.003 C 
ENDROOT
BRANCH   1   7
ATOM      7  N   UNL     1      35.279 -17.419 -20.929  0.00  0.00    -0.355 N 
ATOM      8  H   UNL     1      35.788 -16.629 -20.633  0.00  0.00    +0.142 HD
ATOM      9  H   UNL     1      34.927 -18.054 -20.263  0.00  0.00    +0.142 HD
ENDBRANCH   1   7
BRANCH   2  10
ATOM     10  O   UNL     1      35.046 -15.283 -22.746  0.00  0.00    -0.504 OA
ATOM     11  H   UNL     1      34.294 -14.724 -22.756  0.00  0.00    +0.292 HD
ENDBRANCH   2  10
TORSDOF 2
ENDMDL
MODEL 9
REMARK VINA RESULT:      -5.0      4.664      5.462
REMARK  Name = 5801
REMARK  2 active torsions:
REMARK  status: ('A' for Active; 'I' for Inactive)
REMARK    1  A    between atoms: C_1  and  N_7
REMARK    2  A    between atoms: C_2  and  O_10
REMARK                            x       y       z     vdW  Elec       q    Type
REMARK                         _______ _______ _______ _____ _____    ______ ____
ROOT
ATOM      1  C   UNL     1      35.233 -16.863 -22.740  0.00  0.00    +0.076 C 
ATOM      2  C   UNL     1      35.104 -16.922 -21.353  0.00  0.00    +0.146 C 
ATOM      3  C   UNL     1      34.838 -15.717 -23.430  0.00  0.00    +0.017 C 
ATOM      4  C   UNL     1      34.580 -15.835 -20.655  0.00  0.00    +0.038 C 
ATOM      5  C   UNL     1      34.314 -14.629 -22.732  0.00  0.00    +0.001 C 
ATOM      6  C   UNL     1      34.185 -14.688 -21.344  0.00  0.00    +0.003 C 
ENDROOT
BRANCH   1   7
ATOM      7  N   UNL     1      35.762 -17.956 -23.460  0.00  0.00    -0.355 N 
ATOM      8  H   UNL     1      35.974 -17.861 -24.417  0.00  0.00    +0.142 HD
ATOM      9  H   UNL     1      35.919 -18.816 -23.004  0.00  0.00    +0.142 HD
ENDBRANCH   1   7
BRANCH   2  10
ATOM     10  O   UNL     1      35.484 -18.033 -20.661  0.00  0.00    -0.504 OA
ATOM     11  H   UNL     1      35.382 -18.882 -21.045  0.00  0.00    +0.292 HD
ENDBRANCH   2  10
TORSDOF 2
ENDMDL
