MODEL 1
REMARK VINA RESULT:      -8.5      0.000      0.000
REMARK  Name = 447199
REMARK  5 active torsions:
REMARK  status: ('A' for Active; 'I' for Inactive)
REMARK    1  A    between atoms: C_6  and  C_16
REMARK    2  A    between atoms: C_15  and  O_19
REMARK    3  A    between atoms: C_17  and  O_21
REMARK    4  A    between atoms: C_18  and  C_23
REMARK    5  A    between atoms: C_23  and  O_24
REMARK                            x       y       z     vdW  Elec       q    Type
REMARK                         _______ _______ _______ _____ _____    ______ ____
ROOT
ATOM      1  N   UNL     1      36.291 -22.992 -15.845  0.00  0.00    -0.251 N 
ATOM      2  N   UNL     1      35.617 -22.864 -17.004  0.00  0.00    -0.181 NA
ATOM      3  N   UNL     1      33.090 -23.447 -14.567  0.00  0.00    -0.245 NA
ATOM      4  N   UNL     1      31.992 -23.187 -16.785  0.00  0.00    -0.229 NA
ATOM      5  N   UNL     1      33.194 -22.769 -18.836  0.00  0.00    -0.342 N 
ATOM      6  C   UNL     1      35.507 -23.225 -14.758  0.00  0.00    +0.158 C 
ATOM      7  C   UNL     1      34.238 -23.248 -15.250  0.00  0.00    +0.099 C 
ATOM      8  C   UNL     1      34.325 -23.020 -16.666  0.00  0.00    +0.144 C 
ATOM      9  C   UNL     1      33.165 -22.990 -17.449  0.00  0.00    +0.143 C 
ATOM     10  C   UNL     1      32.031 -23.396 -15.429  0.00  0.00    +0.252 C 
ATOM     11  H   UNL     1      37.273 -22.923 -15.789  0.00  0.00    +0.169 HD
ATOM     12  H   UNL     1      32.356 -22.756 -19.350  0.00  0.00    +0.144 HD
ATOM     13  H   UNL     1      34.055 -22.630 -19.293  0.00  0.00    +0.144 HD
ENDROOT
BRANCH   6  16
ATOM     14  O   UNL     1      37.504 -23.199 -13.420  0.00  0.00    -0.349 OA
ATOM     15  C   UNL     1      35.868 -24.791 -12.794  0.00  0.00    +0.169 C 
ATOM     16  C   UNL     1      36.077 -23.399 -13.370  0.00  0.00    +0.169 C 
ATOM     17  C   UNL     1      37.040 -24.917 -11.838  0.00  0.00    +0.169 C 
ATOM     18  C   UNL     1      38.150 -24.184 -12.581  0.00  0.00    +0.174 C 
BRANCH  15  19
ATOM     19  O   UNL     1      34.616 -24.913 -12.149  0.00  0.00    -0.379 OA
ATOM     20  H   UNL     1      34.542 -25.795 -11.753  0.00  0.00    +0.211 HD
ENDBRANCH  15  19
BRANCH  17  21
ATOM     21  O   UNL     1      36.768 -24.241 -10.610  0.00  0.00    -0.379 OA
ATOM     22  H   UNL     1      37.077 -24.784  -9.868  0.00  0.00    +0.211 HD
ENDBRANCH  17  21
BRANCH  18  23
ATOM     23  C   UNL     1      38.975 -25.104 -13.473  0.00  0.00    +0.169 C 
BRANCH  23  24
ATOM     24  O   UNL     1      39.038 -24.540 -14.771  0.00  0.00    -0.379 OA
ATOM     25  H   UNL     1      39.961 -24.514 -15.067  0.00  0.00    +0.211 HD
ENDBRANCH  23  24
ENDBRANCH  18  23
ENDBRANCH   6  16
TORSDOF 5
ENDMDL
MODEL 2
REMARK VINA RESULT:      -8.5      7.136      9.591
REMARK  Name = 447199
REMARK  5 active torsions:
REMARK  status: ('A' for Active; 'I' for Inactive)
REMARK    1  A    between atoms: C_6  and  C_16
REMARK    2  A    between atoms: C_15  and  O_19
REMARK    3  A    between atoms: C_17  and  O_21
REMARK    4  A    between atoms: C_18  and  C_23
REMARK    5  A    between atoms: C_23  and  O_24
REMARK                            x       y       z     vdW  Elec       q    Type
REMARK                         _______ _______ _______ _____ _____    ______ ____
ROOT
ATOM      1  N   UNL     1      33.186 -19.826 -20.934  0.00  0.00    -0.251 N 
ATOM      2  N   UNL     1      32.854 -20.909 -20.205  0.00  0.00    -0.181 NA
ATOM      3  N   UNL     1      36.338 -20.476 -19.617  0.00  0.00    -0.245 NA
ATOM      4  N   UNL     1      35.568 -22.459 -18.326  0.00  0.00    -0.229 NA
ATOM      5  N   UNL     1      33.290 -23.255 -18.323  0.00  0.00    -0.342 N 
ATOM      6  C   UNL     1      34.498 -19.472 -20.856  0.00  0.00    +0.158 C 
ATOM      7  C   UNL     1      35.051 -20.391 -20.018  0.00  0.00    +0.099 C 
ATOM      8  C   UNL     1      34.003 -21.289 -19.618  0.00  0.00    +0.144 C 
ATOM      9  C   UNL     1      34.277 -22.351 -18.746  0.00  0.00    +0.143 C 
ATOM     10  C   UNL     1      36.486 -21.541 -18.775  0.00  0.00    +0.252 C 
ATOM     11  H   UNL     1      32.532 -19.330 -21.479  0.00  0.00    +0.169 HD
ATOM     12  H   UNL     1      33.524 -23.988 -17.710  0.00  0.00    +0.144 HD
ATOM     13  H   UNL     1      32.363 -23.156 -18.642  0.00  0.00    +0.144 HD
ENDROOT
BRANCH   6  16
ATOM     14  O   UNL     1      35.017 -17.128 -20.746  0.00  0.00    -0.349 OA
ATOM     15  C   UNL     1      34.274 -17.918 -22.849  0.00  0.00    +0.169 C 
ATOM     16  C   UNL     1      35.063 -18.287 -21.602  0.00  0.00    +0.169 C 
ATOM     17  C   UNL     1      34.560 -16.433 -22.976  0.00  0.00    +0.169 C 
ATOM     18  C   UNL     1      34.601 -15.981 -21.521  0.00  0.00    +0.174 C 
BRANCH  15  19
ATOM     19  O   UNL     1      34.695 -18.658 -23.978  0.00  0.00    -0.379 OA
ATOM     20  H   UNL     1      33.945 -18.782 -24.580  0.00  0.00    +0.211 HD
ENDBRANCH  15  19
BRANCH  17  21
ATOM     21  O   UNL     1      35.836 -16.211 -23.577  0.00  0.00    -0.379 OA
ATOM     22  H   UNL     1      35.808 -15.397 -24.103  0.00  0.00    +0.211 HD
ENDBRANCH  17  21
BRANCH  18  23
ATOM     23  C   UNL     1      33.244 -15.521 -21.004  0.00  0.00    +0.169 C 
BRANCH  23  24
ATOM     24  O   UNL     1      32.504 -14.986 -22.087  0.00  0.00    -0.379 OA
ATOM     25  H   UNL     1      32.668 -15.515 -22.883  0.00  0.00    +0.211 HD
ENDBRANCH  23  24
ENDBRANCH  18  23
ENDBRANCH   6  16
TORSDOF 5
ENDMDL
MODEL 3
REMARK VINA RESULT:      -8.3      1.625      2.574
REMARK  Name = 447199
REMARK  5 active torsions:
REMARK  status: ('A' for Active; 'I' for Inactive)
REMARK    1  A    between atoms: C_6  and  C_16
REMARK    2  A    between atoms: C_15  and  O_19
REMARK    3  A    between atoms: C_17  and  O_21
REMARK    4  A    between atoms: C_18  and  C_23
REMARK    5  A    between atoms: C_23  and  O_24
REMARK                            x       y       z     vdW  Elec       q    Type
REMARK                         _______ _______ _______ _____ _____    ______ ____
ROOT
ATOM      1  N   UNL     1      33.767 -23.639 -14.073  0.00  0.00    -0.251 N 
ATOM      2  N   UNL     1      32.548 -23.422 -14.602  0.00  0.00    -0.181 NA
ATOM      3  N   UNL     1      34.791 -22.989 -17.331  0.00  0.00    -0.245 NA
ATOM      4  N   UNL     1      32.474 -22.616 -18.158  0.00  0.00    -0.229 NA
ATOM      5  N   UNL     1      30.511 -22.771 -16.762  0.00  0.00    -0.342 N 
ATOM      6  C   UNL     1      34.796 -23.524 -14.956  0.00  0.00    +0.158 C 
ATOM      7  C   UNL     1      34.199 -23.210 -16.138  0.00  0.00    +0.099 C 
ATOM      8  C   UNL     1      32.783 -23.150 -15.898  0.00  0.00    +0.144 C 
ATOM      9  C   UNL     1      31.902 -22.843 -16.942  0.00  0.00    +0.143 C 
ATOM     10  C   UNL     1      33.840 -22.702 -18.268  0.00  0.00    +0.252 C 
ATOM     11  H   UNL     1      33.903 -23.864 -13.123  0.00  0.00    +0.169 HD
ATOM     12  H   UNL     1      29.926 -22.553 -17.522  0.00  0.00    +0.144 HD
ATOM     13  H   UNL     1      30.122 -22.940 -15.873  0.00  0.00    +0.144 HD
ENDROOT
BRANCH   6  16
ATOM     14  O   UNL     1      36.855 -24.650 -15.475  0.00  0.00    -0.349 OA
ATOM     15  C   UNL     1      36.403 -24.345 -13.172  0.00  0.00    +0.169 C 
ATOM     16  C   UNL     1      36.236 -23.729 -14.553  0.00  0.00    +0.169 C 
ATOM     17  C   UNL     1      37.736 -25.057 -13.302  0.00  0.00    +0.169 C 
ATOM     18  C   UNL     1      37.701 -25.562 -14.739  0.00  0.00    +0.174 C 
BRANCH  15  19
ATOM     19  O   UNL     1      36.399 -23.365 -12.154  0.00  0.00    -0.379 OA
ATOM     20  H   UNL     1      37.232 -22.870 -12.179  0.00  0.00    +0.211 HD
ENDBRANCH  15  19
BRANCH  17  21
ATOM     21  O   UNL     1      38.819 -24.139 -13.150  0.00  0.00    -0.379 OA
ATOM     22  H   UNL     1      38.957 -23.661 -13.983  0.00  0.00    +0.211 HD
ENDBRANCH  17  21
BRANCH  18  23
ATOM     23  C   UNL     1      37.114 -26.962 -14.862  0.00  0.00    +0.169 C 
BRANCH  23  24
ATOM     24  O   UNL     1      36.774 -27.194 -16.217  0.00  0.00    -0.379 OA
ATOM     25  H   UNL     1      35.843 -27.461 -16.275  0.00  0.00    +0.211 HD
ENDBRANCH  23  24
ENDBRANCH  18  23
ENDBRANCH   6  16
TORSDOF 5
ENDMDL
MODEL 4
REMARK VINA RESULT:      -8.3      1.699      3.248
REMARK  Name = 447199
REMARK  5 active torsions:
REMARK  status: ('A' for Active; 'I' for Inactive)
REMARK    1  A    between atoms: C_6  and  C_16
REMARK    2  A    between atoms: C_15  and  O_19
REMARK    3  A    between atoms: C_17  and  O_21
REMARK    4  A    between atoms: C_18  and  C_23
REMARK    5  A    between atoms: C_23  and  O_24
REMARK                            x       y       z     vdW  Elec       q    Type
REMARK                         _______ _______ _______ _____ _____    ______ ____
ROOT
ATOM      1  N   UNL     1      34.517 -24.667 -13.603  0.00  0.00    -0.251 N 
ATOM      2  N   UNL     1      33.268 -24.166 -13.556  0.00  0.00    -0.181 NA
ATOM      3  N   UNL     1      34.260 -23.758 -16.949  0.00  0.00    -0.245 NA
ATOM      4  N   UNL     1      31.949 -22.869 -16.699  0.00  0.00    -0.229 NA
ATOM      5  N   UNL     1      30.731 -22.871 -14.615  0.00  0.00    -0.342 N 
ATOM      6  C   UNL     1      35.102 -24.612 -14.830  0.00  0.00    +0.158 C 
ATOM      7  C   UNL     1      34.165 -24.035 -15.631  0.00  0.00    +0.099 C 
ATOM      8  C   UNL     1      33.016 -23.761 -14.813  0.00  0.00    +0.144 C 
ATOM      9  C   UNL     1      31.879 -23.160 -15.369  0.00  0.00    +0.143 C 
ATOM     10  C   UNL     1      33.100 -23.178 -17.380  0.00  0.00    +0.252 C 
ATOM     11  H   UNL     1      34.971 -25.043 -12.813  0.00  0.00    +0.169 HD
ATOM     12  H   UNL     1      29.953 -22.448 -15.044  0.00  0.00    +0.144 HD
ATOM     13  H   UNL     1      30.705 -23.090 -13.655  0.00  0.00    +0.144 HD
ENDROOT
BRANCH   6  16
ATOM     14  O   UNL     1      36.790 -26.184 -14.152  0.00  0.00    -0.349 OA
ATOM     15  C   UNL     1      37.581 -24.074 -14.876  0.00  0.00    +0.169 C 
ATOM     16  C   UNL     1      36.500 -25.123 -15.085  0.00  0.00    +0.169 C 
ATOM     17  C   UNL     1      38.780 -24.926 -14.502  0.00  0.00    +0.169 C 
ATOM     18  C   UNL     1      38.148 -26.040 -13.676  0.00  0.00    +0.174 C 
BRANCH  15  19
ATOM     19  O   UNL     1      37.798 -23.299 -16.038  0.00  0.00    -0.379 OA
ATOM     20  H   UNL     1      38.384 -22.556 -15.826  0.00  0.00    +0.211 HD
ENDBRANCH  15  19
BRANCH  17  21
ATOM     21  O   UNL     1      39.388 -25.487 -15.666  0.00  0.00    -0.379 OA
ATOM     22  H   UNL     1      38.823 -26.193 -16.016  0.00  0.00    +0.211 HD
ENDBRANCH  17  21
BRANCH  18  23
ATOM     23  C   UNL     1      38.100 -25.722 -12.188  0.00  0.00    +0.169 C 
BRANCH  23  24
ATOM     24  O   UNL     1      36.791 -25.978 -11.710  0.00  0.00    -0.379 OA
ATOM     25  H   UNL     1      36.661 -26.935 -11.623  0.00  0.00    +0.211 HD
ENDBRANCH  23  24
ENDBRANCH  18  23
ENDBRANCH   6  16
TORSDOF 5
ENDMDL
MODEL 5
REMARK VINA RESULT:      -8.3      1.768      2.116
REMARK  Name = 447199
REMARK  5 active torsions:
REMARK  status: ('A' for Active; 'I' for Inactive)
REMARK    1  A    between atoms: C_6  and  C_16
REMARK    2  A    between atoms: C_15  and  O_19
REMARK    3  A    between atoms: C_17  and  O_21
REMARK    4  A    between atoms: C_18  and  C_23
REMARK    5  A    between atoms: C_23  and  O_24
REMARK                            x       y       z     vdW  Elec       q    Type
REMARK                         _______ _______ _______ _____ _____    ______ ____
ROOT
ATOM      1  N   UNL     1      37.446 -22.236 -16.225  0.00  0.00    -0.251 N 
ATOM      2  N   UNL     1      37.180 -21.592 -17.378  0.00  0.00    -0.181 NA
ATOM      3  N   UNL     1      34.253 -23.514 -16.737  0.00  0.00    -0.245 NA
ATOM      4  N   UNL     1      33.913 -22.256 -18.857  0.00  0.00    -0.229 NA
ATOM      5  N   UNL     1      35.559 -20.772 -19.814  0.00  0.00    -0.342 N 
ATOM      6  C   UNL     1      36.444 -23.044 -15.783  0.00  0.00    +0.158 C 
ATOM      7  C   UNL     1      35.462 -22.912 -16.717  0.00  0.00    +0.099 C 
ATOM      8  C   UNL     1      35.942 -21.995 -17.714  0.00  0.00    +0.144 C 
ATOM      9  C   UNL     1      35.139 -21.662 -18.813  0.00  0.00    +0.143 C 
ATOM     10  C   UNL     1      33.562 -23.116 -17.846  0.00  0.00    +0.252 C 
ATOM     11  H   UNL     1      38.297 -22.130 -15.740  0.00  0.00    +0.169 HD
ATOM     12  H   UNL     1      34.964 -20.565 -20.570  0.00  0.00    +0.144 HD
ATOM     13  H   UNL     1      36.450 -20.356 -19.759  0.00  0.00    +0.144 HD
ENDROOT
BRANCH   6  16
ATOM     14  O   UNL     1      37.871 -23.669 -13.953  0.00  0.00    -0.349 OA
ATOM     15  C   UNL     1      36.387 -25.346 -14.720  0.00  0.00    +0.169 C 
ATOM     16  C   UNL     1      36.553 -23.849 -14.511  0.00  0.00    +0.169 C 
ATOM     17  C   UNL     1      37.191 -25.917 -13.566  0.00  0.00    +0.169 C 
ATOM     18  C   UNL     1      38.355 -24.939 -13.460  0.00  0.00    +0.174 C 
BRANCH  15  19
ATOM     19  O   UNL     1      35.029 -25.736 -14.690  0.00  0.00    -0.379 OA
ATOM     20  H   UNL     1      34.880 -26.332 -13.940  0.00  0.00    +0.211 HD
ENDBRANCH  15  19
BRANCH  17  21
ATOM     21  O   UNL     1      36.435 -25.885 -12.355  0.00  0.00    -0.379 OA
ATOM     22  H   UNL     1      36.805 -26.523 -11.726  0.00  0.00    +0.211 HD
ENDBRANCH  17  21
BRANCH  18  23
ATOM     23  C   UNL     1      39.555 -25.351 -14.301  0.00  0.00    +0.169 C 
BRANCH  23  24
ATOM     24  O   UNL     1      39.676 -24.453 -15.390  0.00  0.00    -0.379 OA
ATOM     25  H   UNL     1      40.602 -24.178 -15.480  0.00  0.00    +0.211 HD
ENDBRANCH  23  24
ENDBRANCH  18  23
ENDBRANCH   6  16
TORSDOF 5
ENDMDL
MODEL 6
REMARK VINA RESULT:      -8.3      2.255      3.411
REMARK  Name = 447199
REMARK  5 active torsions:
REMARK  status: ('A' for Active; 'I' for Inactive)
REMARK    1  A    between atoms: C_6  and  C_16
REMARK    2  A    between atoms: C_15  and  O_19
REMARK    3  A    between atoms: C_17  and  O_21
REMARK    4  A    between atoms: C_18  and  C_23
REMARK    5  A    between atoms: C_23  and  O_24
REMARK                            x       y       z     vdW  Elec       q    Type
REMARK                         _______ _______ _______ _____ _____    ______ ____
ROOT
ATOM      1  N   UNL     1      33.053 -25.030 -13.319  0.00  0.00    -0.251 N 
ATOM      2  N   UNL     1      31.723 -25.241 -13.355  0.00  0.00    -0.181 NA
ATOM      3  N   UNL     1      32.370 -23.160 -16.170  0.00  0.00    -0.245 NA
ATOM      4  N   UNL     1      29.930 -23.642 -16.099  0.00  0.00    -0.229 NA
ATOM      5  N   UNL     1      28.882 -25.009 -14.409  0.00  0.00    -0.342 N 
ATOM      6  C   UNL     1      33.529 -24.244 -14.323  0.00  0.00    +0.158 C 
ATOM      7  C   UNL     1      32.429 -23.926 -15.059  0.00  0.00    +0.099 C 
ATOM      8  C   UNL     1      31.301 -24.561 -14.436  0.00  0.00    +0.144 C 
ATOM      9  C   UNL     1      30.017 -24.410 -14.977  0.00  0.00    +0.143 C 
ATOM     10  C   UNL     1      31.078 -23.085 -16.606  0.00  0.00    +0.252 C 
ATOM     11  H   UNL     1      33.634 -25.414 -12.622  0.00  0.00    +0.169 HD
ATOM     12  H   UNL     1      27.998 -24.878 -14.820  0.00  0.00    +0.144 HD
ATOM     13  H   UNL     1      28.971 -25.560 -13.597  0.00  0.00    +0.144 HD
ENDROOT
BRANCH   6  16
ATOM     14  O   UNL     1      35.570 -24.674 -15.518  0.00  0.00    -0.349 OA
ATOM     15  C   UNL     1      35.808 -24.210 -13.209  0.00  0.00    +0.169 C 
ATOM     16  C   UNL     1      34.991 -23.893 -14.452  0.00  0.00    +0.169 C 
ATOM     17  C   UNL     1      37.191 -24.443 -13.790  0.00  0.00    +0.169 C 
ATOM     18  C   UNL     1      36.880 -25.132 -15.113  0.00  0.00    +0.174 C 
BRANCH  15  19
ATOM     19  O   UNL     1      35.776 -23.153 -12.272  0.00  0.00    -0.379 OA
ATOM     20  H   UNL     1      36.674 -22.813 -12.137  0.00  0.00    +0.211 HD
ENDBRANCH  15  19
BRANCH  17  21
ATOM     21  O   UNL     1      37.849 -23.202 -14.047  0.00  0.00    -0.379 OA
ATOM     22  H   UNL     1      37.469 -22.511 -13.482  0.00  0.00    +0.211 HD
ENDBRANCH  17  21
BRANCH  18  23
ATOM     23  C   UNL     1      36.840 -26.650 -14.996  0.00  0.00    +0.169 C 
BRANCH  23  24
ATOM     24  O   UNL     1      36.767 -27.204 -16.298  0.00  0.00    -0.379 OA
ATOM     25  H   UNL     1      36.220 -28.005 -16.278  0.00  0.00    +0.211 HD
ENDBRANCH  23  24
ENDBRANCH  18  23
ENDBRANCH   6  16
TORSDOF 5
ENDMDL
MODEL 7
REMARK VINA RESULT:      -8.3      3.344      5.664
REMARK  Name = 447199
REMARK  5 active torsions:
REMARK  status: ('A' for Active; 'I' for Inactive)
REMARK    1  A    between atoms: C_6  and  C_16
REMARK    2  A    between atoms: C_15  and  O_19
REMARK    3  A    between atoms: C_17  and  O_21
REMARK    4  A    between atoms: C_18  and  C_23
REMARK    5  A    between atoms: C_23  and  O_24
REMARK                            x       y       z     vdW  Elec       q    Type
REMARK                         _______ _______ _______ _____ _____    ______ ____
ROOT
ATOM      1  N   UNL     1      32.243 -22.908 -17.927  0.00  0.00    -0.251 N 
ATOM      2  N   UNL     1      33.112 -22.378 -18.809  0.00  0.00    -0.181 NA
ATOM      3  N   UNL     1      35.093 -23.116 -15.946  0.00  0.00    -0.245 NA
ATOM      4  N   UNL     1      36.570 -22.119 -17.682  0.00  0.00    -0.229 NA
ATOM      5  N   UNL     1      35.796 -21.409 -19.855  0.00  0.00    -0.342 N 
ATOM      6  C   UNL     1      32.795 -23.271 -16.737  0.00  0.00    +0.158 C 
ATOM      7  C   UNL     1      34.113 -22.952 -16.860  0.00  0.00    +0.099 C 
ATOM      8  C   UNL     1      34.295 -22.391 -18.171  0.00  0.00    +0.144 C 
ATOM      9  C   UNL     1      35.563 -21.964 -18.586  0.00  0.00    +0.143 C 
ATOM     10  C   UNL     1      36.277 -22.669 -16.459  0.00  0.00    +0.252 C 
ATOM     11  H   UNL     1      31.285 -23.025 -18.127  0.00  0.00    +0.169 HD
ATOM     12  H   UNL     1      36.702 -21.122 -20.108  0.00  0.00    +0.144 HD
ATOM     13  H   UNL     1      35.050 -21.308 -20.491  0.00  0.00    +0.144 HD
ENDROOT
BRANCH   6  16
ATOM     14  O   UNL     1      30.655 -24.165 -16.105  0.00  0.00    -0.349 OA
ATOM     15  C   UNL     1      31.806 -22.964 -14.421  0.00  0.00    +0.169 C 
ATOM     16  C   UNL     1      31.984 -23.882 -15.620  0.00  0.00    +0.169 C 
ATOM     17  C   UNL     1      30.494 -23.455 -13.839  0.00  0.00    +0.169 C 
ATOM     18  C   UNL     1      29.693 -23.811 -15.085  0.00  0.00    +0.174 C 
BRANCH  15  19
ATOM     19  O   UNL     1      32.884 -23.066 -13.513  0.00  0.00    -0.379 OA
ATOM     20  H   UNL     1      32.660 -23.703 -12.817  0.00  0.00    +0.211 HD
ENDBRANCH  15  19
BRANCH  17  21
ATOM     21  O   UNL     1      30.695 -24.631 -13.054  0.00  0.00    -0.379 OA
ATOM     22  H   UNL     1      30.170 -24.570 -12.241  0.00  0.00    +0.211 HD
ENDBRANCH  17  21
BRANCH  18  23
ATOM     23  C   UNL     1      28.854 -22.650 -15.603  0.00  0.00    +0.169 C 
BRANCH  23  24
ATOM     24  O   UNL     1      29.238 -22.373 -16.939  0.00  0.00    -0.379 OA
ATOM     25  H   UNL     1      29.014 -23.130 -17.503  0.00  0.00    +0.211 HD
ENDBRANCH  23  24
ENDBRANCH  18  23
ENDBRANCH   6  16
TORSDOF 5
ENDMDL
MODEL 8
REMARK VINA RESULT:      -8.1      1.645      2.492
REMARK  Name = 447199
REMARK  5 active torsions:
REMARK  status: ('A' for Active; 'I' for Inactive)
REMARK    1  A    between atoms: C_6  and  C_16
REMARK    2  A    between atoms: C_15  and  O_19
REMARK    3  A    between atoms: C_17  and  O_21
REMARK    4  A    between atoms: C_18  and  C_23
REMARK    5  A    between atoms: C_23  and  O_24
REMARK                            x       y       z     vdW  Elec       q    Type
REMARK                         _______ _______ _______ _____ _____    ______ ____
ROOT
ATOM      1  N   UNL     1      33.870 -23.726 -15.549  0.00  0.00    -0.251 N 
ATOM      2  N   UNL     1      33.273 -23.394 -16.710  0.00  0.00    -0.181 NA
ATOM      3  N   UNL     1      36.627 -22.260 -17.079  0.00  0.00    -0.245 NA
ATOM      4  N   UNL     1      35.383 -21.712 -19.163  0.00  0.00    -0.229 NA
ATOM      5  N   UNL     1      33.053 -22.237 -19.511  0.00  0.00    -0.342 N 
ATOM      6  C   UNL     1      35.183 -23.380 -15.469  0.00  0.00    +0.158 C 
ATOM      7  C   UNL     1      35.453 -22.782 -16.662  0.00  0.00    +0.099 C 
ATOM      8  C   UNL     1      34.240 -22.799 -17.431  0.00  0.00    +0.144 C 
ATOM      9  C   UNL     1      34.211 -22.246 -18.718  0.00  0.00    +0.143 C 
ATOM     10  C   UNL     1      36.480 -21.753 -18.339  0.00  0.00    +0.252 C 
ATOM     11  H   UNL     1      33.394 -24.183 -14.817  0.00  0.00    +0.169 HD
ATOM     12  H   UNL     1      33.075 -21.838 -20.410  0.00  0.00    +0.144 HD
ATOM     13  H   UNL     1      32.218 -22.629 -19.166  0.00  0.00    +0.144 HD
ENDROOT
BRANCH   6  16
ATOM     14  O   UNL     1      37.186 -24.423 -14.644  0.00  0.00    -0.349 OA
ATOM     15  C   UNL     1      35.313 -24.510 -13.201  0.00  0.00    +0.169 C 
ATOM     16  C   UNL     1      36.024 -23.666 -14.248  0.00  0.00    +0.169 C 
ATOM     17  C   UNL     1      36.473 -25.204 -12.512  0.00  0.00    +0.169 C 
ATOM     18  C   UNL     1      37.437 -25.457 -13.665  0.00  0.00    +0.174 C 
BRANCH  15  19
ATOM     19  O   UNL     1      34.543 -23.718 -12.319  0.00  0.00    -0.379 OA
ATOM     20  H   UNL     1      34.908 -23.785 -11.423  0.00  0.00    +0.211 HD
ENDBRANCH  15  19
BRANCH  17  21
ATOM     21  O   UNL     1      37.091 -24.337 -11.561  0.00  0.00    -0.379 OA
ATOM     22  H   UNL     1      37.779 -23.813 -12.000  0.00  0.00    +0.211 HD
ENDBRANCH  17  21
BRANCH  18  23
ATOM     23  C   UNL     1      37.222 -26.809 -14.332  0.00  0.00    +0.169 C 
BRANCH  23  24
ATOM     24  O   UNL     1      37.325 -26.643 -15.736  0.00  0.00    -0.379 OA
ATOM     25  H   UNL     1      37.310 -27.513 -16.165  0.00  0.00    +0.211 HD
ENDBRANCH  23  24
ENDBRANCH  18  23
ENDBRANCH   6  16
TORSDOF 5
ENDMDL
MODEL 9
REMARK VINA RESULT:      -7.9      2.892      5.055
REMARK  Name = 447199
REMARK  5 active torsions:
REMARK  status: ('A' for Active; 'I' for Inactive)
REMARK    1  A    between atoms: C_6  and  C_16
REMARK    2  A    between atoms: C_15  and  O_19
REMARK    3  A    between atoms: C_17  and  O_21
REMARK    4  A    between atoms: C_18  and  C_23
REMARK    5  A    between atoms: C_23  and  O_24
REMARK                            x       y       z     vdW  Elec       q    Type
REMARK                         _______ _______ _______ _____ _____    ______ ____
ROOT
ATOM      1  N   UNL     1      32.590 -22.314 -18.548  0.00  0.00    -0.251 N 
ATOM      2  N   UNL     1      32.699 -21.406 -19.537  0.00  0.00    -0.181 NA
ATOM      3  N   UNL     1      36.052 -21.990 -18.496  0.00  0.00    -0.245 NA
ATOM      4  N   UNL     1      36.085 -20.316 -20.338  0.00  0.00    -0.229 NA
ATOM      5  N   UNL     1      34.103 -19.515 -21.457  0.00  0.00    -0.342 N 
ATOM      6  C   UNL     1      33.775 -22.690 -17.993  0.00  0.00    +0.158 C 
ATOM      7  C   UNL     1      34.713 -21.975 -18.672  0.00  0.00    +0.099 C 
ATOM      8  C   UNL     1      34.019 -21.171 -19.640  0.00  0.00    +0.144 C 
ATOM      9  C   UNL     1      34.732 -20.320 -20.494  0.00  0.00    +0.143 C 
ATOM     10  C   UNL     1      36.639 -21.127 -19.378  0.00  0.00    +0.252 C 
ATOM     11  H   UNL     1      31.724 -22.677 -18.251  0.00  0.00    +0.169 HD
ATOM     12  H   UNL     1      34.641 -18.930 -22.037  0.00  0.00    +0.144 HD
ATOM     13  H   UNL     1      33.123 -19.535 -21.550  0.00  0.00    +0.144 HD
ENDROOT
BRANCH   6  16
ATOM     14  O   UNL     1      32.545 -23.889 -16.311  0.00  0.00    -0.349 OA
ATOM     15  C   UNL     1      34.746 -23.251 -15.717  0.00  0.00    +0.169 C 
ATOM     16  C   UNL     1      33.860 -23.696 -16.871  0.00  0.00    +0.169 C 
ATOM     17  C   UNL     1      34.138 -23.998 -14.545  0.00  0.00    +0.169 C 
ATOM     18  C   UNL     1      32.650 -23.966 -14.871  0.00  0.00    +0.174 C 
BRANCH  15  19
ATOM     19  O   UNL     1      36.103 -23.581 -15.936  0.00  0.00    -0.379 OA
ATOM     20  H   UNL     1      36.575 -23.583 -15.089  0.00  0.00    +0.211 HD
ENDBRANCH  15  19
BRANCH  17  21
ATOM     21  O   UNL     1      34.587 -25.354 -14.519  0.00  0.00    -0.379 OA
ATOM     22  H   UNL     1      33.855 -25.931 -14.250  0.00  0.00    +0.211 HD
ENDBRANCH  17  21
BRANCH  18  23
ATOM     23  C   UNL     1      31.938 -22.759 -14.275  0.00  0.00    +0.169 C 
BRANCH  23  24
ATOM     24  O   UNL     1      32.164 -22.743 -12.876  0.00  0.00    -0.379 OA
ATOM     25  H   UNL     1      31.793 -23.548 -12.481  0.00  0.00    +0.211 HD
ENDBRANCH  23  24
ENDBRANCH  18  23
ENDBRANCH   6  16
TORSDOF 5
ENDMDL
