MODEL 1
REMARK VINA RESULT:      -7.6      0.000      0.000
REMARK  Name = 499953
REMARK  7 active torsions:
REMARK  status: ('A' for Active; 'I' for Inactive)
REMARK    1  A    between atoms: C_3  and  O_27
REMARK    2  A    between atoms: C_6  and  O_21
REMARK    3  A    between atoms: C_7  and  O_23
REMARK    4  A    between atoms: C_13  and  O_25
REMARK    5  A    between atoms: C_16  and  C_31
REMARK    6  A    between atoms: O_27  and  C_29
REMARK    7  A    between atoms: C_31  and  O_32
REMARK                            x       y       z     vdW  Elec       q    Type
REMARK                         _______ _______ _______ _____ _____    ______ ____
ROOT
ATOM      1  O   UNL     1      31.999 -23.321 -18.033  0.00  0.00    -0.289 OA
ATOM      2  C   UNL     1      37.972 -24.034 -14.715  0.00  0.00    +0.049 C 
ATOM      3  C   UNL     1      37.815 -24.875 -13.477  0.00  0.00    +0.161 C 
ATOM      4  C   UNL     1      38.366 -25.492 -14.731  0.00  0.00    +0.040 C 
ATOM      5  C   UNL     1      36.757 -23.602 -15.518  0.00  0.00    +0.050 C 
ATOM      6  C   UNL     1      36.451 -25.191 -12.948  0.00  0.00    +0.149 C 
ATOM      7  C   UNL     1      35.496 -23.442 -14.585  0.00  0.00    +0.101 C 
ATOM      8  C   UNL     1      35.271 -24.841 -13.901  0.00  0.00    +0.056 C 
ATOM      9  C   UNL     1      37.565 -26.522 -15.457  0.00  0.00    +0.004 C 
ATOM     10  C   UNL     1      39.831 -25.779 -14.792  0.00  0.00    +0.004 C 
ATOM     11  C   UNL     1      34.327 -22.787 -15.387  0.00  0.00    +0.079 C 
ATOM     12  C   UNL     1      37.041 -22.444 -16.455  0.00  0.00    -0.030 C 
ATOM     13  C   UNL     1      34.107 -23.329 -16.813  0.00  0.00    +0.152 C 
ATOM     14  C   UNL     1      33.973 -24.987 -13.095  0.00  0.00    +0.005 C 
ATOM     15  C   UNL     1      34.904 -22.561 -17.878  0.00  0.00    +0.059 C 
ATOM     16  C   UNL     1      36.285 -22.041 -17.498  0.00  0.00    -0.017 C 
ATOM     17  C   UNL     1      32.941 -22.726 -14.810  0.00  0.00    -0.023 C 
ATOM     18  C   UNL     1      32.609 -23.183 -16.982  0.00  0.00    +0.193 C 
ATOM     19  C   UNL     1      31.952 -22.912 -15.690  0.00  0.00    +0.011 C 
ATOM     20  C   UNL     1      30.487 -22.851 -15.502  0.00  0.00    +0.034 C 
ENDROOT
BRANCH   6  21
ATOM     21  O   UNL     1      36.405 -26.571 -12.585  0.00  0.00    -0.381 OA
ATOM     22  H   UNL     1      35.641 -26.992 -13.011  0.00  0.00    +0.210 HD
ENDBRANCH   6  21
BRANCH   7  23
ATOM     23  O   UNL     1      35.814 -22.508 -13.534  0.00  0.00    -0.386 OA
ATOM     24  H   UNL     1      36.697 -22.138 -13.686  0.00  0.00    +0.210 HD
ENDBRANCH   7  23
BRANCH  13  25
ATOM     25  O   UNL     1      34.318 -24.726 -16.959  0.00  0.00    -0.379 OA
ATOM     26  H   UNL     1      34.765 -25.069 -16.168  0.00  0.00    +0.211 HD
ENDBRANCH  13  25
BRANCH   3  27
ATOM     27  O   UNL     1      38.769 -24.621 -12.427  0.00  0.00    -0.453 OA
BRANCH  27  29
ATOM     28  O   UNL     1      39.297 -22.492 -11.704  0.00  0.00    -0.250 OA
ATOM     29  C   UNL     1      38.566 -23.472 -11.731  0.00  0.00    +0.317 C 
ATOM     30  C   UNL     1      37.276 -23.577 -10.975  0.00  0.00    +0.121 C 
ENDBRANCH  27  29
ENDBRANCH   3  27
BRANCH  16  31
ATOM     31  C   UNL     1      36.787 -20.942 -18.400  0.00  0.00    +0.159 C 
BRANCH  31  32
ATOM     32  O   UNL     1      35.887 -20.771 -19.476  0.00  0.00    -0.378 OA
ATOM     33  H   UNL     1      35.860 -19.835 -19.728  0.00  0.00    +0.211 HD
ENDBRANCH  31  32
ENDBRANCH  16  31
TORSDOF 7
ENDMDL
MODEL 2
REMARK VINA RESULT:      -6.0     12.261     16.354
REMARK  Name = 499953
REMARK  7 active torsions:
REMARK  status: ('A' for Active; 'I' for Inactive)
REMARK    1  A    between atoms: C_3  and  O_27
REMARK    2  A    between atoms: C_6  and  O_21
REMARK    3  A    between atoms: C_7  and  O_23
REMARK    4  A    between atoms: C_13  and  O_25
REMARK    5  A    between atoms: C_16  and  C_31
REMARK    6  A    between atoms: O_27  and  C_29
REMARK    7  A    between atoms: C_31  and  O_32
REMARK                            x       y       z     vdW  Elec       q    Type
REMARK                         _______ _______ _______ _____ _____    ______ ____
ROOT
ATOM      1  O   UNL     1      34.890 -15.184 -22.329  0.00  0.00    -0.289 OA
ATOM      2  C   UNL     1      32.357  -9.018 -23.990  0.00  0.00    +0.049 C 
ATOM      3  C   UNL     1      31.949  -8.245 -22.765  0.00  0.00    +0.161 C 
ATOM      4  C   UNL     1      33.266  -7.951 -23.426  0.00  0.00    +0.040 C 
ATOM      5  C   UNL     1      32.789 -10.470 -23.881  0.00  0.00    +0.050 C 
ATOM      6  C   UNL     1      31.841  -8.932 -21.440  0.00  0.00    +0.149 C 
ATOM      7  C   UNL     1      32.060 -11.183 -22.678  0.00  0.00    +0.101 C 
ATOM      8  C   UNL     1      32.437 -10.368 -21.387  0.00  0.00    +0.056 C 
ATOM      9  C   UNL     1      34.536  -8.285 -22.715  0.00  0.00    +0.004 C 
ATOM     10  C   UNL     1      33.388  -6.697 -24.229  0.00  0.00    +0.004 C 
ATOM     11  C   UNL     1      32.347 -12.718 -22.725  0.00  0.00    +0.079 C 
ATOM     12  C   UNL     1      32.756 -11.204 -25.208  0.00  0.00    -0.030 C 
ATOM     13  C   UNL     1      33.804 -13.118 -23.027  0.00  0.00    +0.152 C 
ATOM     14  C   UNL     1      32.003 -10.994 -20.053  0.00  0.00    +0.005 C 
ATOM     15  C   UNL     1      34.079 -13.300 -24.527  0.00  0.00    +0.059 C 
ATOM     16  C   UNL     1      33.357 -12.376 -25.500  0.00  0.00    -0.017 C 
ATOM     17  C   UNL     1      31.964 -13.604 -21.573  0.00  0.00    -0.023 C 
ATOM     18  C   UNL     1      33.950 -14.406 -22.243  0.00  0.00    +0.193 C 
ATOM     19  C   UNL     1      32.831 -14.585 -21.299  0.00  0.00    +0.011 C 
ATOM     20  C   UNL     1      32.753 -15.673 -20.301  0.00  0.00    +0.034 C 
ENDROOT
BRANCH   6  21
ATOM     21  O   UNL     1      32.440  -8.106 -20.441  0.00  0.00    -0.381 OA
ATOM     22  H   UNL     1      31.790  -7.458 -20.125  0.00  0.00    +0.210 HD
ENDBRANCH   6  21
BRANCH   7  23
ATOM     23  O   UNL     1      30.636 -11.050 -22.856  0.00  0.00    -0.386 OA
ATOM     24  H   UNL     1      30.305 -10.333 -22.294  0.00  0.00    +0.210 HD
ENDBRANCH   7  23
BRANCH  13  25
ATOM     25  O   UNL     1      34.787 -12.271 -22.449  0.00  0.00    -0.379 OA
ATOM     26  H   UNL     1      34.749 -12.347 -21.482  0.00  0.00    +0.211 HD
ENDBRANCH  13  25
BRANCH   3  27
ATOM     27  O   UNL     1      30.911  -7.265 -22.965  0.00  0.00    -0.453 OA
BRANCH  27  29
ATOM     28  O   UNL     1      31.582  -5.797 -21.313  0.00  0.00    -0.250 OA
ATOM     29  C   UNL     1      31.168  -6.039 -22.438  0.00  0.00    +0.317 C 
ATOM     30  C   UNL     1      30.862  -4.990 -23.464  0.00  0.00    +0.121 C 
ENDBRANCH  27  29
ENDBRANCH   3  27
BRANCH  16  31
ATOM     31  C   UNL     1      33.319 -12.899 -26.914  0.00  0.00    +0.159 C 
BRANCH  31  32
ATOM     32  O   UNL     1      33.551 -14.293 -26.905  0.00  0.00    -0.378 OA
ATOM     33  H   UNL     1      33.413 -14.638 -26.010  0.00  0.00    +0.211 HD
ENDBRANCH  31  32
ENDBRANCH  16  31
TORSDOF 7
ENDMDL
MODEL 3
REMARK VINA RESULT:      -4.9      1.933      4.449
REMARK  Name = 499953
REMARK  7 active torsions:
REMARK  status: ('A' for Active; 'I' for Inactive)
REMARK    1  A    between atoms: C_3  and  O_27
REMARK    2  A    between atoms: C_6  and  O_21
REMARK    3  A    between atoms: C_7  and  O_23
REMARK    4  A    between atoms: C_13  and  O_25
REMARK    5  A    between atoms: C_16  and  C_31
REMARK    6  A    between atoms: O_27  and  C_29
REMARK    7  A    between atoms: C_31  and  O_32
REMARK                            x       y       z     vdW  Elec       q    Type
REMARK                         _______ _______ _______ _____ _____    ______ ____
ROOT
ATOM      1  O   UNL     1      31.266 -21.557 -17.570  0.00  0.00    -0.289 OA
ATOM      2  C   UNL     1      34.970 -25.127 -13.019  0.00  0.00    +0.049 C 
ATOM      3  C   UNL     1      36.419 -24.720 -13.051  0.00  0.00    +0.161 C 
ATOM      4  C   UNL     1      35.516 -24.175 -11.981  0.00  0.00    +0.040 C 
ATOM      5  C   UNL     1      33.993 -24.594 -14.051  0.00  0.00    +0.050 C 
ATOM      6  C   UNL     1      36.943 -23.884 -14.176  0.00  0.00    +0.149 C 
ATOM      7  C   UNL     1      34.723 -24.304 -15.418  0.00  0.00    +0.101 C 
ATOM      8  C   UNL     1      35.858 -23.262 -15.102  0.00  0.00    +0.056 C 
ATOM      9  C   UNL     1      35.173 -22.722 -11.980  0.00  0.00    +0.004 C 
ATOM     10  C   UNL     1      35.655 -24.717 -10.595  0.00  0.00    +0.004 C 
ATOM     11  C   UNL     1      33.666 -23.973 -16.520  0.00  0.00    +0.079 C 
ATOM     12  C   UNL     1      32.715 -25.405 -14.139  0.00  0.00    -0.030 C 
ATOM     13  C   UNL     1      32.529 -23.024 -16.093  0.00  0.00    +0.152 C 
ATOM     14  C   UNL     1      36.581 -22.674 -16.322  0.00  0.00    +0.005 C 
ATOM     15  C   UNL     1      31.307 -23.766 -15.531  0.00  0.00    +0.059 C 
ATOM     16  C   UNL     1      31.553 -25.027 -14.713  0.00  0.00    -0.017 C 
ATOM     17  C   UNL     1      34.095 -23.438 -17.857  0.00  0.00    -0.023 C 
ATOM     18  C   UNL     1      32.227 -22.288 -17.381  0.00  0.00    +0.193 C 
ATOM     19  C   UNL     1      33.287 -22.512 -18.383  0.00  0.00    +0.011 C 
ATOM     20  C   UNL     1      33.350 -21.826 -19.691  0.00  0.00    +0.034 C 
ENDROOT
BRANCH   6  21
ATOM     21  O   UNL     1      37.785 -22.863 -13.639  0.00  0.00    -0.381 OA
ATOM     22  H   UNL     1      37.910 -23.015 -12.689  0.00  0.00    +0.210 HD
ENDBRANCH   6  21
BRANCH   7  23
ATOM     23  O   UNL     1      35.375 -25.512 -15.859  0.00  0.00    -0.386 OA
ATOM     24  H   UNL     1      36.262 -25.562 -15.470  0.00  0.00    +0.210 HD
ENDBRANCH   7  23
BRANCH  13  25
ATOM     25  O   UNL     1      32.921 -21.986 -15.207  0.00  0.00    -0.379 OA
ATOM     26  H   UNL     1      33.799 -22.185 -14.844  0.00  0.00    +0.211 HD
ENDBRANCH  13  25
BRANCH   3  27
ATOM     27  O   UNL     1      37.358 -25.729 -12.629  0.00  0.00    -0.453 OA
BRANCH  27  29
ATOM     28  O   UNL     1      37.588 -27.173 -14.417  0.00  0.00    -0.250 OA
ATOM     29  C   UNL     1      38.033 -26.344 -13.635  0.00  0.00    +0.317 C 
ATOM     30  C   UNL     1      39.447 -25.847 -13.654  0.00  0.00    +0.121 C 
ENDBRANCH  27  29
ENDBRANCH   3  27
BRANCH  16  31
ATOM     31  C   UNL     1      30.342 -25.919 -14.598  0.00  0.00    +0.159 C 
BRANCH  31  32
ATOM     32  O   UNL     1      29.203 -25.130 -14.320  0.00  0.00    -0.378 OA
ATOM     33  H   UNL     1      28.554 -25.660 -13.833  0.00  0.00    +0.211 HD
ENDBRANCH  31  32
ENDBRANCH  16  31
TORSDOF 7
ENDMDL
MODEL 4
REMARK VINA RESULT:      -4.9      2.229      6.306
REMARK  Name = 499953
REMARK  7 active torsions:
REMARK  status: ('A' for Active; 'I' for Inactive)
REMARK    1  A    between atoms: C_3  and  O_27
REMARK    2  A    between atoms: C_6  and  O_21
REMARK    3  A    between atoms: C_7  and  O_23
REMARK    4  A    between atoms: C_13  and  O_25
REMARK    5  A    between atoms: C_16  and  C_31
REMARK    6  A    between atoms: O_27  and  C_29
REMARK    7  A    between atoms: C_31  and  O_32
REMARK                            x       y       z     vdW  Elec       q    Type
REMARK                         _______ _______ _______ _____ _____    ______ ____
ROOT
ATOM      1  O   UNL     1      37.966 -22.349 -15.509  0.00  0.00    -0.289 OA
ATOM      2  C   UNL     1      31.179 -23.389 -15.717  0.00  0.00    +0.049 C 
ATOM      3  C   UNL     1      30.645 -23.795 -14.370  0.00  0.00    +0.161 C 
ATOM      4  C   UNL     1      30.504 -22.372 -14.829  0.00  0.00    +0.040 C 
ATOM      5  C   UNL     1      32.674 -23.268 -15.953  0.00  0.00    +0.050 C 
ATOM      6  C   UNL     1      31.583 -24.208 -13.280  0.00  0.00    +0.149 C 
ATOM      7  C   UNL     1      33.470 -24.272 -15.035  0.00  0.00    +0.101 C 
ATOM      8  C   UNL     1      33.087 -23.916 -13.552  0.00  0.00    +0.056 C 
ATOM      9  C   UNL     1      31.268 -21.296 -14.131  0.00  0.00    +0.004 C 
ATOM     10  C   UNL     1      29.155 -21.903 -15.270  0.00  0.00    +0.004 C 
ATOM     11  C   UNL     1      34.976 -24.288 -15.453  0.00  0.00    +0.079 C 
ATOM     12  C   UNL     1      33.050 -23.270 -17.422  0.00  0.00    -0.030 C 
ATOM     13  C   UNL     1      35.606 -22.909 -15.734  0.00  0.00    +0.152 C 
ATOM     14  C   UNL     1      33.897 -24.634 -12.463  0.00  0.00    +0.005 C 
ATOM     15  C   UNL     1      35.486 -22.482 -17.204  0.00  0.00    +0.059 C 
ATOM     16  C   UNL     1      34.223 -22.876 -17.959  0.00  0.00    -0.017 C 
ATOM     17  C   UNL     1      36.000 -24.983 -14.602  0.00  0.00    -0.023 C 
ATOM     18  C   UNL     1      37.042 -23.122 -15.300  0.00  0.00    +0.193 C 
ATOM     19  C   UNL     1      37.185 -24.368 -14.523  0.00  0.00    +0.011 C 
ATOM     20  C   UNL     1      38.432 -24.786 -13.849  0.00  0.00    +0.034 C 
ENDROOT
BRANCH   6  21
ATOM     21  O   UNL     1      31.169 -23.595 -12.058  0.00  0.00    -0.381 OA
ATOM     22  H   UNL     1      30.813 -24.272 -11.462  0.00  0.00    +0.210 HD
ENDBRANCH   6  21
BRANCH   7  23
ATOM     23  O   UNL     1      32.987 -25.608 -15.283  0.00  0.00    -0.386 OA
ATOM     24  H   UNL     1      32.108 -25.712 -14.888  0.00  0.00    +0.210 HD
ENDBRANCH   7  23
BRANCH  13  25
ATOM     25  O   UNL     1      35.159 -21.865 -14.882  0.00  0.00    -0.379 OA
ATOM     26  H   UNL     1      35.634 -21.047 -15.098  0.00  0.00    +0.211 HD
ENDBRANCH  13  25
BRANCH   3  27
ATOM     27  O   UNL     1      29.440 -24.587 -14.392  0.00  0.00    -0.453 OA
BRANCH  27  29
ATOM     28  O   UNL     1      29.961 -26.469 -15.626  0.00  0.00    -0.250 OA
ATOM     29  C   UNL     1      29.329 -25.437 -15.446  0.00  0.00    +0.317 C 
ATOM     30  C   UNL     1      28.289 -24.915 -16.390  0.00  0.00    +0.121 C 
ENDBRANCH  27  29
ENDBRANCH   3  27
BRANCH  16  31
ATOM     31  C   UNL     1      34.377 -22.830 -19.459  0.00  0.00    +0.159 C 
BRANCH  31  32
ATOM     32  O   UNL     1      34.104 -24.108 -19.997  0.00  0.00    -0.378 OA
ATOM     33  H   UNL     1      33.671 -24.009 -20.859  0.00  0.00    +0.211 HD
ENDBRANCH  31  32
ENDBRANCH  16  31
TORSDOF 7
ENDMDL
