MODEL 1
REMARK VINA RESULT:      -6.7      0.000      0.000
REMARK  Name = 49957
REMARK  9 active torsions:
REMARK  status: ('A' for Active; 'I' for Inactive)
REMARK    1  A    between atoms: C_1  and  C_2
REMARK    2  A    between atoms: C_1  and  C_8
REMARK    3  A    between atoms: C_2  and  C_3
REMARK    4  A    between atoms: C_3  and  C_4
REMARK    5  A    between atoms: C_4  and  C_5
REMARK    6  A    between atoms: C_5  and  C_6
REMARK    7  A    between atoms: C_8  and  C_9
REMARK    8  A    between atoms: C_9  and  C_10
REMARK    9  A    between atoms: C_10  and  S_11
REMARK                            x       y       z     vdW  Elec       q    Type
REMARK                         _______ _______ _______ _____ _____    ______ ____
ROOT
ATOM      1  C   UNL     1      32.709 -23.398 -15.502  0.00  0.00    +0.000 C 
ENDROOT
BRANCH   1   2
ATOM      2  C   UNL     1      32.592 -23.383 -17.028  0.00  0.00    +0.000 C 
BRANCH   2   3
ATOM      3  C   UNL     1      33.860 -22.820 -17.676  0.00  0.00    +0.000 C 
BRANCH   3   4
ATOM      4  C   UNL     1      33.546 -22.142 -19.011  0.00  0.00    +0.000 C 
BRANCH   4   5
ATOM      5  C   UNL     1      34.744 -21.402 -19.614  0.00  0.00    +0.000 C 
BRANCH   5   6
ATOM      6  C   UNL     1      34.344 -20.262 -20.552  0.00  0.00    +0.000 C 
ATOM      7  C   UNL     1      32.849 -19.986 -20.482  0.00  0.00    +0.000 C 
ENDBRANCH   5   6
ENDBRANCH   4   5
ENDBRANCH   3   4
ENDBRANCH   2   3
ENDBRANCH   1   2
BRANCH   1   8
ATOM      8  C   UNL     1      31.460 -23.936 -14.798  0.00  0.00    +0.002 C 
BRANCH   8   9
ATOM      9  C   UNL     1      30.226 -23.048 -14.988  0.00  0.00    +0.026 C 
BRANCH   9  10
ATOM     10  C   UNL     1      28.971 -23.843 -15.322  0.00  0.00    +0.158 C 
BRANCH  10  11
ATOM     11  S   UNL     1      28.047 -23.145 -16.652  0.00  0.00    +0.023 S 
ATOM     12  O   UNL     1      26.748 -22.673 -15.786  0.00  0.00    -0.069 OA
ATOM     13  O   UNL     1      27.642 -24.208 -17.556  0.00  0.00    -0.069 OA
ATOM     14  O   UNL     1      28.739 -21.963 -17.135  0.00  0.00    -0.069 OA
ENDBRANCH  10  11
ENDBRANCH   9  10
ENDBRANCH   8   9
ENDBRANCH   1   8
TORSDOF 9
ENDMDL
MODEL 2
REMARK VINA RESULT:      -6.7      4.605      6.963
REMARK  Name = 49957
REMARK  9 active torsions:
REMARK  status: ('A' for Active; 'I' for Inactive)
REMARK    1  A    between atoms: C_1  and  C_2
REMARK    2  A    between atoms: C_1  and  C_8
REMARK    3  A    between atoms: C_2  and  C_3
REMARK    4  A    between atoms: C_3  and  C_4
REMARK    5  A    between atoms: C_4  and  C_5
REMARK    6  A    between atoms: C_5  and  C_6
REMARK    7  A    between atoms: C_8  and  C_9
REMARK    8  A    between atoms: C_9  and  C_10
REMARK    9  A    between atoms: C_10  and  S_11
REMARK                            x       y       z     vdW  Elec       q    Type
REMARK                         _______ _______ _______ _____ _____    ______ ____
ROOT
ATOM      1  C   UNL     1      34.960 -19.044 -21.159  0.00  0.00    +0.000 C 
ENDROOT
BRANCH   1   2
ATOM      2  C   UNL     1      35.473 -18.559 -22.517  0.00  0.00    +0.000 C 
BRANCH   2   3
ATOM      3  C   UNL     1      34.695 -19.207 -23.667  0.00  0.00    +0.000 C 
BRANCH   3   4
ATOM      4  C   UNL     1      34.547 -18.244 -24.846  0.00  0.00    +0.000 C 
BRANCH   4   5
ATOM      5  C   UNL     1      35.032 -16.824 -24.537  0.00  0.00    +0.000 C 
BRANCH   5   6
ATOM      6  C   UNL     1      33.900 -15.799 -24.457  0.00  0.00    +0.000 C 
ATOM      7  C   UNL     1      33.394 -15.424 -25.843  0.00  0.00    +0.000 C 
ENDBRANCH   5   6
ENDBRANCH   4   5
ENDBRANCH   3   4
ENDBRANCH   2   3
ENDBRANCH   1   2
BRANCH   1   8
ATOM      8  C   UNL     1      33.484 -19.457 -21.176  0.00  0.00    +0.002 C 
BRANCH   8   9
ATOM      9  C   UNL     1      33.122 -20.461 -20.076  0.00  0.00    +0.026 C 
BRANCH   9  10
ATOM     10  C   UNL     1      34.310 -21.303 -19.630  0.00  0.00    +0.158 C 
BRANCH  10  11
ATOM     11  S   UNL     1      33.851 -22.631 -18.564  0.00  0.00    +0.023 S 
ATOM     12  O   UNL     1      33.960 -23.833 -19.661  0.00  0.00    -0.069 OA
ATOM     13  O   UNL     1      32.458 -22.473 -18.184  0.00  0.00    -0.069 OA
ATOM     14  O   UNL     1      34.892 -22.814 -17.568  0.00  0.00    -0.069 OA
ENDBRANCH  10  11
ENDBRANCH   9  10
ENDBRANCH   8   9
ENDBRANCH   1   8
TORSDOF 9
ENDMDL
MODEL 3
REMARK VINA RESULT:      -6.6      4.832      7.067
REMARK  Name = 49957
REMARK  9 active torsions:
REMARK  status: ('A' for Active; 'I' for Inactive)
REMARK    1  A    between atoms: C_1  and  C_2
REMARK    2  A    between atoms: C_1  and  C_8
REMARK    3  A    between atoms: C_2  and  C_3
REMARK    4  A    between atoms: C_3  and  C_4
REMARK    5  A    between atoms: C_4  and  C_5
REMARK    6  A    between atoms: C_5  and  C_6
REMARK    7  A    between atoms: C_8  and  C_9
REMARK    8  A    between atoms: C_9  and  C_10
REMARK    9  A    between atoms: C_10  and  S_11
REMARK                            x       y       z     vdW  Elec       q    Type
REMARK                         _______ _______ _______ _____ _____    ______ ____
ROOT
ATOM      1  C   UNL     1      34.735 -19.536 -22.323  0.00  0.00    +0.000 C 
ENDROOT
BRANCH   1   2
ATOM      2  C   UNL     1      35.083 -18.348 -23.222  0.00  0.00    +0.000 C 
BRANCH   2   3
ATOM      3  C   UNL     1      35.316 -17.078 -22.398  0.00  0.00    +0.000 C 
BRANCH   3   4
ATOM      4  C   UNL     1      34.846 -15.834 -23.154  0.00  0.00    +0.000 C 
BRANCH   4   5
ATOM      5  C   UNL     1      34.419 -14.687 -22.233  0.00  0.00    +0.000 C 
BRANCH   5   6
ATOM      6  C   UNL     1      34.248 -15.110 -20.774  0.00  0.00    +0.000 C 
ATOM      7  C   UNL     1      32.780 -15.141 -20.375  0.00  0.00    +0.000 C 
ENDBRANCH   5   6
ENDBRANCH   4   5
ENDBRANCH   3   4
ENDBRANCH   2   3
ENDBRANCH   1   2
BRANCH   1   8
ATOM      8  C   UNL     1      33.945 -19.142 -21.070  0.00  0.00    +0.002 C 
BRANCH   8   9
ATOM      9  C   UNL     1      33.458 -20.346 -20.256  0.00  0.00    +0.026 C 
BRANCH   9  10
ATOM     10  C   UNL     1      34.595 -21.252 -19.802  0.00  0.00    +0.158 C 
BRANCH  10  11
ATOM     11  S   UNL     1      34.039 -22.640 -18.868  0.00  0.00    +0.023 S 
ATOM     12  O   UNL     1      32.504 -22.139 -18.633  0.00  0.00    -0.069 OA
ATOM     13  O   UNL     1      34.724 -22.654 -17.587  0.00  0.00    -0.069 OA
ATOM     14  O   UNL     1      34.021 -23.809 -19.729  0.00  0.00    -0.069 OA
ENDBRANCH  10  11
ENDBRANCH   9  10
ENDBRANCH   8   9
ENDBRANCH   1   8
TORSDOF 9
ENDMDL
MODEL 4
REMARK VINA RESULT:      -6.6      0.729      1.546
REMARK  Name = 49957
REMARK  9 active torsions:
REMARK  status: ('A' for Active; 'I' for Inactive)
REMARK    1  A    between atoms: C_1  and  C_2
REMARK    2  A    between atoms: C_1  and  C_8
REMARK    3  A    between atoms: C_2  and  C_3
REMARK    4  A    between atoms: C_3  and  C_4
REMARK    5  A    between atoms: C_4  and  C_5
REMARK    6  A    between atoms: C_5  and  C_6
REMARK    7  A    between atoms: C_8  and  C_9
REMARK    8  A    between atoms: C_9  and  C_10
REMARK    9  A    between atoms: C_10  and  S_11
REMARK                            x       y       z     vdW  Elec       q    Type
REMARK                         _______ _______ _______ _____ _____    ______ ____
ROOT
ATOM      1  C   UNL     1      31.933 -23.678 -16.083  0.00  0.00    +0.000 C 
ENDROOT
BRANCH   1   2
ATOM      2  C   UNL     1      32.294 -22.746 -17.241  0.00  0.00    +0.000 C 
BRANCH   2   3
ATOM      3  C   UNL     1      33.751 -22.937 -17.673  0.00  0.00    +0.000 C 
BRANCH   3   4
ATOM      4  C   UNL     1      33.941 -22.584 -19.150  0.00  0.00    +0.000 C 
BRANCH   4   5
ATOM      5  C   UNL     1      33.341 -21.229 -19.534  0.00  0.00    +0.000 C 
BRANCH   5   6
ATOM      6  C   UNL     1      34.278 -20.367 -20.381  0.00  0.00    +0.000 C 
ATOM      7  C   UNL     1      35.734 -20.758 -20.167  0.00  0.00    +0.000 C 
ENDBRANCH   5   6
ENDBRANCH   4   5
ENDBRANCH   3   4
ENDBRANCH   2   3
ENDBRANCH   1   2
BRANCH   1   8
ATOM      8  C   UNL     1      31.575 -22.937 -14.790  0.00  0.00    +0.002 C 
BRANCH   8   9
ATOM      9  C   UNL     1      30.068 -22.871 -14.525  0.00  0.00    +0.026 C 
BRANCH   9  10
ATOM     10  C   UNL     1      29.273 -23.841 -15.389  0.00  0.00    +0.158 C 
BRANCH  10  11
ATOM     11  S   UNL     1      28.093 -23.035 -16.423  0.00  0.00    +0.023 S 
ATOM     12  O   UNL     1      27.797 -24.286 -17.426  0.00  0.00    -0.069 OA
ATOM     13  O   UNL     1      28.760 -21.985 -17.173  0.00  0.00    -0.069 OA
ATOM     14  O   UNL     1      26.895 -22.767 -15.646  0.00  0.00    -0.069 OA
ENDBRANCH  10  11
ENDBRANCH   9  10
ENDBRANCH   8   9
ENDBRANCH   1   8
TORSDOF 9
ENDMDL
MODEL 5
REMARK VINA RESULT:      -6.4      6.225      6.779
REMARK  Name = 49957
REMARK  9 active torsions:
REMARK  status: ('A' for Active; 'I' for Inactive)
REMARK    1  A    between atoms: C_1  and  C_2
REMARK    2  A    between atoms: C_1  and  C_8
REMARK    3  A    between atoms: C_2  and  C_3
REMARK    4  A    between atoms: C_3  and  C_4
REMARK    5  A    between atoms: C_4  and  C_5
REMARK    6  A    between atoms: C_5  and  C_6
REMARK    7  A    between atoms: C_8  and  C_9
REMARK    8  A    between atoms: C_9  and  C_10
REMARK    9  A    between atoms: C_10  and  S_11
REMARK                            x       y       z     vdW  Elec       q    Type
REMARK                         _______ _______ _______ _____ _____    ______ ____
ROOT
ATOM      1  C   UNL     1      37.241 -21.749 -16.495  0.00  0.00    +0.000 C 
ENDROOT
BRANCH   1   2
ATOM      2  C   UNL     1      36.828 -21.654 -17.966  0.00  0.00    +0.000 C 
BRANCH   2   3
ATOM      3  C   UNL     1      35.369 -22.078 -18.161  0.00  0.00    +0.000 C 
BRANCH   3   4
ATOM      4  C   UNL     1      34.858 -21.680 -19.547  0.00  0.00    +0.000 C 
BRANCH   4   5
ATOM      5  C   UNL     1      33.350 -21.412 -19.585  0.00  0.00    +0.000 C 
BRANCH   5   6
ATOM      6  C   UNL     1      32.977 -20.143 -20.350  0.00  0.00    +0.000 C 
ATOM      7  C   UNL     1      34.157 -19.613 -21.152  0.00  0.00    +0.000 C 
ENDBRANCH   5   6
ENDBRANCH   4   5
ENDBRANCH   3   4
ENDBRANCH   2   3
ENDBRANCH   1   2
BRANCH   1   8
ATOM      8  C   UNL     1      36.348 -22.681 -15.669  0.00  0.00    +0.002 C 
BRANCH   8   9
ATOM      9  C   UNL     1      37.105 -23.868 -15.064  0.00  0.00    +0.026 C 
BRANCH   9  10
ATOM     10  C   UNL     1      36.240 -25.114 -14.930  0.00  0.00    +0.158 C 
BRANCH  10  11
ATOM     11  S   UNL     1      37.175 -26.609 -14.966  0.00  0.00    +0.023 S 
ATOM     12  O   UNL     1      38.636 -25.941 -15.248  0.00  0.00    -0.069 OA
ATOM     13  O   UNL     1      36.784 -27.382 -16.133  0.00  0.00    -0.069 OA
ATOM     14  O   UNL     1      37.178 -27.193 -13.637  0.00  0.00    -0.069 OA
ENDBRANCH  10  11
ENDBRANCH   9  10
ENDBRANCH   8   9
ENDBRANCH   1   8
TORSDOF 9
ENDMDL
MODEL 6
REMARK VINA RESULT:      -6.4      6.748      7.210
REMARK  Name = 49957
REMARK  9 active torsions:
REMARK  status: ('A' for Active; 'I' for Inactive)
REMARK    1  A    between atoms: C_1  and  C_2
REMARK    2  A    between atoms: C_1  and  C_8
REMARK    3  A    between atoms: C_2  and  C_3
REMARK    4  A    between atoms: C_3  and  C_4
REMARK    5  A    between atoms: C_4  and  C_5
REMARK    6  A    between atoms: C_5  and  C_6
REMARK    7  A    between atoms: C_8  and  C_9
REMARK    8  A    between atoms: C_9  and  C_10
REMARK    9  A    between atoms: C_10  and  S_11
REMARK                            x       y       z     vdW  Elec       q    Type
REMARK                         _______ _______ _______ _____ _____    ______ ____
ROOT
ATOM      1  C   UNL     1      37.349 -22.048 -16.720  0.00  0.00    +0.000 C 
ENDROOT
BRANCH   1   2
ATOM      2  C   UNL     1      36.733 -21.482 -18.001  0.00  0.00    +0.000 C 
BRANCH   2   3
ATOM      3  C   UNL     1      35.378 -22.131 -18.299  0.00  0.00    +0.000 C 
BRANCH   3   4
ATOM      4  C   UNL     1      34.805 -21.631 -19.626  0.00  0.00    +0.000 C 
BRANCH   4   5
ATOM      5  C   UNL     1      33.322 -21.256 -19.545  0.00  0.00    +0.000 C 
BRANCH   5   6
ATOM      6  C   UNL     1      32.917 -20.161 -20.533  0.00  0.00    +0.000 C 
ATOM      7  C   UNL     1      34.126 -19.365 -21.002  0.00  0.00    +0.000 C 
ENDBRANCH   5   6
ENDBRANCH   4   5
ENDBRANCH   3   4
ENDBRANCH   2   3
ENDBRANCH   1   2
BRANCH   1   8
ATOM      8  C   UNL     1      36.365 -22.869 -15.880  0.00  0.00    +0.002 C 
BRANCH   8   9
ATOM      9  C   UNL     1      37.053 -23.791 -14.868  0.00  0.00    +0.026 C 
BRANCH   9  10
ATOM     10  C   UNL     1      36.649 -23.497 -13.430  0.00  0.00    +0.158 C 
BRANCH  10  11
ATOM     11  S   UNL     1      37.880 -23.968 -12.258  0.00  0.00    +0.023 S 
ATOM     12  O   UNL     1      39.012 -24.460 -13.324  0.00  0.00    -0.069 OA
ATOM     13  O   UNL     1      37.408 -25.123 -11.514  0.00  0.00    -0.069 OA
ATOM     14  O   UNL     1      38.364 -22.777 -11.581  0.00  0.00    -0.069 OA
ENDBRANCH  10  11
ENDBRANCH   9  10
ENDBRANCH   8   9
ENDBRANCH   1   8
TORSDOF 9
ENDMDL
MODEL 7
REMARK VINA RESULT:      -6.3      4.538      6.771
REMARK  Name = 49957
REMARK  9 active torsions:
REMARK  status: ('A' for Active; 'I' for Inactive)
REMARK    1  A    between atoms: C_1  and  C_2
REMARK    2  A    between atoms: C_1  and  C_8
REMARK    3  A    between atoms: C_2  and  C_3
REMARK    4  A    between atoms: C_3  and  C_4
REMARK    5  A    between atoms: C_4  and  C_5
REMARK    6  A    between atoms: C_5  and  C_6
REMARK    7  A    between atoms: C_8  and  C_9
REMARK    8  A    between atoms: C_9  and  C_10
REMARK    9  A    between atoms: C_10  and  S_11
REMARK                            x       y       z     vdW  Elec       q    Type
REMARK                         _______ _______ _______ _____ _____    ______ ____
ROOT
ATOM      1  C   UNL     1      35.054 -19.224 -20.958  0.00  0.00    +0.000 C 
ENDROOT
BRANCH   1   2
ATOM      2  C   UNL     1      35.481 -17.785 -21.258  0.00  0.00    +0.000 C 
BRANCH   2   3
ATOM      3  C   UNL     1      34.279 -16.836 -21.245  0.00  0.00    +0.000 C 
BRANCH   3   4
ATOM      4  C   UNL     1      34.123 -16.122 -22.588  0.00  0.00    +0.000 C 
BRANCH   4   5
ATOM      5  C   UNL     1      35.155 -16.557 -23.633  0.00  0.00    +0.000 C 
BRANCH   5   6
ATOM      6  C   UNL     1      34.530 -17.163 -24.889  0.00  0.00    +0.000 C 
ATOM      7  C   UNL     1      34.451 -18.680 -24.793  0.00  0.00    +0.000 C 
ENDBRANCH   5   6
ENDBRANCH   4   5
ENDBRANCH   3   4
ENDBRANCH   2   3
ENDBRANCH   1   2
BRANCH   1   8
ATOM      8  C   UNL     1      36.214 -20.130 -20.532  0.00  0.00    +0.002 C 
BRANCH   8   9
ATOM      9  C   UNL     1      35.783 -21.275 -19.610  0.00  0.00    +0.026 C 
BRANCH   9  10
ATOM     10  C   UNL     1      34.270 -21.385 -19.471  0.00  0.00    +0.158 C 
BRANCH  10  11
ATOM     11  S   UNL     1      33.769 -22.722 -18.436  0.00  0.00    +0.023 S 
ATOM     12  O   UNL     1      33.924 -23.915 -19.537  0.00  0.00    -0.069 OA
ATOM     13  O   UNL     1      32.361 -22.568 -18.113  0.00  0.00    -0.069 OA
ATOM     14  O   UNL     1      34.767 -22.912 -17.399  0.00  0.00    -0.069 OA
ENDBRANCH  10  11
ENDBRANCH   9  10
ENDBRANCH   8   9
ENDBRANCH   1   8
TORSDOF 9
ENDMDL
MODEL 8
REMARK VINA RESULT:      -6.3      6.194      6.601
REMARK  Name = 49957
REMARK  9 active torsions:
REMARK  status: ('A' for Active; 'I' for Inactive)
REMARK    1  A    between atoms: C_1  and  C_2
REMARK    2  A    between atoms: C_1  and  C_8
REMARK    3  A    between atoms: C_2  and  C_3
REMARK    4  A    between atoms: C_3  and  C_4
REMARK    5  A    between atoms: C_4  and  C_5
REMARK    6  A    between atoms: C_5  and  C_6
REMARK    7  A    between atoms: C_8  and  C_9
REMARK    8  A    between atoms: C_9  and  C_10
REMARK    9  A    between atoms: C_10  and  S_11
REMARK                            x       y       z     vdW  Elec       q    Type
REMARK                         _______ _______ _______ _____ _____    ______ ____
ROOT
ATOM      1  C   UNL     1      36.176 -22.707 -16.021  0.00  0.00    +0.000 C 
ENDROOT
BRANCH   1   2
ATOM      2  C   UNL     1      37.098 -21.678 -16.678  0.00  0.00    +0.000 C 
BRANCH   2   3
ATOM      3  C   UNL     1      36.802 -21.544 -18.175  0.00  0.00    +0.000 C 
BRANCH   3   4
ATOM      4  C   UNL     1      35.359 -21.941 -18.492  0.00  0.00    +0.000 C 
BRANCH   4   5
ATOM      5  C   UNL     1      34.802 -21.261 -19.746  0.00  0.00    +0.000 C 
BRANCH   5   6
ATOM      6  C   UNL     1      33.281 -21.108 -19.730  0.00  0.00    +0.000 C 
ATOM      7  C   UNL     1      32.834 -19.934 -20.590  0.00  0.00    +0.000 C 
ENDBRANCH   5   6
ENDBRANCH   4   5
ENDBRANCH   3   4
ENDBRANCH   2   3
ENDBRANCH   1   2
BRANCH   1   8
ATOM      8  C   UNL     1      36.865 -23.540 -14.935  0.00  0.00    +0.002 C 
BRANCH   8   9
ATOM      9  C   UNL     1      35.928 -24.539 -14.249  0.00  0.00    +0.026 C 
BRANCH   9  10
ATOM     10  C   UNL     1      35.426 -24.046 -12.899  0.00  0.00    +0.158 C 
BRANCH  10  11
ATOM     11  S   UNL     1      36.201 -24.858 -11.538  0.00  0.00    +0.023 S 
ATOM     12  O   UNL     1      37.345 -23.733 -11.242  0.00  0.00    -0.069 OA
ATOM     13  O   UNL     1      36.850 -26.066 -12.016  0.00  0.00    -0.069 OA
ATOM     14  O   UNL     1      35.276 -24.886 -10.420  0.00  0.00    -0.069 OA
ENDBRANCH  10  11
ENDBRANCH   9  10
ENDBRANCH   8   9
ENDBRANCH   1   8
TORSDOF 9
ENDMDL
MODEL 9
REMARK VINA RESULT:      -6.3      6.488      9.540
REMARK  Name = 49957
REMARK  9 active torsions:
REMARK  status: ('A' for Active; 'I' for Inactive)
REMARK    1  A    between atoms: C_1  and  C_2
REMARK    2  A    between atoms: C_1  and  C_8
REMARK    3  A    between atoms: C_2  and  C_3
REMARK    4  A    between atoms: C_3  and  C_4
REMARK    5  A    between atoms: C_4  and  C_5
REMARK    6  A    between atoms: C_5  and  C_6
REMARK    7  A    between atoms: C_8  and  C_9
REMARK    8  A    between atoms: C_9  and  C_10
REMARK    9  A    between atoms: C_10  and  S_11
REMARK                            x       y       z     vdW  Elec       q    Type
REMARK                         _______ _______ _______ _____ _____    ______ ____
ROOT
ATOM      1  C   UNL     1      34.873 -16.759 -24.522  0.00  0.00    +0.000 C 
ENDROOT
BRANCH   1   2
ATOM      2  C   UNL     1      34.371 -18.183 -24.775  0.00  0.00    +0.000 C 
BRANCH   2   3
ATOM      3  C   UNL     1      35.006 -19.176 -23.797  0.00  0.00    +0.000 C 
BRANCH   3   4
ATOM      4  C   UNL     1      35.165 -18.559 -22.407  0.00  0.00    +0.000 C 
BRANCH   4   5
ATOM      5  C   UNL     1      34.869 -19.540 -21.268  0.00  0.00    +0.000 C 
BRANCH   5   6
ATOM      6  C   UNL     1      33.378 -19.687 -20.965  0.00  0.00    +0.000 C 
ATOM      7  C   UNL     1      33.130 -20.758 -19.913  0.00  0.00    +0.000 C 
ENDBRANCH   5   6
ENDBRANCH   4   5
ENDBRANCH   3   4
ENDBRANCH   2   3
ENDBRANCH   1   2
BRANCH   1   8
ATOM      8  C   UNL     1      33.857 -15.677 -24.902  0.00  0.00    +0.002 C 
BRANCH   8   9
ATOM      9  C   UNL     1      33.316 -14.901 -23.697  0.00  0.00    +0.026 C 
BRANCH   9  10
ATOM     10  C   UNL     1      34.383 -14.620 -22.648  0.00  0.00    +0.158 C 
BRANCH  10  11
ATOM     11  S   UNL     1      33.808 -14.860 -20.998  0.00  0.00    +0.023 S 
ATOM     12  O   UNL     1      32.877 -16.168 -21.285  0.00  0.00    -0.069 OA
ATOM     13  O   UNL     1      32.949 -13.748 -20.630  0.00  0.00    -0.069 OA
ATOM     14  O   UNL     1      34.928 -15.260 -20.164  0.00  0.00    -0.069 OA
ENDBRANCH  10  11
ENDBRANCH   9  10
ENDBRANCH   8   9
ENDBRANCH   1   8
TORSDOF 9
ENDMDL
