MODEL 1
REMARK VINA RESULT:      -8.8      0.000      0.000
REMARK  Name = 5282411
REMARK  13 active torsions:
REMARK  status: ('A' for Active; 'I' for Inactive)
REMARK    1  A    between atoms: C_4  and  C_12
REMARK    2  A    between atoms: C_5  and  O_10
REMARK    3  A    between atoms: C_9  and  C_22
REMARK    4  A    between atoms: C_13  and  C_14
REMARK    5  A    between atoms: C_14  and  O_15
REMARK    6  A    between atoms: C_14  and  C_17
REMARK    7  A    between atoms: C_17  and  C_18
REMARK    8  A    between atoms: C_18  and  C_19
REMARK    9  A    between atoms: C_19  and  C_20
REMARK   10  A    between atoms: C_22  and  C_23
REMARK   11  A    between atoms: C_23  and  C_24
REMARK   12  A    between atoms: C_24  and  C_26
REMARK   13  A    between atoms: C_26  and  O_27
REMARK                            x       y       z     vdW  Elec       q    Type
REMARK                         _______ _______ _______ _____ _____    ______ ____
ROOT
ATOM      1  O   UNL     1      34.568 -19.491 -22.727  0.00  0.00    -0.484 OA
ATOM      2  C   UNL     1      35.546 -17.335 -22.998  0.00  0.00    +0.054 C 
ATOM      3  C   UNL     1      35.462 -18.746 -23.571  0.00  0.00    +0.169 C 
ATOM      4  C   UNL     1      34.432 -16.577 -23.737  0.00  0.00    +0.053 C 
ATOM      5  C   UNL     1      34.570 -17.121 -25.161  0.00  0.00    +0.118 C 
ATOM      6  C   UNL     1      34.864 -18.613 -24.972  0.00  0.00    +0.073 C 
ATOM      7  C   UNL     1      35.311 -17.545 -21.520  0.00  0.00    +0.068 C 
ATOM      8  C   UNL     1      34.497 -18.796 -21.529  0.00  0.00    +0.112 C 
ATOM      9  C   UNL     1      33.716 -19.211 -20.526  0.00  0.00    +0.006 C 
ENDROOT
BRANCH   5  10
ATOM     10  O   UNL     1      33.371 -16.930 -25.892  0.00  0.00    -0.384 OA
ATOM     11  H   UNL     1      32.658 -17.446 -25.484  0.00  0.00    +0.210 HD
ENDBRANCH   5  10
BRANCH   4  12
ATOM     12  C   UNL     1      34.590 -15.094 -23.649  0.00  0.00    -0.026 C 
ATOM     13  C   UNL     1      33.666 -14.219 -24.072  0.00  0.00    -0.002 C 
BRANCH  13  14
ATOM     14  C   UNL     1      33.830 -12.728 -23.984  0.00  0.00    +0.132 C 
BRANCH  14  15
ATOM     15  O   UNL     1      33.604 -12.172 -25.281  0.00  0.00    -0.380 OA
ATOM     16  H   UNL     1      34.407 -11.718 -25.581  0.00  0.00    +0.211 HD
ENDBRANCH  14  15
BRANCH  14  17
ATOM     17  C   UNL     1      32.828 -12.074 -23.023  0.00  0.00    +0.034 C 
BRANCH  17  18
ATOM     18  C   UNL     1      31.982 -13.089 -22.248  0.00  0.00    +0.003 C 
BRANCH  18  19
ATOM     19  C   UNL     1      32.362 -13.193 -20.767  0.00  0.00    +0.000 C 
BRANCH  19  20
ATOM     20  C   UNL     1      33.088 -14.491 -20.414  0.00  0.00    +0.000 C 
ATOM     21  C   UNL     1      32.259 -15.710 -20.791  0.00  0.00    +0.000 C 
ENDBRANCH  19  20
ENDBRANCH  18  19
ENDBRANCH  17  18
ENDBRANCH  14  17
ENDBRANCH  13  14
ENDBRANCH   4  12
BRANCH   9  22
ATOM     22  C   UNL     1      32.906 -20.474 -20.558  0.00  0.00    +0.029 C 
BRANCH  22  23
ATOM     23  C   UNL     1      33.329 -21.432 -19.440  0.00  0.00    +0.016 C 
BRANCH  23  24
ATOM     24  C   UNL     1      34.671 -22.101 -19.722  0.00  0.00    +0.110 C 
BRANCH  24  26
ATOM     25  O   UNL     1      36.522 -20.781 -18.905  0.00  0.00    -0.250 OA
ATOM     26  C   UNL     1      35.734 -21.701 -18.729  0.00  0.00    +0.314 C 
BRANCH  26  27
ATOM     27  O   UNL     1      35.727 -22.475 -17.615  0.00  0.00    -0.480 OA
ATOM     28  H   UNL     1      34.923 -22.635 -17.161  0.00  0.00    +0.295 HD
ENDBRANCH  26  27
ENDBRANCH  24  26
ENDBRANCH  23  24
ENDBRANCH  22  23
ENDBRANCH   9  22
TORSDOF 13
ENDMDL
MODEL 2
REMARK VINA RESULT:      -8.5      1.031      1.649
REMARK  Name = 5282411
REMARK  13 active torsions:
REMARK  status: ('A' for Active; 'I' for Inactive)
REMARK    1  A    between atoms: C_4  and  C_12
REMARK    2  A    between atoms: C_5  and  O_10
REMARK    3  A    between atoms: C_9  and  C_22
REMARK    4  A    between atoms: C_13  and  C_14
REMARK    5  A    between atoms: C_14  and  O_15
REMARK    6  A    between atoms: C_14  and  C_17
REMARK    7  A    between atoms: C_17  and  C_18
REMARK    8  A    between atoms: C_18  and  C_19
REMARK    9  A    between atoms: C_19  and  C_20
REMARK   10  A    between atoms: C_22  and  C_23
REMARK   11  A    between atoms: C_23  and  C_24
REMARK   12  A    between atoms: C_24  and  C_26
REMARK   13  A    between atoms: C_26  and  O_27
REMARK                            x       y       z     vdW  Elec       q    Type
REMARK                         _______ _______ _______ _____ _____    ______ ____
ROOT
ATOM      1  O   UNL     1      34.565 -19.411 -22.742  0.00  0.00    -0.484 OA
ATOM      2  C   UNL     1      35.509 -17.235 -22.973  0.00  0.00    +0.054 C 
ATOM      3  C   UNL     1      35.455 -18.639 -23.566  0.00  0.00    +0.169 C 
ATOM      4  C   UNL     1      34.390 -16.485 -23.713  0.00  0.00    +0.053 C 
ATOM      5  C   UNL     1      34.551 -17.006 -25.142  0.00  0.00    +0.118 C 
ATOM      6  C   UNL     1      34.869 -18.496 -24.972  0.00  0.00    +0.073 C 
ATOM      7  C   UNL     1      35.264 -17.470 -21.501  0.00  0.00    +0.068 C 
ATOM      8  C   UNL     1      34.471 -18.734 -21.535  0.00  0.00    +0.112 C 
ATOM      9  C   UNL     1      33.687 -19.176 -20.547  0.00  0.00    +0.006 C 
ENDROOT
BRANCH   5  10
ATOM     10  O   UNL     1      33.357 -16.825 -25.883  0.00  0.00    -0.384 OA
ATOM     11  H   UNL     1      32.931 -15.997 -25.610  0.00  0.00    +0.210 HD
ENDBRANCH   5  10
BRANCH   4  12
ATOM     12  C   UNL     1      34.522 -15.001 -23.602  0.00  0.00    -0.026 C 
ATOM     13  C   UNL     1      33.487 -14.152 -23.681  0.00  0.00    -0.002 C 
BRANCH  13  14
ATOM     14  C   UNL     1      33.624 -12.660 -23.571  0.00  0.00    +0.132 C 
BRANCH  14  15
ATOM     15  O   UNL     1      33.886 -12.134 -24.874  0.00  0.00    -0.380 OA
ATOM     16  H   UNL     1      33.985 -12.865 -25.503  0.00  0.00    +0.211 HD
ENDBRANCH  14  15
BRANCH  14  17
ATOM     17  C   UNL     1      32.351 -11.980 -23.048  0.00  0.00    +0.034 C 
BRANCH  17  18
ATOM     18  C   UNL     1      31.901 -12.509 -21.683  0.00  0.00    +0.003 C 
BRANCH  18  19
ATOM     19  C   UNL     1      31.045 -11.511 -20.896  0.00  0.00    +0.000 C 
BRANCH  19  20
ATOM     20  C   UNL     1      31.554 -11.256 -19.478  0.00  0.00    +0.000 C 
ATOM     21  C   UNL     1      31.871  -9.784 -19.259  0.00  0.00    +0.000 C 
ENDBRANCH  19  20
ENDBRANCH  18  19
ENDBRANCH  17  18
ENDBRANCH  14  17
ENDBRANCH  13  14
ENDBRANCH   4  12
BRANCH   9  22
ATOM     22  C   UNL     1      32.899 -20.452 -20.605  0.00  0.00    +0.029 C 
BRANCH  22  23
ATOM     23  C   UNL     1      33.255 -21.378 -19.437  0.00  0.00    +0.016 C 
BRANCH  23  24
ATOM     24  C   UNL     1      34.543 -22.158 -19.682  0.00  0.00    +0.110 C 
BRANCH  24  26
ATOM     25  O   UNL     1      35.711 -22.495 -17.594  0.00  0.00    -0.250 OA
ATOM     26  C   UNL     1      35.597 -21.872 -18.641  0.00  0.00    +0.314 C 
BRANCH  26  27
ATOM     27  O   UNL     1      36.409 -20.842 -18.989  0.00  0.00    -0.480 OA
ATOM     28  H   UNL     1      36.528 -20.623 -19.893  0.00  0.00    +0.295 HD
ENDBRANCH  26  27
ENDBRANCH  24  26
ENDBRANCH  23  24
ENDBRANCH  22  23
ENDBRANCH   9  22
TORSDOF 13
ENDMDL
MODEL 3
REMARK VINA RESULT:      -8.4      2.653      5.345
REMARK  Name = 5282411
REMARK  13 active torsions:
REMARK  status: ('A' for Active; 'I' for Inactive)
REMARK    1  A    between atoms: C_4  and  C_12
REMARK    2  A    between atoms: C_5  and  O_10
REMARK    3  A    between atoms: C_9  and  C_22
REMARK    4  A    between atoms: C_13  and  C_14
REMARK    5  A    between atoms: C_14  and  O_15
REMARK    6  A    between atoms: C_14  and  C_17
REMARK    7  A    between atoms: C_17  and  C_18
REMARK    8  A    between atoms: C_18  and  C_19
REMARK    9  A    between atoms: C_19  and  C_20
REMARK   10  A    between atoms: C_22  and  C_23
REMARK   11  A    between atoms: C_23  and  C_24
REMARK   12  A    between atoms: C_24  and  C_26
REMARK   13  A    between atoms: C_26  and  O_27
REMARK                            x       y       z     vdW  Elec       q    Type
REMARK                         _______ _______ _______ _____ _____    ______ ____
ROOT
ATOM      1  O   UNL     1      35.171 -22.505 -18.187  0.00  0.00    -0.484 OA
ATOM      2  C   UNL     1      35.521 -21.431 -20.286  0.00  0.00    +0.054 C 
ATOM      3  C   UNL     1      34.736 -22.517 -19.558  0.00  0.00    +0.169 C 
ATOM      4  C   UNL     1      34.627 -20.188 -20.154  0.00  0.00    +0.053 C 
ATOM      5  C   UNL     1      33.232 -20.775 -20.375  0.00  0.00    +0.118 C 
ATOM      6  C   UNL     1      33.261 -22.118 -19.637  0.00  0.00    +0.073 C 
ATOM      7  C   UNL     1      36.823 -21.373 -19.523  0.00  0.00    +0.068 C 
ATOM      8  C   UNL     1      36.395 -21.852 -18.176  0.00  0.00    +0.112 C 
ATOM      9  C   UNL     1      37.064 -21.643 -17.038  0.00  0.00    +0.006 C 
ENDROOT
BRANCH   5  10
ATOM     10  O   UNL     1      32.235 -19.923 -19.837  0.00  0.00    -0.384 OA
ATOM     11  H   UNL     1      32.016 -19.235 -20.485  0.00  0.00    +0.210 HD
ENDBRANCH   5  10
BRANCH   4  12
ATOM     12  C   UNL     1      34.985 -19.117 -21.132  0.00  0.00    -0.026 C 
ATOM     13  C   UNL     1      34.944 -19.279 -22.463  0.00  0.00    -0.002 C 
BRANCH  13  14
ATOM     14  C   UNL     1      35.307 -18.200 -23.444  0.00  0.00    +0.132 C 
BRANCH  14  15
ATOM     15  O   UNL     1      34.262 -18.103 -24.414  0.00  0.00    -0.380 OA
ATOM     16  H   UNL     1      33.764 -18.934 -24.437  0.00  0.00    +0.211 HD
ENDBRANCH  14  15
BRANCH  14  17
ATOM     17  C   UNL     1      35.455 -16.821 -22.787  0.00  0.00    +0.034 C 
BRANCH  17  18
ATOM     18  C   UNL     1      34.713 -15.711 -23.539  0.00  0.00    +0.003 C 
BRANCH  18  19
ATOM     19  C   UNL     1      34.225 -14.581 -22.627  0.00  0.00    +0.000 C 
BRANCH  19  20
ATOM     20  C   UNL     1      34.276 -14.932 -21.140  0.00  0.00    +0.000 C 
ATOM     21  C   UNL     1      32.880 -15.138 -20.572  0.00  0.00    +0.000 C 
ENDBRANCH  19  20
ENDBRANCH  18  19
ENDBRANCH  17  18
ENDBRANCH  14  17
ENDBRANCH  13  14
ENDBRANCH   4  12
BRANCH   9  22
ATOM     22  C   UNL     1      36.612 -22.136 -15.694  0.00  0.00    +0.029 C 
BRANCH  22  23
ATOM     23  C   UNL     1      37.293 -23.460 -15.332  0.00  0.00    +0.016 C 
BRANCH  23  24
ATOM     24  C   UNL     1      36.293 -24.596 -15.139  0.00  0.00    +0.110 C 
BRANCH  24  26
ATOM     25  O   UNL     1      37.246 -26.250 -13.658  0.00  0.00    -0.250 OA
ATOM     26  C   UNL     1      36.966 -25.903 -14.797  0.00  0.00    +0.314 C 
BRANCH  26  27
ATOM     27  O   UNL     1      37.233 -26.655 -15.894  0.00  0.00    -0.480 OA
ATOM     28  H   UNL     1      36.766 -26.503 -16.692  0.00  0.00    +0.295 HD
ENDBRANCH  26  27
ENDBRANCH  24  26
ENDBRANCH  23  24
ENDBRANCH  22  23
ENDBRANCH   9  22
TORSDOF 13
ENDMDL
MODEL 4
REMARK VINA RESULT:      -8.4      1.948      3.012
REMARK  Name = 5282411
REMARK  13 active torsions:
REMARK  status: ('A' for Active; 'I' for Inactive)
REMARK    1  A    between atoms: C_4  and  C_12
REMARK    2  A    between atoms: C_5  and  O_10
REMARK    3  A    between atoms: C_9  and  C_22
REMARK    4  A    between atoms: C_13  and  C_14
REMARK    5  A    between atoms: C_14  and  O_15
REMARK    6  A    between atoms: C_14  and  C_17
REMARK    7  A    between atoms: C_17  and  C_18
REMARK    8  A    between atoms: C_18  and  C_19
REMARK    9  A    between atoms: C_19  and  C_20
REMARK   10  A    between atoms: C_22  and  C_23
REMARK   11  A    between atoms: C_23  and  C_24
REMARK   12  A    between atoms: C_24  and  C_26
REMARK   13  A    between atoms: C_26  and  O_27
REMARK                            x       y       z     vdW  Elec       q    Type
REMARK                         _______ _______ _______ _____ _____    ______ ____
ROOT
ATOM      1  O   UNL     1      34.563 -18.847 -22.781  0.00  0.00    -0.484 OA
ATOM      2  C   UNL     1      35.152 -16.543 -22.946  0.00  0.00    +0.054 C 
ATOM      3  C   UNL     1      35.399 -17.936 -23.517  0.00  0.00    +0.169 C 
ATOM      4  C   UNL     1      34.013 -15.991 -23.817  0.00  0.00    +0.053 C 
ATOM      5  C   UNL     1      34.416 -16.477 -25.211  0.00  0.00    +0.118 C 
ATOM      6  C   UNL     1      34.956 -17.893 -24.980  0.00  0.00    +0.073 C 
ATOM      7  C   UNL     1      34.787 -16.817 -21.506  0.00  0.00    +0.068 C 
ATOM      8  C   UNL     1      34.224 -18.196 -21.604  0.00  0.00    +0.112 C 
ATOM      9  C   UNL     1      33.421 -18.763 -20.699  0.00  0.00    +0.006 C 
ENDROOT
BRANCH   5  10
ATOM     10  O   UNL     1      33.298 -16.497 -26.081  0.00  0.00    -0.384 OA
ATOM     11  H   UNL     1      32.673 -17.179 -25.787  0.00  0.00    +0.210 HD
ENDBRANCH   5  10
BRANCH   4  12
ATOM     12  C   UNL     1      33.884 -14.506 -23.719  0.00  0.00    -0.026 C 
ATOM     13  C   UNL     1      32.721 -13.871 -23.510  0.00  0.00    -0.002 C 
BRANCH  13  14
ATOM     14  C   UNL     1      32.594 -12.377 -23.414  0.00  0.00    +0.132 C 
BRANCH  14  15
ATOM     15  O   UNL     1      32.429 -12.025 -22.039  0.00  0.00    -0.380 OA
ATOM     16  H   UNL     1      32.884 -11.187 -21.863  0.00  0.00    +0.211 HD
ENDBRANCH  14  15
BRANCH  14  17
ATOM     17  C   UNL     1      33.835 -11.637 -23.932  0.00  0.00    +0.034 C 
BRANCH  17  18
ATOM     18  C   UNL     1      33.601 -10.138 -24.143  0.00  0.00    +0.003 C 
BRANCH  18  19
ATOM     19  C   UNL     1      34.897  -9.323 -24.205  0.00  0.00    +0.000 C 
BRANCH  19  20
ATOM     20  C   UNL     1      34.789  -7.954 -23.534  0.00  0.00    +0.000 C 
ATOM     21  C   UNL     1      34.364  -6.883 -24.527  0.00  0.00    +0.000 C 
ENDBRANCH  19  20
ENDBRANCH  18  19
ENDBRANCH  17  18
ENDBRANCH  14  17
ENDBRANCH  13  14
ENDBRANCH   4  12
BRANCH   9  22
ATOM     22  C   UNL     1      32.867 -20.153 -20.820  0.00  0.00    +0.029 C 
BRANCH  22  23
ATOM     23  C   UNL     1      33.471 -21.084 -19.764  0.00  0.00    +0.016 C 
BRANCH  23  24
ATOM     24  C   UNL     1      34.983 -21.228 -19.909  0.00  0.00    +0.110 C 
BRANCH  24  26
ATOM     25  O   UNL     1      36.757 -21.663 -18.327  0.00  0.00    -0.250 OA
ATOM     26  C   UNL     1      35.616 -21.888 -18.709  0.00  0.00    +0.314 C 
BRANCH  26  27
ATOM     27  O   UNL     1      34.784 -22.768 -18.097  0.00  0.00    -0.480 OA
ATOM     28  H   UNL     1      33.877 -22.794 -18.330  0.00  0.00    +0.295 HD
ENDBRANCH  26  27
ENDBRANCH  24  26
ENDBRANCH  23  24
ENDBRANCH  22  23
ENDBRANCH   9  22
TORSDOF 13
ENDMDL
MODEL 5
REMARK VINA RESULT:      -8.3      2.552      3.512
REMARK  Name = 5282411
REMARK  13 active torsions:
REMARK  status: ('A' for Active; 'I' for Inactive)
REMARK    1  A    between atoms: C_4  and  C_12
REMARK    2  A    between atoms: C_5  and  O_10
REMARK    3  A    between atoms: C_9  and  C_22
REMARK    4  A    between atoms: C_13  and  C_14
REMARK    5  A    between atoms: C_14  and  O_15
REMARK    6  A    between atoms: C_14  and  C_17
REMARK    7  A    between atoms: C_17  and  C_18
REMARK    8  A    between atoms: C_18  and  C_19
REMARK    9  A    between atoms: C_19  and  C_20
REMARK   10  A    between atoms: C_22  and  C_23
REMARK   11  A    between atoms: C_23  and  C_24
REMARK   12  A    between atoms: C_24  and  C_26
REMARK   13  A    between atoms: C_26  and  O_27
REMARK                            x       y       z     vdW  Elec       q    Type
REMARK                         _______ _______ _______ _____ _____    ______ ____
ROOT
ATOM      1  O   UNL     1      34.647 -17.457 -23.172  0.00  0.00    -0.484 OA
ATOM      2  C   UNL     1      34.687 -15.094 -22.861  0.00  0.00    +0.054 C 
ATOM      3  C   UNL     1      35.138 -16.240 -23.760  0.00  0.00    +0.169 C 
ATOM      4  C   UNL     1      33.333 -14.677 -23.457  0.00  0.00    +0.053 C 
ATOM      5  C   UNL     1      33.609 -14.760 -24.960  0.00  0.00    +0.118 C 
ATOM      6  C   UNL     1      34.474 -16.016 -25.120  0.00  0.00    +0.073 C 
ATOM      7  C   UNL     1      34.620 -15.731 -21.493  0.00  0.00    +0.068 C 
ATOM      8  C   UNL     1      34.362 -17.158 -21.847  0.00  0.00    +0.112 C 
ATOM      9  C   UNL     1      33.853 -18.075 -21.019  0.00  0.00    +0.006 C 
ENDROOT
BRANCH   5  10
ATOM     10  O   UNL     1      32.401 -14.882 -25.689  0.00  0.00    -0.384 OA
ATOM     11  H   UNL     1      32.600 -15.139 -26.603  0.00  0.00    +0.210 HD
ENDBRANCH   5  10
BRANCH   4  12
ATOM     12  C   UNL     1      32.900 -13.321 -23.006  0.00  0.00    -0.026 C 
ATOM     13  C   UNL     1      32.043 -13.109 -21.996  0.00  0.00    -0.002 C 
BRANCH  13  14
ATOM     14  C   UNL     1      31.608 -11.743 -21.546  0.00  0.00    +0.132 C 
BRANCH  14  15
ATOM     15  O   UNL     1      30.202 -11.621 -21.769  0.00  0.00    -0.380 OA
ATOM     16  H   UNL     1      29.795 -11.161 -21.019  0.00  0.00    +0.211 HD
ENDBRANCH  14  15
BRANCH  14  17
ATOM     17  C   UNL     1      31.859 -11.498 -20.052  0.00  0.00    +0.034 C 
BRANCH  17  18
ATOM     18  C   UNL     1      31.748 -10.023 -19.654  0.00  0.00    +0.003 C 
BRANCH  18  19
ATOM     19  C   UNL     1      32.215  -9.061 -20.751  0.00  0.00    +0.000 C 
BRANCH  19  20
ATOM     20  C   UNL     1      32.682  -7.707 -20.217  0.00  0.00    +0.000 C 
ATOM     21  C   UNL     1      31.879  -6.565 -20.821  0.00  0.00    +0.000 C 
ENDBRANCH  19  20
ENDBRANCH  18  19
ENDBRANCH  17  18
ENDBRANCH  14  17
ENDBRANCH  13  14
ENDBRANCH   4  12
BRANCH   9  22
ATOM     22  C   UNL     1      33.603 -19.506 -21.399  0.00  0.00    +0.029 C 
BRANCH  22  23
ATOM     23  C   UNL     1      33.120 -20.323 -20.197  0.00  0.00    +0.016 C 
BRANCH  23  24
ATOM     24  C   UNL     1      34.184 -21.288 -19.682  0.00  0.00    +0.110 C 
BRANCH  24  26
ATOM     25  O   UNL     1      34.003 -23.685 -19.438  0.00  0.00    -0.250 OA
ATOM     26  C   UNL     1      33.590 -22.569 -19.151  0.00  0.00    +0.314 C 
BRANCH  26  27
ATOM     27  O   UNL     1      32.540 -22.353 -18.319  0.00  0.00    -0.480 OA
ATOM     28  H   UNL     1      31.672 -22.289 -18.667  0.00  0.00    +0.295 HD
ENDBRANCH  26  27
ENDBRANCH  24  26
ENDBRANCH  23  24
ENDBRANCH  22  23
ENDBRANCH   9  22
TORSDOF 13
ENDMDL
MODEL 6
REMARK VINA RESULT:      -8.2      4.258      8.147
REMARK  Name = 5282411
REMARK  13 active torsions:
REMARK  status: ('A' for Active; 'I' for Inactive)
REMARK    1  A    between atoms: C_4  and  C_12
REMARK    2  A    between atoms: C_5  and  O_10
REMARK    3  A    between atoms: C_9  and  C_22
REMARK    4  A    between atoms: C_13  and  C_14
REMARK    5  A    between atoms: C_14  and  O_15
REMARK    6  A    between atoms: C_14  and  C_17
REMARK    7  A    between atoms: C_17  and  C_18
REMARK    8  A    between atoms: C_18  and  C_19
REMARK    9  A    between atoms: C_19  and  C_20
REMARK   10  A    between atoms: C_22  and  C_23
REMARK   11  A    between atoms: C_23  and  C_24
REMARK   12  A    between atoms: C_24  and  C_26
REMARK   13  A    between atoms: C_26  and  O_27
REMARK                            x       y       z     vdW  Elec       q    Type
REMARK                         _______ _______ _______ _____ _____    ______ ____
ROOT
ATOM      1  O   UNL     1      32.096 -12.433 -21.687  0.00  0.00    -0.484 OA
ATOM      2  C   UNL     1      31.272 -10.214 -21.958  0.00  0.00    +0.054 C 
ATOM      3  C   UNL     1      31.071 -11.536 -21.226  0.00  0.00    +0.169 C 
ATOM      4  C   UNL     1      32.199  -9.419 -21.025  0.00  0.00    +0.053 C 
ATOM      5  C   UNL     1      31.628  -9.758 -19.646  0.00  0.00    +0.118 C 
ATOM      6  C   UNL     1      31.269 -11.245 -19.737  0.00  0.00    +0.073 C 
ATOM      7  C   UNL     1      31.886 -10.633 -23.273  0.00  0.00    +0.068 C 
ATOM      8  C   UNL     1      32.555 -11.911 -22.888  0.00  0.00    +0.112 C 
ATOM      9  C   UNL     1      33.542 -12.497 -23.572  0.00  0.00    +0.006 C 
ENDROOT
BRANCH   5  10
ATOM     10  O   UNL     1      32.590  -9.530 -18.632  0.00  0.00    -0.384 OA
ATOM     11  H   UNL     1      32.173  -9.634 -17.762  0.00  0.00    +0.210 HD
ENDBRANCH   5  10
BRANCH   4  12
ATOM     12  C   UNL     1      32.201  -7.956 -21.326  0.00  0.00    -0.026 C 
ATOM     13  C   UNL     1      31.349  -7.369 -22.179  0.00  0.00    -0.002 C 
BRANCH  13  14
ATOM     14  C   UNL     1      31.355  -5.897 -22.481  0.00  0.00    +0.132 C 
BRANCH  14  15
ATOM     15  O   UNL     1      32.113  -5.232 -21.469  0.00  0.00    -0.380 OA
ATOM     16  H   UNL     1      31.742  -5.441 -20.598  0.00  0.00    +0.211 HD
ENDBRANCH  14  15
BRANCH  14  17
ATOM     17  C   UNL     1      32.002  -5.568 -23.833  0.00  0.00    +0.034 C 
BRANCH  17  18
ATOM     18  C   UNL     1      32.679  -6.775 -24.489  0.00  0.00    +0.003 C 
BRANCH  18  19
ATOM     19  C   UNL     1      34.208  -6.677 -24.513  0.00  0.00    +0.000 C 
BRANCH  19  20
ATOM     20  C   UNL     1      34.898  -7.679 -23.588  0.00  0.00    +0.000 C 
ATOM     21  C   UNL     1      34.932  -9.070 -24.205  0.00  0.00    +0.000 C 
ENDBRANCH  19  20
ENDBRANCH  18  19
ENDBRANCH  17  18
ENDBRANCH  14  17
ENDBRANCH  13  14
ENDBRANCH   4  12
BRANCH   9  22
ATOM     22  C   UNL     1      34.200 -13.783 -23.164  0.00  0.00    +0.029 C 
BRANCH  22  23
ATOM     23  C   UNL     1      33.473 -14.991 -23.764  0.00  0.00    +0.016 C 
BRANCH  23  24
ATOM     24  C   UNL     1      34.398 -16.187 -23.968  0.00  0.00    +0.110 C 
BRANCH  24  26
ATOM     25  O   UNL     1      34.601 -17.911 -25.648  0.00  0.00    -0.250 OA
ATOM     26  C   UNL     1      34.300 -16.761 -25.359  0.00  0.00    +0.314 C 
BRANCH  26  27
ATOM     27  O   UNL     1      33.845 -15.859 -26.265  0.00  0.00    -0.480 OA
ATOM     28  H   UNL     1      33.260 -15.178 -25.995  0.00  0.00    +0.295 HD
ENDBRANCH  26  27
ENDBRANCH  24  26
ENDBRANCH  23  24
ENDBRANCH  22  23
ENDBRANCH   9  22
TORSDOF 13
ENDMDL
MODEL 7
REMARK VINA RESULT:      -8.1      7.816     10.497
REMARK  Name = 5282411
REMARK  13 active torsions:
REMARK  status: ('A' for Active; 'I' for Inactive)
REMARK    1  A    between atoms: C_4  and  C_12
REMARK    2  A    between atoms: C_5  and  O_10
REMARK    3  A    between atoms: C_9  and  C_22
REMARK    4  A    between atoms: C_13  and  C_14
REMARK    5  A    between atoms: C_14  and  O_15
REMARK    6  A    between atoms: C_14  and  C_17
REMARK    7  A    between atoms: C_17  and  C_18
REMARK    8  A    between atoms: C_18  and  C_19
REMARK    9  A    between atoms: C_19  and  C_20
REMARK   10  A    between atoms: C_22  and  C_23
REMARK   11  A    between atoms: C_23  and  C_24
REMARK   12  A    between atoms: C_24  and  C_26
REMARK   13  A    between atoms: C_26  and  O_27
REMARK                            x       y       z     vdW  Elec       q    Type
REMARK                         _______ _______ _______ _____ _____    ______ ____
ROOT
ATOM      1  O   UNL     1      36.221 -23.637 -15.866  0.00  0.00    -0.484 OA
ATOM      2  C   UNL     1      33.961 -22.891 -15.748  0.00  0.00    +0.054 C 
ATOM      3  C   UNL     1      35.369 -22.532 -16.213  0.00  0.00    +0.169 C 
ATOM      4  C   UNL     1      33.339 -23.580 -16.972  0.00  0.00    +0.053 C 
ATOM      5  C   UNL     1      33.855 -22.712 -18.122  0.00  0.00    +0.118 C 
ATOM      6  C   UNL     1      35.302 -22.386 -17.735  0.00  0.00    +0.073 C 
ATOM      7  C   UNL     1      34.206 -23.788 -14.558  0.00  0.00    +0.068 C 
ATOM      8  C   UNL     1      35.546 -24.355 -14.890  0.00  0.00    +0.112 C 
ATOM      9  C   UNL     1      36.058 -25.473 -14.367  0.00  0.00    +0.006 C 
ENDROOT
BRANCH   5  10
ATOM     10  O   UNL     1      33.807 -23.418 -19.349  0.00  0.00    -0.384 OA
ATOM     11  H   UNL     1      33.340 -22.884 -20.011  0.00  0.00    +0.210 HD
ENDBRANCH   5  10
BRANCH   4  12
ATOM     12  C   UNL     1      31.849 -23.647 -16.899  0.00  0.00    -0.026 C 
ATOM     13  C   UNL     1      31.092 -22.740 -16.262  0.00  0.00    -0.002 C 
BRANCH  13  14
ATOM     14  C   UNL     1      29.593 -22.812 -16.189  0.00  0.00    +0.132 C 
BRANCH  14  15
ATOM     15  O   UNL     1      29.053 -22.122 -17.317  0.00  0.00    -0.380 OA
ATOM     16  H   UNL     1      28.720 -21.256 -17.037  0.00  0.00    +0.211 HD
ENDBRANCH  14  15
BRANCH  14  17
ATOM     17  C   UNL     1      29.061 -24.251 -16.230  0.00  0.00    +0.034 C 
BRANCH  17  18
ATOM     18  C   UNL     1      28.937 -24.889 -14.843  0.00  0.00    +0.003 C 
BRANCH  18  19
ATOM     19  C   UNL     1      30.113 -25.804 -14.487  0.00  0.00    +0.000 C 
BRANCH  19  20
ATOM     20  C   UNL     1      31.175 -25.124 -13.623  0.00  0.00    +0.000 C 
ATOM     21  C   UNL     1      30.595 -23.943 -12.860  0.00  0.00    +0.000 C 
ENDBRANCH  19  20
ENDBRANCH  18  19
ENDBRANCH  17  18
ENDBRANCH  14  17
ENDBRANCH  13  14
ENDBRANCH   4  12
BRANCH   9  22
ATOM     22  C   UNL     1      37.410 -26.024 -14.717  0.00  0.00    +0.029 C 
BRANCH  22  23
ATOM     23  C   UNL     1      38.387 -25.878 -13.547  0.00  0.00    +0.016 C 
BRANCH  23  24
ATOM     24  C   UNL     1      39.688 -25.193 -13.955  0.00  0.00    +0.110 C 
BRANCH  24  26
ATOM     25  O   UNL     1      41.392 -26.897 -14.132  0.00  0.00    -0.250 OA
ATOM     26  C   UNL     1      40.624 -26.123 -14.687  0.00  0.00    +0.314 C 
BRANCH  26  27
ATOM     27  O   UNL     1      40.526 -26.007 -16.035  0.00  0.00    -0.480 OA
ATOM     28  H   UNL     1      41.284 -26.127 -16.572  0.00  0.00    +0.295 HD
ENDBRANCH  26  27
ENDBRANCH  24  26
ENDBRANCH  23  24
ENDBRANCH  22  23
ENDBRANCH   9  22
TORSDOF 13
ENDMDL
MODEL 8
REMARK VINA RESULT:      -8.0      2.380      8.651
REMARK  Name = 5282411
REMARK  13 active torsions:
REMARK  status: ('A' for Active; 'I' for Inactive)
REMARK    1  A    between atoms: C_4  and  C_12
REMARK    2  A    between atoms: C_5  and  O_10
REMARK    3  A    between atoms: C_9  and  C_22
REMARK    4  A    between atoms: C_13  and  C_14
REMARK    5  A    between atoms: C_14  and  O_15
REMARK    6  A    between atoms: C_14  and  C_17
REMARK    7  A    between atoms: C_17  and  C_18
REMARK    8  A    between atoms: C_18  and  C_19
REMARK    9  A    between atoms: C_19  and  C_20
REMARK   10  A    between atoms: C_22  and  C_23
REMARK   11  A    between atoms: C_23  and  C_24
REMARK   12  A    between atoms: C_24  and  C_26
REMARK   13  A    between atoms: C_26  and  O_27
REMARK                            x       y       z     vdW  Elec       q    Type
REMARK                         _______ _______ _______ _____ _____    ______ ____
ROOT
ATOM      1  O   UNL     1      33.305 -12.964 -25.262  0.00  0.00    -0.484 OA
ATOM      2  C   UNL     1      33.164 -14.706 -23.641  0.00  0.00    +0.054 C 
ATOM      3  C   UNL     1      32.729 -14.262 -25.034  0.00  0.00    +0.169 C 
ATOM      4  C   UNL     1      34.467 -15.479 -23.898  0.00  0.00    +0.053 C 
ATOM      5  C   UNL     1      34.128 -16.259 -25.169  0.00  0.00    +0.118 C 
ATOM      6  C   UNL     1      33.320 -15.272 -26.019  0.00  0.00    +0.073 C 
ATOM      7  C   UNL     1      33.323 -13.403 -22.894  0.00  0.00    +0.068 C 
ATOM      8  C   UNL     1      33.634 -12.462 -24.011  0.00  0.00    +0.112 C 
ATOM      9  C   UNL     1      34.224 -11.272 -23.870  0.00  0.00    +0.006 C 
ENDROOT
BRANCH   5  10
ATOM     10  O   UNL     1      35.308 -16.660 -25.844  0.00  0.00    -0.384 OA
ATOM     11  H   UNL     1      35.241 -16.418 -26.782  0.00  0.00    +0.210 HD
ENDBRANCH   5  10
BRANCH   4  12
ATOM     12  C   UNL     1      34.853 -16.351 -22.749  0.00  0.00    -0.026 C 
ATOM     13  C   UNL     1      35.371 -17.581 -22.887  0.00  0.00    -0.002 C 
BRANCH  13  14
ATOM     14  C   UNL     1      35.756 -18.458 -21.728  0.00  0.00    +0.132 C 
BRANCH  14  15
ATOM     15  O   UNL     1      35.476 -17.753 -20.517  0.00  0.00    -0.380 OA
ATOM     16  H   UNL     1      34.975 -18.327 -19.918  0.00  0.00    +0.211 HD
ENDBRANCH  14  15
BRANCH  14  17
ATOM     17  C   UNL     1      34.967 -19.774 -21.687  0.00  0.00    +0.034 C 
BRANCH  17  18
ATOM     18  C   UNL     1      33.530 -19.601 -21.186  0.00  0.00    +0.003 C 
BRANCH  18  19
ATOM     19  C   UNL     1      33.158 -20.572 -20.060  0.00  0.00    +0.000 C 
BRANCH  19  20
ATOM     20  C   UNL     1      34.349 -21.364 -19.520  0.00  0.00    +0.000 C 
ATOM     21  C   UNL     1      33.931 -22.758 -19.075  0.00  0.00    +0.000 C 
ENDBRANCH  19  20
ENDBRANCH  18  19
ENDBRANCH  17  18
ENDBRANCH  14  17
ENDBRANCH  13  14
ENDBRANCH   4  12
BRANCH   9  22
ATOM     22  C   UNL     1      34.526 -10.342 -25.010  0.00  0.00    +0.029 C 
BRANCH  22  23
ATOM     23  C   UNL     1      34.904  -8.947 -24.502  0.00  0.00    +0.016 C 
BRANCH  23  24
ATOM     24  C   UNL     1      34.059  -8.512 -23.308  0.00  0.00    +0.110 C 
BRANCH  24  26
ATOM     25  O   UNL     1      32.790  -6.583 -24.018  0.00  0.00    -0.250 OA
ATOM     26  C   UNL     1      32.813  -7.770 -23.725  0.00  0.00    +0.314 C 
BRANCH  26  27
ATOM     27  O   UNL     1      31.712  -8.564 -23.736  0.00  0.00    -0.480 OA
ATOM     28  H   UNL     1      31.320  -8.832 -22.929  0.00  0.00    +0.295 HD
ENDBRANCH  26  27
ENDBRANCH  24  26
ENDBRANCH  23  24
ENDBRANCH  22  23
ENDBRANCH   9  22
TORSDOF 13
ENDMDL
MODEL 9
REMARK VINA RESULT:      -8.0      4.174      7.481
REMARK  Name = 5282411
REMARK  13 active torsions:
REMARK  status: ('A' for Active; 'I' for Inactive)
REMARK    1  A    between atoms: C_4  and  C_12
REMARK    2  A    between atoms: C_5  and  O_10
REMARK    3  A    between atoms: C_9  and  C_22
REMARK    4  A    between atoms: C_13  and  C_14
REMARK    5  A    between atoms: C_14  and  O_15
REMARK    6  A    between atoms: C_14  and  C_17
REMARK    7  A    between atoms: C_17  and  C_18
REMARK    8  A    between atoms: C_18  and  C_19
REMARK    9  A    between atoms: C_19  and  C_20
REMARK   10  A    between atoms: C_22  and  C_23
REMARK   11  A    between atoms: C_23  and  C_24
REMARK   12  A    between atoms: C_24  and  C_26
REMARK   13  A    between atoms: C_26  and  O_27
REMARK                            x       y       z     vdW  Elec       q    Type
REMARK                         _______ _______ _______ _____ _____    ______ ____
ROOT
ATOM      1  O   UNL     1      32.289 -12.581 -20.291  0.00  0.00    -0.484 OA
ATOM      2  C   UNL     1      30.994 -10.906 -21.384  0.00  0.00    +0.054 C 
ATOM      3  C   UNL     1      31.265 -11.600 -20.053  0.00  0.00    +0.169 C 
ATOM      4  C   UNL     1      31.956  -9.708 -21.371  0.00  0.00    +0.053 C 
ATOM      5  C   UNL     1      31.851  -9.233 -19.920  0.00  0.00    +0.118 C 
ATOM      6  C   UNL     1      31.787 -10.525 -19.099  0.00  0.00    +0.073 C 
ATOM      7  C   UNL     1      31.308 -11.974 -22.404  0.00  0.00    +0.068 C 
ATOM      8  C   UNL     1      32.298 -12.808 -21.659  0.00  0.00    +0.112 C 
ATOM      9  C   UNL     1      33.165 -13.654 -22.221  0.00  0.00    +0.006 C 
ENDROOT
BRANCH   5  10
ATOM     10  O   UNL     1      32.982  -8.459 -19.560  0.00  0.00    -0.384 OA
ATOM     11  H   UNL     1      33.272  -8.707 -18.668  0.00  0.00    +0.210 HD
ENDBRANCH   5  10
BRANCH   4  12
ATOM     12  C   UNL     1      31.584  -8.661 -22.369  0.00  0.00    -0.026 C 
ATOM     13  C   UNL     1      31.451  -7.360 -22.071  0.00  0.00    -0.002 C 
BRANCH  13  14
ATOM     14  C   UNL     1      31.074  -6.309 -23.077  0.00  0.00    +0.132 C 
BRANCH  14  15
ATOM     15  O   UNL     1      30.304  -5.305 -22.414  0.00  0.00    -0.380 OA
ATOM     16  H   UNL     1      29.772  -4.823 -23.066  0.00  0.00    +0.211 HD
ENDBRANCH  14  15
BRANCH  14  17
ATOM     17  C   UNL     1      32.293  -5.616 -23.702  0.00  0.00    +0.034 C 
BRANCH  17  18
ATOM     18  C   UNL     1      32.933  -6.425 -24.834  0.00  0.00    +0.003 C 
BRANCH  18  19
ATOM     19  C   UNL     1      34.443  -6.624 -24.660  0.00  0.00    +0.000 C 
BRANCH  19  20
ATOM     20  C   UNL     1      34.803  -7.642 -23.578  0.00  0.00    +0.000 C 
ATOM     21  C   UNL     1      34.787  -9.062 -24.125  0.00  0.00    +0.000 C 
ENDBRANCH  19  20
ENDBRANCH  18  19
ENDBRANCH  17  18
ENDBRANCH  14  17
ENDBRANCH  13  14
ENDBRANCH   4  12
BRANCH   9  22
ATOM     22  C   UNL     1      34.152 -14.483 -21.450  0.00  0.00    +0.029 C 
BRANCH  22  23
ATOM     23  C   UNL     1      33.760 -15.964 -21.460  0.00  0.00    +0.016 C 
BRANCH  23  24
ATOM     24  C   UNL     1      34.536 -16.766 -22.500  0.00  0.00    +0.110 C 
BRANCH  24  26
ATOM     25  O   UNL     1      35.534 -18.020 -20.693  0.00  0.00    -0.250 OA
ATOM     26  C   UNL     1      35.540 -17.701 -21.874  0.00  0.00    +0.314 C 
BRANCH  26  27
ATOM     27  O   UNL     1      36.460 -18.152 -22.764  0.00  0.00    -0.480 OA
ATOM     28  H   UNL     1      36.213 -18.310 -23.654  0.00  0.00    +0.295 HD
ENDBRANCH  26  27
ENDBRANCH  24  26
ENDBRANCH  23  24
ENDBRANCH  22  23
ENDBRANCH   9  22
TORSDOF 13
ENDMDL
