MODEL 1
REMARK VINA RESULT:      -7.1      0.000      0.000
REMARK  Name = 5360621
REMARK  8 active torsions:
REMARK  status: ('A' for Active; 'I' for Inactive)
REMARK    1  A    between atoms: C_11  and  O_23
REMARK    2  A    between atoms: C_18  and  O_21
REMARK    3  A    between atoms: O_23  and  C_25
REMARK    4  A    between atoms: C_26  and  O_30
REMARK    5  A    between atoms: C_27  and  O_32
REMARK    6  A    between atoms: C_28  and  O_34
REMARK    7  A    between atoms: C_29  and  C_37
REMARK    8  A    between atoms: C_37  and  O_38
REMARK                            x       y       z     vdW  Elec       q    Type
REMARK                         _______ _______ _______ _____ _____    ______ ____
ROOT
ATOM      1  O   UNL     1      34.850 -15.646 -23.392  0.00  0.00    -0.473 OA
ATOM      2  N   UNL     1      35.854 -19.706 -20.227  0.00  0.00    +0.387 N 
ATOM      3  C   UNL     1      34.985 -17.315 -21.624  0.00  0.00    +0.061 C 
ATOM      4  C   UNL     1      34.096 -18.050 -20.608  0.00  0.00    +0.010 C 
ATOM      5  C   UNL     1      34.640 -15.843 -21.950  0.00  0.00    +0.201 C 
ATOM      6  C   UNL     1      34.458 -19.567 -20.706  0.00  0.00    -0.049 C 
ATOM      7  C   UNL     1      36.466 -17.510 -21.240  0.00  0.00    -0.015 C 
ATOM      8  C   UNL     1      34.725 -17.886 -22.978  0.00  0.00    +0.014 C 
ATOM      9  C   UNL     1      34.187 -20.163 -22.131  0.00  0.00    +0.006 C 
ATOM     10  C   UNL     1      36.839 -18.988 -21.041  0.00  0.00    -0.077 C 
ATOM     11  C   UNL     1      33.209 -15.413 -21.534  0.00  0.00    +0.180 C 
ATOM     12  C   UNL     1      34.416 -19.204 -23.267  0.00  0.00    -0.025 C 
ATOM     13  C   UNL     1      32.638 -17.736 -20.820  0.00  0.00    -0.030 C 
ATOM     14  C   UNL     1      34.722 -16.896 -23.934  0.00  0.00    +0.168 C 
ATOM     15  C   UNL     1      32.241 -16.533 -21.262  0.00  0.00    +0.002 C 
ATOM     16  C   UNL     1      36.256 -21.092 -20.003  0.00  0.00    -0.101 C 
ATOM     17  C   UNL     1      34.219 -19.532 -24.609  0.00  0.00    -0.001 C 
ATOM     18  C   UNL     1      34.539 -17.197 -25.266  0.00  0.00    +0.167 C 
ATOM     19  C   UNL     1      34.302 -18.536 -25.602  0.00  0.00    +0.039 C 
ATOM     20  H   UNL     1      35.848 -19.248 -19.315  0.00  0.00    -0.080 HD
ENDROOT
BRANCH  18  21
ATOM     21  O   UNL     1      34.553 -16.234 -26.219  0.00  0.00    -0.503 OA
ATOM     22  H   UNL     1      33.942 -15.524 -26.178  0.00  0.00    +0.292 HD
ENDBRANCH  18  21
BRANCH  11  23
ATOM     23  O   UNL     1      32.671 -14.517 -22.502  0.00  0.00    -0.323 OA
BRANCH  23  25
ATOM     24  O   UNL     1      31.874 -12.613 -21.414  0.00  0.00    -0.317 OA
ATOM     25  C   UNL     1      32.953 -13.158 -22.169  0.00  0.00    +0.266 C 
ATOM     26  C   UNL     1      33.137 -12.380 -23.473  0.00  0.00    +0.196 C 
ATOM     27  C   UNL     1      33.309 -10.885 -23.205  0.00  0.00    +0.172 C 
ATOM     28  C   UNL     1      32.234 -10.361 -22.253  0.00  0.00    +0.178 C 
ATOM     29  C   UNL     1      32.107 -11.263 -21.032  0.00  0.00    +0.245 C 
BRANCH  26  30
ATOM     30  O   UNL     1      34.300 -12.881 -24.131  0.00  0.00    -0.378 OA
ATOM     31  H   UNL     1      34.046 -13.595 -24.737  0.00  0.00    +0.211 HD
ENDBRANCH  26  30
BRANCH  27  32
ATOM     32  O   UNL     1      33.201 -10.165 -24.434  0.00  0.00    -0.379 OA
ATOM     33  H   UNL     1      33.922  -9.519 -24.495  0.00  0.00    +0.211 HD
ENDBRANCH  27  32
BRANCH  28  34
ATOM     34  O   UNL     1      32.594  -9.050 -21.820  0.00  0.00    -0.379 OA
ATOM     35  H   UNL     1      31.872  -8.433 -22.022  0.00  0.00    +0.211 HD
ENDBRANCH  28  34
BRANCH  29  37
ATOM     36  O   UNL     1      30.894 -10.240 -19.213  0.00  0.00    -0.247 OA
ATOM     37  C   UNL     1      30.893 -10.915 -20.233  0.00  0.00    +0.344 C 
BRANCH  37  38
ATOM     38  O   UNL     1      29.782 -11.452 -20.792  0.00  0.00    -0.478 OA
ATOM     39  H   UNL     1      29.777 -11.677 -21.701  0.00  0.00    +0.295 HD
ENDBRANCH  37  38
ENDBRANCH  29  37
ENDBRANCH  23  25
ENDBRANCH  11  23
TORSDOF 8
ENDMDL
MODEL 2
REMARK VINA RESULT:      -6.0     10.349     13.082
REMARK  Name = 5360621
REMARK  8 active torsions:
REMARK  status: ('A' for Active; 'I' for Inactive)
REMARK    1  A    between atoms: C_11  and  O_23
REMARK    2  A    between atoms: C_18  and  O_21
REMARK    3  A    between atoms: O_23  and  C_25
REMARK    4  A    between atoms: C_26  and  O_30
REMARK    5  A    between atoms: C_27  and  O_32
REMARK    6  A    between atoms: C_28  and  O_34
REMARK    7  A    between atoms: C_29  and  C_37
REMARK    8  A    between atoms: C_37  and  O_38
REMARK                            x       y       z     vdW  Elec       q    Type
REMARK                         _______ _______ _______ _____ _____    ______ ____
ROOT
ATOM      1  O   UNL     1      34.670 -24.887 -13.323  0.00  0.00    -0.473 OA
ATOM      2  N   UNL     1      39.364 -25.879 -15.443  0.00  0.00    +0.387 N 
ATOM      3  C   UNL     1      36.669 -25.100 -14.697  0.00  0.00    +0.061 C 
ATOM      4  C   UNL     1      37.512 -24.305 -15.707  0.00  0.00    +0.010 C 
ATOM      5  C   UNL     1      35.136 -24.894 -14.717  0.00  0.00    +0.201 C 
ATOM      6  C   UNL     1      39.004 -24.452 -15.266  0.00  0.00    -0.049 C 
ATOM      7  C   UNL     1      37.072 -26.588 -14.755  0.00  0.00    -0.015 C 
ATOM      8  C   UNL     1      36.927 -24.550 -13.333  0.00  0.00    +0.014 C 
ATOM      9  C   UNL     1      39.270 -23.877 -13.832  0.00  0.00    +0.006 C 
ATOM     10  C   UNL     1      38.588 -26.799 -14.605  0.00  0.00    -0.077 C 
ATOM     11  C   UNL     1      34.672 -23.617 -15.465  0.00  0.00    +0.180 C 
ATOM     12  C   UNL     1      38.124 -24.035 -12.869  0.00  0.00    -0.025 C 
ATOM     13  C   UNL     1      37.030 -22.883 -15.833  0.00  0.00    -0.030 C 
ATOM     14  C   UNL     1      35.766 -24.515 -12.594  0.00  0.00    +0.168 C 
ATOM     15  C   UNL     1      35.731 -22.574 -15.701  0.00  0.00    +0.002 C 
ATOM     16  C   UNL     1      40.797 -26.135 -15.329  0.00  0.00    -0.101 C 
ATOM     17  C   UNL     1      38.153 -23.579 -11.550  0.00  0.00    -0.001 C 
ATOM     18  C   UNL     1      35.772 -24.078 -11.286  0.00  0.00    +0.167 C 
ATOM     19  C   UNL     1      36.987 -23.621 -10.760  0.00  0.00    +0.039 C 
ATOM     20  H   UNL     1      39.103 -26.081 -16.408  0.00  0.00    -0.080 HD
ENDROOT
BRANCH  18  21
ATOM     21  O   UNL     1      34.640 -24.055 -10.541  0.00  0.00    -0.503 OA
ATOM     22  H   UNL     1      34.615 -23.568  -9.741  0.00  0.00    +0.292 HD
ENDBRANCH  18  21
BRANCH  11  23
ATOM     23  O   UNL     1      33.552 -23.044 -14.796  0.00  0.00    -0.323 OA
BRANCH  23  25
ATOM     24  O   UNL     1      31.453 -23.182 -15.806  0.00  0.00    -0.317 OA
ATOM     25  C   UNL     1      32.383 -23.847 -14.954  0.00  0.00    +0.266 C 
ATOM     26  C   UNL     1      31.772 -24.069 -13.569  0.00  0.00    +0.196 C 
ATOM     27  C   UNL     1      30.437 -24.808 -13.666  0.00  0.00    +0.172 C 
ATOM     28  C   UNL     1      29.522 -24.175 -14.713  0.00  0.00    +0.178 C 
ATOM     29  C   UNL     1      30.272 -23.947 -16.020  0.00  0.00    +0.245 C 
BRANCH  26  30
ATOM     30  O   UNL     1      32.687 -24.843 -12.795  0.00  0.00    -0.378 OA
ATOM     31  H   UNL     1      32.552 -24.656 -11.853  0.00  0.00    +0.211 HD
ENDBRANCH  26  30
BRANCH  27  32
ATOM     32  O   UNL     1      29.770 -24.754 -12.405  0.00  0.00    -0.379 OA
ATOM     33  H   UNL     1      30.271 -25.267 -11.750  0.00  0.00    +0.211 HD
ENDBRANCH  27  32
BRANCH  28  34
ATOM     34  O   UNL     1      28.423 -25.049 -14.962  0.00  0.00    -0.379 OA
ATOM     35  H   UNL     1      28.683 -25.719 -15.613  0.00  0.00    +0.211 HD
ENDBRANCH  28  34
BRANCH  29  37
ATOM     36  O   UNL     1      28.426 -23.431 -17.486  0.00  0.00    -0.247 OA
ATOM     37  C   UNL     1      29.475 -23.095 -16.953  0.00  0.00    +0.344 C 
BRANCH  37  38
ATOM     38  O   UNL     1      30.072 -21.893 -17.135  0.00  0.00    -0.478 OA
ATOM     39  H   UNL     1      30.551 -21.498 -16.434  0.00  0.00    +0.295 HD
ENDBRANCH  37  38
ENDBRANCH  29  37
ENDBRANCH  23  25
ENDBRANCH  11  23
TORSDOF 8
ENDMDL
MODEL 3
REMARK VINA RESULT:      -6.0      4.533     10.235
REMARK  Name = 5360621
REMARK  8 active torsions:
REMARK  status: ('A' for Active; 'I' for Inactive)
REMARK    1  A    between atoms: C_11  and  O_23
REMARK    2  A    between atoms: C_18  and  O_21
REMARK    3  A    between atoms: O_23  and  C_25
REMARK    4  A    between atoms: C_26  and  O_30
REMARK    5  A    between atoms: C_27  and  O_32
REMARK    6  A    between atoms: C_28  and  O_34
REMARK    7  A    between atoms: C_29  and  C_37
REMARK    8  A    between atoms: C_37  and  O_38
REMARK                            x       y       z     vdW  Elec       q    Type
REMARK                         _______ _______ _______ _____ _____    ______ ____
ROOT
ATOM      1  O   UNL     1      33.499  -8.514 -21.933  0.00  0.00    -0.473 OA
ATOM      2  N   UNL     1      32.414  -5.147 -25.806  0.00  0.00    +0.387 N 
ATOM      3  C   UNL     1      32.754  -7.336 -23.929  0.00  0.00    +0.061 C 
ATOM      4  C   UNL     1      31.542  -7.231 -24.868  0.00  0.00    +0.010 C 
ATOM      5  C   UNL     1      33.079  -8.723 -23.326  0.00  0.00    +0.201 C 
ATOM      6  C   UNL     1      31.256  -5.707 -25.068  0.00  0.00    -0.049 C 
ATOM      7  C   UNL     1      33.976  -6.673 -24.597  0.00  0.00    -0.015 C 
ATOM      8  C   UNL     1      32.423  -6.636 -22.652  0.00  0.00    +0.014 C 
ATOM      9  C   UNL     1      30.913  -4.974 -23.726  0.00  0.00    +0.006 C 
ATOM     10  C   UNL     1      33.685  -5.243 -25.082  0.00  0.00    -0.077 C 
ATOM     11  C   UNL     1      31.917  -9.746 -23.410  0.00  0.00    +0.180 C 
ATOM     12  C   UNL     1      31.631  -5.509 -22.516  0.00  0.00    -0.025 C 
ATOM     13  C   UNL     1      30.371  -8.028 -24.354  0.00  0.00    -0.030 C 
ATOM     14  C   UNL     1      32.926  -7.326 -21.573  0.00  0.00    +0.168 C 
ATOM     15  C   UNL     1      30.552  -9.168 -23.670  0.00  0.00    +0.002 C 
ATOM     16  C   UNL     1      32.186  -3.795 -26.306  0.00  0.00    -0.101 C 
ATOM     17  C   UNL     1      31.456  -5.006 -21.227  0.00  0.00    -0.001 C 
ATOM     18  C   UNL     1      32.773  -6.844 -20.291  0.00  0.00    +0.167 C 
ATOM     19  C   UNL     1      32.042  -5.661 -20.125  0.00  0.00    +0.039 C 
ATOM     20  H   UNL     1      32.503  -5.754 -26.622  0.00  0.00    -0.080 HD
ENDROOT
BRANCH  18  21
ATOM     21  O   UNL     1      33.279  -7.503 -19.220  0.00  0.00    -0.503 OA
ATOM     22  H   UNL     1      33.036  -8.394 -19.060  0.00  0.00    +0.292 HD
ENDBRANCH  18  21
BRANCH  11  23
ATOM     23  O   UNL     1      31.897 -10.554 -22.236  0.00  0.00    -0.323 OA
BRANCH  23  25
ATOM     24  O   UNL     1      32.709 -12.103 -23.780  0.00  0.00    -0.317 OA
ATOM     25  C   UNL     1      32.681 -11.735 -22.403  0.00  0.00    +0.266 C 
ATOM     26  C   UNL     1      32.044 -12.847 -21.568  0.00  0.00    +0.196 C 
ATOM     27  C   UNL     1      32.747 -14.184 -21.799  0.00  0.00    +0.172 C 
ATOM     28  C   UNL     1      32.917 -14.475 -23.290  0.00  0.00    +0.178 C 
ATOM     29  C   UNL     1      33.496 -13.266 -24.014  0.00  0.00    +0.245 C 
BRANCH  26  30
ATOM     30  O   UNL     1      32.151 -12.488 -20.190  0.00  0.00    -0.378 OA
ATOM     31  H   UNL     1      31.357 -12.783 -19.717  0.00  0.00    +0.211 HD
ENDBRANCH  26  30
BRANCH  27  32
ATOM     32  O   UNL     1      31.967 -15.237 -21.230  0.00  0.00    -0.379 OA
ATOM     33  H   UNL     1      32.553 -15.959 -20.950  0.00  0.00    +0.211 HD
ENDBRANCH  27  32
BRANCH  28  34
ATOM     34  O   UNL     1      33.809 -15.576 -23.452  0.00  0.00    -0.379 OA
ATOM     35  H   UNL     1      34.721 -15.250 -23.498  0.00  0.00    +0.211 HD
ENDBRANCH  28  34
BRANCH  29  37
ATOM     36  O   UNL     1      33.122 -14.483 -26.063  0.00  0.00    -0.247 OA
ATOM     37  C   UNL     1      33.419 -13.442 -25.496  0.00  0.00    +0.344 C 
BRANCH  37  38
ATOM     38  O   UNL     1      33.727 -12.286 -26.133  0.00  0.00    -0.478 OA
ATOM     39  H   UNL     1      33.056 -11.659 -26.315  0.00  0.00    +0.295 HD
ENDBRANCH  37  38
ENDBRANCH  29  37
ENDBRANCH  23  25
ENDBRANCH  11  23
TORSDOF 8
ENDMDL
MODEL 4
REMARK VINA RESULT:      -6.0      6.630     10.500
REMARK  Name = 5360621
REMARK  8 active torsions:
REMARK  status: ('A' for Active; 'I' for Inactive)
REMARK    1  A    between atoms: C_11  and  O_23
REMARK    2  A    between atoms: C_18  and  O_21
REMARK    3  A    between atoms: O_23  and  C_25
REMARK    4  A    between atoms: C_26  and  O_30
REMARK    5  A    between atoms: C_27  and  O_32
REMARK    6  A    between atoms: C_28  and  O_34
REMARK    7  A    between atoms: C_29  and  C_37
REMARK    8  A    between atoms: C_37  and  O_38
REMARK                            x       y       z     vdW  Elec       q    Type
REMARK                         _______ _______ _______ _____ _____    ______ ____
ROOT
ATOM      1  O   UNL     1      33.890 -24.260 -16.300  0.00  0.00    -0.473 OA
ATOM      2  N   UNL     1      38.194 -25.592 -13.614  0.00  0.00    +0.387 N 
ATOM      3  C   UNL     1      36.117 -24.567 -15.363  0.00  0.00    +0.061 C 
ATOM      4  C   UNL     1      37.393 -23.774 -15.040  0.00  0.00    +0.010 C 
ATOM      5  C   UNL     1      35.320 -24.164 -16.627  0.00  0.00    +0.201 C 
ATOM      6  C   UNL     1      37.809 -24.161 -13.584  0.00  0.00    -0.049 C 
ATOM      7  C   UNL     1      36.425 -26.076 -15.307  0.00  0.00    -0.015 C 
ATOM      8  C   UNL     1      35.076 -24.216 -14.351  0.00  0.00    +0.014 C 
ATOM      9  C   UNL     1      36.712 -23.795 -12.524  0.00  0.00    +0.006 C 
ATOM     10  C   UNL     1      37.103 -26.496 -13.992  0.00  0.00    -0.077 C 
ATOM     11  C   UNL     1      35.670 -22.761 -17.185  0.00  0.00    +0.180 C 
ATOM     12  C   UNL     1      35.296 -23.915 -13.019  0.00  0.00    -0.025 C 
ATOM     13  C   UNL     1      37.201 -22.297 -15.268  0.00  0.00    -0.030 C 
ATOM     14  C   UNL     1      33.836 -24.119 -14.940  0.00  0.00    +0.168 C 
ATOM     15  C   UNL     1      36.396 -21.842 -16.240  0.00  0.00    +0.002 C 
ATOM     16  C   UNL     1      38.860 -26.040 -12.395  0.00  0.00    -0.101 C 
ATOM     17  C   UNL     1      34.177 -23.624 -12.239  0.00  0.00    -0.001 C 
ATOM     18  C   UNL     1      32.714 -23.841 -14.189  0.00  0.00    +0.167 C 
ATOM     19  C   UNL     1      32.893 -23.608 -12.819  0.00  0.00    +0.039 C 
ATOM     20  H   UNL     1      38.883 -25.645 -14.365  0.00  0.00    -0.080 HD
ENDROOT
BRANCH  18  21
ATOM     21  O   UNL     1      31.485 -23.760 -14.752  0.00  0.00    -0.503 OA
ATOM     22  H   UNL     1      31.042 -22.935 -14.797  0.00  0.00    +0.292 HD
ENDBRANCH  18  21
BRANCH  11  23
ATOM     23  O   UNL     1      34.494 -22.130 -17.685  0.00  0.00    -0.323 OA
BRANCH  23  25
ATOM     24  O   UNL     1      35.760 -20.863 -19.179  0.00  0.00    -0.317 OA
ATOM     25  C   UNL     1      34.648 -21.746 -19.050  0.00  0.00    +0.266 C 
ATOM     26  C   UNL     1      33.361 -21.049 -19.494  0.00  0.00    +0.196 C 
ATOM     27  C   UNL     1      33.497 -20.484 -20.908  0.00  0.00    +0.172 C 
ATOM     28  C   UNL     1      34.787 -19.680 -21.067  0.00  0.00    +0.178 C 
ATOM     29  C   UNL     1      35.980 -20.460 -20.526  0.00  0.00    +0.245 C 
BRANCH  26  30
ATOM     30  O   UNL     1      32.303 -22.006 -19.465  0.00  0.00    -0.378 OA
ATOM     31  H   UNL     1      31.830 -21.990 -20.312  0.00  0.00    +0.211 HD
ENDBRANCH  26  30
BRANCH  27  32
ATOM     32  O   UNL     1      32.398 -19.614 -21.181  0.00  0.00    -0.379 OA
ATOM     33  H   UNL     1      32.643 -18.995 -21.889  0.00  0.00    +0.211 HD
ENDBRANCH  27  32
BRANCH  28  34
ATOM     34  O   UNL     1      35.004 -19.414 -22.451  0.00  0.00    -0.379 OA
ATOM     35  H   UNL     1      35.556 -20.115 -22.833  0.00  0.00    +0.211 HD
ENDBRANCH  28  34
BRANCH  29  37
ATOM     36  O   UNL     1      37.760 -19.077 -21.386  0.00  0.00    -0.247 OA
ATOM     37  C   UNL     1      37.191 -19.590 -20.433  0.00  0.00    +0.344 C 
BRANCH  37  38
ATOM     38  O   UNL     1      37.580 -19.446 -19.143  0.00  0.00    -0.478 OA
ATOM     39  H   UNL     1      36.965 -19.583 -18.451  0.00  0.00    +0.295 HD
ENDBRANCH  37  38
ENDBRANCH  29  37
ENDBRANCH  23  25
ENDBRANCH  11  23
TORSDOF 8
ENDMDL
MODEL 5
REMARK VINA RESULT:      -5.3      6.304      9.168
REMARK  Name = 5360621
REMARK  8 active torsions:
REMARK  status: ('A' for Active; 'I' for Inactive)
REMARK    1  A    between atoms: C_11  and  O_23
REMARK    2  A    between atoms: C_18  and  O_21
REMARK    3  A    between atoms: O_23  and  C_25
REMARK    4  A    between atoms: C_26  and  O_30
REMARK    5  A    between atoms: C_27  and  O_32
REMARK    6  A    between atoms: C_28  and  O_34
REMARK    7  A    between atoms: C_29  and  C_37
REMARK    8  A    between atoms: C_37  and  O_38
REMARK                            x       y       z     vdW  Elec       q    Type
REMARK                         _______ _______ _______ _____ _____    ______ ____
ROOT
ATOM      1  O   UNL     1      34.799  -7.883 -23.747  0.00  0.00    -0.473 OA
ATOM      2  N   UNL     1      31.279  -9.541 -20.229  0.00  0.00    +0.387 N 
ATOM      3  C   UNL     1      32.902  -8.261 -22.268  0.00  0.00    +0.061 C 
ATOM      4  C   UNL     1      31.369  -8.160 -22.246  0.00  0.00    +0.010 C 
ATOM      5  C   UNL     1      33.682  -7.200 -23.079  0.00  0.00    +0.201 C 
ATOM      6  C   UNL     1      30.836  -9.501 -21.644  0.00  0.00    -0.049 C 
ATOM      7  C   UNL     1      33.424  -8.413 -20.824  0.00  0.00    -0.015 C 
ATOM      8  C   UNL     1      33.285  -9.454 -23.081  0.00  0.00    +0.014 C 
ATOM      9  C   UNL     1      31.242 -10.751 -22.498  0.00  0.00    +0.006 C 
ATOM     10  C   UNL     1      32.735  -9.555 -20.060  0.00  0.00    -0.077 C 
ATOM     11  C   UNL     1      32.821  -6.413 -24.099  0.00  0.00    +0.180 C 
ATOM     12  C   UNL     1      32.585 -10.645 -23.169  0.00  0.00    -0.025 C 
ATOM     13  C   UNL     1      30.817  -7.818 -23.606  0.00  0.00    -0.030 C 
ATOM     14  C   UNL     1      34.397  -9.187 -23.845  0.00  0.00    +0.168 C 
ATOM     15  C   UNL     1      31.497  -7.034 -24.456  0.00  0.00    +0.002 C 
ATOM     16  C   UNL     1      30.641 -10.598 -19.451  0.00  0.00    -0.101 C 
ATOM     17  C   UNL     1      33.125 -11.641 -23.982  0.00  0.00    -0.001 C 
ATOM     18  C   UNL     1      34.954 -10.159 -24.649  0.00  0.00    +0.167 C 
ATOM     19  C   UNL     1      34.314 -11.403 -24.701  0.00  0.00    +0.039 C 
ATOM     20  H   UNL     1      30.955  -8.652 -19.845  0.00  0.00    -0.080 HD
ENDROOT
BRANCH  18  21
ATOM     21  O   UNL     1      36.060  -9.915 -25.393  0.00  0.00    -0.503 OA
ATOM     22  H   UNL     1      36.910 -10.099 -25.044  0.00  0.00    +0.292 HD
ENDBRANCH  18  21
BRANCH  11  23
ATOM     23  O   UNL     1      33.580  -6.154 -25.278  0.00  0.00    -0.323 OA
BRANCH  23  25
ATOM     24  O   UNL     1      32.059  -4.385 -25.261  0.00  0.00    -0.317 OA
ATOM     25  C   UNL     1      33.278  -4.870 -25.821  0.00  0.00    +0.266 C 
ATOM     26  C   UNL     1      33.145  -5.017 -27.337  0.00  0.00    +0.196 C 
ATOM     27  C   UNL     1      32.687  -3.709 -27.982  0.00  0.00    +0.172 C 
ATOM     28  C   UNL     1      31.479  -3.121 -27.254  0.00  0.00    +0.178 C 
ATOM     29  C   UNL     1      31.715  -3.094 -25.749  0.00  0.00    +0.245 C 
BRANCH  26  30
ATOM     30  O   UNL     1      34.420  -5.384 -27.863  0.00  0.00    -0.378 OA
ATOM     31  H   UNL     1      34.702  -4.724 -28.517  0.00  0.00    +0.211 HD
ENDBRANCH  26  30
BRANCH  27  32
ATOM     32  O   UNL     1      32.311  -3.952 -29.338  0.00  0.00    -0.379 OA
ATOM     33  H   UNL     1      31.344  -4.012 -29.400  0.00  0.00    +0.211 HD
ENDBRANCH  27  32
BRANCH  28  34
ATOM     34  O   UNL     1      31.265  -1.786 -27.709  0.00  0.00    -0.379 OA
ATOM     35  H   UNL     1      32.101  -1.295 -27.677  0.00  0.00    +0.211 HD
ENDBRANCH  28  34
BRANCH  29  37
ATOM     36  O   UNL     1      29.578  -2.021 -25.421  0.00  0.00    -0.247 OA
ATOM     37  C   UNL     1      30.454  -2.773 -25.015  0.00  0.00    +0.344 C 
BRANCH  37  38
ATOM     38  O   UNL     1      30.409  -3.427 -23.829  0.00  0.00    -0.478 OA
ATOM     39  H   UNL     1      30.765  -4.289 -23.757  0.00  0.00    +0.295 HD
ENDBRANCH  37  38
ENDBRANCH  29  37
ENDBRANCH  23  25
ENDBRANCH  11  23
TORSDOF 8
ENDMDL
MODEL 6
REMARK VINA RESULT:      -5.0      7.289     10.998
REMARK  Name = 5360621
REMARK  8 active torsions:
REMARK  status: ('A' for Active; 'I' for Inactive)
REMARK    1  A    between atoms: C_11  and  O_23
REMARK    2  A    between atoms: C_18  and  O_21
REMARK    3  A    between atoms: O_23  and  C_25
REMARK    4  A    between atoms: C_26  and  O_30
REMARK    5  A    between atoms: C_27  and  O_32
REMARK    6  A    between atoms: C_28  and  O_34
REMARK    7  A    between atoms: C_29  and  C_37
REMARK    8  A    between atoms: C_37  and  O_38
REMARK                            x       y       z     vdW  Elec       q    Type
REMARK                         _______ _______ _______ _____ _____    ______ ____
ROOT
ATOM      1  O   UNL     1      37.903 -22.802 -15.488  0.00  0.00    -0.473 OA
ATOM      2  N   UNL     1      35.715 -23.977 -10.868  0.00  0.00    +0.387 N 
ATOM      3  C   UNL     1      36.461 -23.255 -13.579  0.00  0.00    +0.061 C 
ATOM      4  C   UNL     1      35.104 -23.889 -13.235  0.00  0.00    +0.010 C 
ATOM      5  C   UNL     1      36.581 -22.497 -14.922  0.00  0.00    +0.201 C 
ATOM      6  C   UNL     1      35.345 -24.839 -12.017  0.00  0.00    -0.049 C 
ATOM      7  C   UNL     1      36.956 -22.425 -12.378  0.00  0.00    -0.015 C 
ATOM      8  C   UNL     1      37.430 -24.351 -13.881  0.00  0.00    +0.014 C 
ATOM      9  C   UNL     1      36.365 -25.986 -12.336  0.00  0.00    +0.006 C 
ATOM     10  C   UNL     1      36.957 -23.223 -11.064  0.00  0.00    -0.077 C 
ATOM     11  C   UNL     1      35.454 -22.813 -15.939  0.00  0.00    +0.180 C 
ATOM     12  C   UNL     1      37.463 -25.602 -13.290  0.00  0.00    -0.025 C 
ATOM     13  C   UNL     1      34.481 -24.552 -14.436  0.00  0.00    -0.030 C 
ATOM     14  C   UNL     1      38.250 -24.002 -14.930  0.00  0.00    +0.168 C 
ATOM     15  C   UNL     1      34.662 -24.065 -15.672  0.00  0.00    +0.002 C 
ATOM     16  C   UNL     1      35.714 -24.681  -9.590  0.00  0.00    -0.101 C 
ATOM     17  C   UNL     1      38.463 -26.479 -13.714  0.00  0.00    -0.001 C 
ATOM     18  C   UNL     1      39.250 -24.848 -15.359  0.00  0.00    +0.167 C 
ATOM     19  C   UNL     1      39.362 -26.093 -14.728  0.00  0.00    +0.039 C 
ATOM     20  H   UNL     1      34.964 -23.286 -10.827  0.00  0.00    -0.080 HD
ENDROOT
BRANCH  18  21
ATOM     21  O   UNL     1      40.076 -24.509 -16.378  0.00  0.00    -0.503 OA
ATOM     22  H   UNL     1      40.621 -25.160 -16.777  0.00  0.00    +0.292 HD
ENDBRANCH  18  21
BRANCH  11  23
ATOM     23  O   UNL     1      35.986 -22.836 -17.261  0.00  0.00    -0.323 OA
BRANCH  23  25
ATOM     24  O   UNL     1      34.560 -21.868 -18.834  0.00  0.00    -0.317 OA
ATOM     25  C   UNL     1      35.671 -21.638 -17.970  0.00  0.00    +0.266 C 
ATOM     26  C   UNL     1      36.902 -21.232 -18.783  0.00  0.00    +0.196 C 
ATOM     27  C   UNL     1      36.601 -20.031 -19.679  0.00  0.00    +0.172 C 
ATOM     28  C   UNL     1      35.309 -20.233 -20.470  0.00  0.00    +0.178 C 
ATOM     29  C   UNL     1      34.183 -20.701 -19.554  0.00  0.00    +0.245 C 
BRANCH  26  30
ATOM     30  O   UNL     1      37.947 -20.894 -17.872  0.00  0.00    -0.378 OA
ATOM     31  H   UNL     1      38.732 -20.614 -18.370  0.00  0.00    +0.211 HD
ENDBRANCH  26  30
BRANCH  27  32
ATOM     32  O   UNL     1      37.667 -19.855 -20.614  0.00  0.00    -0.379 OA
ATOM     33  H   UNL     1      37.352 -20.061 -21.508  0.00  0.00    +0.211 HD
ENDBRANCH  27  32
BRANCH  28  34
ATOM     34  O   UNL     1      34.929 -18.995 -21.068  0.00  0.00    -0.379 OA
ATOM     35  H   UNL     1      34.981 -19.072 -22.033  0.00  0.00    +0.211 HD
ENDBRANCH  28  34
BRANCH  29  37
ATOM     36  O   UNL     1      32.370 -20.450 -21.126  0.00  0.00    -0.247 OA
ATOM     37  C   UNL     1      33.001 -21.152 -20.348  0.00  0.00    +0.344 C 
BRANCH  37  38
ATOM     38  O   UNL     1      32.716 -22.451 -20.088  0.00  0.00    -0.478 OA
ATOM     39  H   UNL     1      31.961 -22.850 -20.473  0.00  0.00    +0.295 HD
ENDBRANCH  37  38
ENDBRANCH  29  37
ENDBRANCH  23  25
ENDBRANCH  11  23
TORSDOF 8
ENDMDL
MODEL 7
REMARK VINA RESULT:      -4.7      6.984     10.842
REMARK  Name = 5360621
REMARK  8 active torsions:
REMARK  status: ('A' for Active; 'I' for Inactive)
REMARK    1  A    between atoms: C_11  and  O_23
REMARK    2  A    between atoms: C_18  and  O_21
REMARK    3  A    between atoms: O_23  and  C_25
REMARK    4  A    between atoms: C_26  and  O_30
REMARK    5  A    between atoms: C_27  and  O_32
REMARK    6  A    between atoms: C_28  and  O_34
REMARK    7  A    between atoms: C_29  and  C_37
REMARK    8  A    between atoms: C_37  and  O_38
REMARK                            x       y       z     vdW  Elec       q    Type
REMARK                         _______ _______ _______ _____ _____    ______ ____
ROOT
ATOM      1  O   UNL     1      38.518 -23.013 -15.883  0.00  0.00    -0.473 OA
ATOM      2  N   UNL     1      35.680 -23.324 -11.482  0.00  0.00    +0.387 N 
ATOM      3  C   UNL     1      36.835 -22.982 -14.124  0.00  0.00    +0.061 C 
ATOM      4  C   UNL     1      35.337 -23.248 -13.902  0.00  0.00    +0.010 C 
ATOM      5  C   UNL     1      37.264 -22.364 -15.475  0.00  0.00    +0.201 C 
ATOM      6  C   UNL     1      35.222 -24.146 -12.628  0.00  0.00    -0.049 C 
ATOM      7  C   UNL     1      37.402 -22.218 -12.910  0.00  0.00    -0.015 C 
ATOM      8  C   UNL     1      37.529 -24.295 -14.275  0.00  0.00    +0.014 C 
ATOM      9  C   UNL     1      35.955 -25.522 -12.789  0.00  0.00    +0.006 C 
ATOM     10  C   UNL     1      37.082 -22.905 -11.573  0.00  0.00    -0.077 C 
ATOM     11  C   UNL     1      36.196 -22.466 -16.595  0.00  0.00    +0.180 C 
ATOM     12  C   UNL     1      37.200 -25.476 -13.634  0.00  0.00    -0.025 C 
ATOM     13  C   UNL     1      34.688 -23.820 -15.136  0.00  0.00    -0.030 C 
ATOM     14  C   UNL     1      38.506 -24.222 -15.242  0.00  0.00    +0.168 C 
ATOM     15  C   UNL     1      35.099 -23.472 -16.364  0.00  0.00    +0.002 C 
ATOM     16  C   UNL     1      35.386 -23.922 -10.184  0.00  0.00    -0.101 C 
ATOM     17  C   UNL     1      37.989 -26.593 -13.911  0.00  0.00    -0.001 C 
ATOM     18  C   UNL     1      39.304 -25.309 -15.526  0.00  0.00    +0.167 C 
ATOM     19  C   UNL     1      39.047 -26.501 -14.837  0.00  0.00    +0.039 C 
ATOM     20  H   UNL     1      35.121 -22.473 -11.550  0.00  0.00    -0.080 HD
ENDROOT
BRANCH  18  21
ATOM     21  O   UNL     1      40.281 -25.246 -16.463  0.00  0.00    -0.503 OA
ATOM     22  H   UNL     1      40.500 -26.006 -16.965  0.00  0.00    +0.292 HD
ENDBRANCH  18  21
BRANCH  11  23
ATOM     23  O   UNL     1      36.829 -22.703 -17.849  0.00  0.00    -0.323 OA
BRANCH  23  25
ATOM     24  O   UNL     1      36.456 -20.915 -19.302  0.00  0.00    -0.317 OA
ATOM     25  C   UNL     1      36.032 -22.225 -18.933  0.00  0.00    +0.266 C 
ATOM     26  C   UNL     1      34.574 -22.203 -18.473  0.00  0.00    +0.196 C 
ATOM     27  C   UNL     1      33.669 -21.574 -19.533  0.00  0.00    +0.172 C 
ATOM     28  C   UNL     1      34.237 -20.247 -20.036  0.00  0.00    +0.178 C 
ATOM     29  C   UNL     1      35.711 -20.392 -20.395  0.00  0.00    +0.245 C 
BRANCH  26  30
ATOM     30  O   UNL     1      34.160 -23.548 -18.234  0.00  0.00    -0.378 OA
ATOM     31  H   UNL     1      33.663 -23.874 -19.001  0.00  0.00    +0.211 HD
ENDBRANCH  26  30
BRANCH  27  32
ATOM     32  O   UNL     1      32.382 -21.317 -18.970  0.00  0.00    -0.379 OA
ATOM     33  H   UNL     1      32.367 -21.617 -18.046  0.00  0.00    +0.211 HD
ENDBRANCH  27  32
BRANCH  28  34
ATOM     34  O   UNL     1      33.519 -19.844 -21.200  0.00  0.00    -0.379 OA
ATOM     35  H   UNL     1      33.157 -20.626 -21.645  0.00  0.00    +0.211 HD
ENDBRANCH  28  34
BRANCH  29  37
ATOM     36  O   UNL     1      35.747 -17.987 -20.591  0.00  0.00    -0.247 OA
ATOM     37  C   UNL     1      36.338 -19.057 -20.633  0.00  0.00    +0.344 C 
BRANCH  37  38
ATOM     38  O   UNL     1      37.659 -19.188 -20.906  0.00  0.00    -0.478 OA
ATOM     39  H   UNL     1      38.235 -19.553 -20.264  0.00  0.00    +0.295 HD
ENDBRANCH  37  38
ENDBRANCH  29  37
ENDBRANCH  23  25
ENDBRANCH  11  23
TORSDOF 8
ENDMDL
MODEL 8
REMARK VINA RESULT:      -4.4      6.475      9.860
REMARK  Name = 5360621
REMARK  8 active torsions:
REMARK  status: ('A' for Active; 'I' for Inactive)
REMARK    1  A    between atoms: C_11  and  O_23
REMARK    2  A    between atoms: C_18  and  O_21
REMARK    3  A    between atoms: O_23  and  C_25
REMARK    4  A    between atoms: C_26  and  O_30
REMARK    5  A    between atoms: C_27  and  O_32
REMARK    6  A    between atoms: C_28  and  O_34
REMARK    7  A    between atoms: C_29  and  C_37
REMARK    8  A    between atoms: C_37  and  O_38
REMARK                            x       y       z     vdW  Elec       q    Type
REMARK                         _______ _______ _______ _____ _____    ______ ____
ROOT
ATOM      1  O   UNL     1      34.680  -7.653 -24.468  0.00  0.00    -0.473 OA
ATOM      2  N   UNL     1      31.792  -8.468 -20.166  0.00  0.00    +0.387 N 
ATOM      3  C   UNL     1      33.044  -7.684 -22.665  0.00  0.00    +0.061 C 
ATOM      4  C   UNL     1      31.529  -7.577 -22.428  0.00  0.00    +0.010 C 
ATOM      5  C   UNL     1      33.656  -6.834 -23.803  0.00  0.00    +0.201 C 
ATOM      6  C   UNL     1      31.138  -8.747 -21.467  0.00  0.00    -0.049 C 
ATOM      7  C   UNL     1      33.784  -7.508 -21.323  0.00  0.00    -0.015 C 
ATOM      8  C   UNL     1      33.337  -9.030 -23.241  0.00  0.00    +0.014 C 
ATOM      9  C   UNL     1      31.451 -10.158 -22.073  0.00  0.00    +0.006 C 
ATOM     10  C   UNL     1      33.257  -8.448 -20.226  0.00  0.00    -0.077 C 
ATOM     11  C   UNL     1      32.624  -6.295 -24.826  0.00  0.00    +0.180 C 
ATOM     12  C   UNL     1      32.672 -10.208 -22.952  0.00  0.00    -0.025 C 
ATOM     13  C   UNL     1      30.766  -7.549 -23.727  0.00  0.00    -0.030 C 
ATOM     14  C   UNL     1      34.311  -8.945 -24.209  0.00  0.00    +0.168 C 
ATOM     15  C   UNL     1      31.282  -6.977 -24.825  0.00  0.00    +0.002 C 
ATOM     16  C   UNL     1      31.315  -9.322 -19.082  0.00  0.00    -0.101 C 
ATOM     17  C   UNL     1      33.114 -11.364 -23.597  0.00  0.00    -0.001 C 
ATOM     18  C   UNL     1      34.770 -10.074 -24.854  0.00  0.00    +0.167 C 
ATOM     19  C   UNL     1      34.171 -11.297 -24.527  0.00  0.00    +0.039 C 
ATOM     20  H   UNL     1      31.501  -7.516 -19.943  0.00  0.00    -0.080 HD
ENDROOT
BRANCH  18  21
ATOM     21  O   UNL     1      35.742 -10.007 -25.796  0.00  0.00    -0.503 OA
ATOM     22  H   UNL     1      35.885 -10.729 -26.375  0.00  0.00    +0.292 HD
ENDBRANCH  18  21
BRANCH  11  23
ATOM     23  O   UNL     1      33.186  -6.310 -26.136  0.00  0.00    -0.323 OA
BRANCH  23  25
ATOM     24  O   UNL     1      32.645  -4.438 -27.418  0.00  0.00    -0.317 OA
ATOM     25  C   UNL     1      33.610  -5.008 -26.536  0.00  0.00    +0.266 C 
ATOM     26  C   UNL     1      34.959  -5.145 -27.242  0.00  0.00    +0.196 C 
ATOM     27  C   UNL     1      35.418  -3.808 -27.824  0.00  0.00    +0.172 C 
ATOM     28  C   UNL     1      34.305  -3.136 -28.625  0.00  0.00    +0.178 C 
ATOM     29  C   UNL     1      33.001  -3.125 -27.836  0.00  0.00    +0.245 C 
BRANCH  26  30
ATOM     30  O   UNL     1      35.918  -5.602 -26.288  0.00  0.00    -0.378 OA
ATOM     31  H   UNL     1      36.024  -4.934 -25.592  0.00  0.00    +0.211 HD
ENDBRANCH  26  30
BRANCH  27  32
ATOM     32  O   UNL     1      36.525  -4.024 -28.700  0.00  0.00    -0.379 OA
ATOM     33  H   UNL     1      36.198  -4.273 -29.580  0.00  0.00    +0.211 HD
ENDBRANCH  27  32
BRANCH  28  34
ATOM     34  O   UNL     1      34.681  -1.789 -28.907  0.00  0.00    -0.379 OA
ATOM     35  H   UNL     1      33.973  -1.189 -28.623  0.00  0.00    +0.211 HD
ENDBRANCH  28  34
BRANCH  29  37
ATOM     36  O   UNL     1      31.827  -2.812 -29.920  0.00  0.00    -0.247 OA
ATOM     37  C   UNL     1      31.855  -2.715 -28.702  0.00  0.00    +0.344 C 
BRANCH  37  38
ATOM     38  O   UNL     1      30.842  -2.215 -27.952  0.00  0.00    -0.478 OA
ATOM     39  H   UNL     1      30.059  -1.913 -28.367  0.00  0.00    +0.295 HD
ENDBRANCH  37  38
ENDBRANCH  29  37
ENDBRANCH  23  25
ENDBRANCH  11  23
TORSDOF 8
ENDMDL
