MODEL 1
REMARK VINA RESULT:     -10.7      0.000      0.000
REMARK  Name = 9869929
REMARK  8 active torsions:
REMARK  status: ('A' for Active; 'I' for Inactive)
REMARK    1  A    between atoms: N_4  and  C_28
REMARK    2  A    between atoms: C_5  and  C_25
REMARK    3  A    between atoms: C_11  and  C_16
REMARK    4  A    between atoms: N_15  and  C_18
REMARK    5  A    between atoms: C_18  and  C_21
REMARK    6  A    between atoms: C_25  and  O_26
REMARK    7  A    between atoms: C_28  and  C_30
REMARK    8  A    between atoms: C_35  and  O_36
REMARK                            x       y       z     vdW  Elec       q    Type
REMARK                         _______ _______ _______ _____ _____    ______ ____
ROOT
ATOM      1  N   UNL     1      35.854 -24.091 -13.433  0.00  0.00    -0.243 N 
ATOM      2  N   UNL     1      34.800 -23.589 -15.439  0.00  0.00    -0.322 NA
ATOM      3  N   UNL     1      33.552 -24.371 -13.532  0.00  0.00    -0.170 NA
ATOM      4  N   UNL     1      33.688 -23.085 -17.471  0.00  0.00    -0.304 N 
ATOM      5  C   UNL     1      35.972 -24.676 -12.091  0.00  0.00    +0.113 C 
ATOM      6  C   UNL     1      37.467 -25.016 -11.992  0.00  0.00    +0.025 C 
ATOM      7  C   UNL     1      38.135 -23.934 -12.824  0.00  0.00    +0.024 C 
ATOM      8  C   UNL     1      37.163 -23.736 -13.984  0.00  0.00    +0.102 C 
ATOM      9  C   UNL     1      34.685 -24.014 -14.166  0.00  0.00    +0.149 C 
ATOM     10  C   UNL     1      33.640 -23.525 -16.125  0.00  0.00    +0.199 C 
ATOM     11  C   UNL     1      32.414 -23.863 -15.591  0.00  0.00    +0.118 C 
ATOM     12  C   UNL     1      32.431 -24.283 -14.277  0.00  0.00    +0.120 C 
ATOM     13  H   UNL     1      32.848 -23.035 -17.982  0.00  0.00    +0.149 HD
ENDROOT
BRANCH  11  16
ATOM     14  O   UNL     1      30.905 -22.816 -17.049  0.00  0.00    -0.270 OA
ATOM     15  N   UNL     1      30.291 -24.886 -16.202  0.00  0.00    -0.288 N 
ATOM     16  C   UNL     1      31.161 -23.796 -16.328  0.00  0.00    +0.252 C 
ATOM     17  H   UNL     1      30.557 -25.629 -15.614  0.00  0.00    +0.151 HD
BRANCH  15  18
ATOM     18  C   UNL     1      29.023 -24.978 -16.889  0.00  0.00    +0.190 C 
BRANCH  18  21
ATOM     19  N   UNL     1      27.654 -23.153 -17.711  0.00  0.00    -0.195 NA
ATOM     20  N   UNL     1      28.067 -23.370 -15.346  0.00  0.00    -0.217 NA
ATOM     21  C   UNL     1      28.192 -23.752 -16.631  0.00  0.00    +0.028 C 
ATOM     22  C   UNL     1      26.915 -22.056 -17.444  0.00  0.00    +0.107 C 
ATOM     23  C   UNL     1      27.316 -22.266 -15.152  0.00  0.00    +0.164 C 
ATOM     24  C   UNL     1      26.710 -21.561 -16.172  0.00  0.00    +0.022 C 
ENDBRANCH  18  21
ENDBRANCH  15  18
ENDBRANCH  11  16
BRANCH   5  25
ATOM     25  C   UNL     1      35.554 -23.669 -11.022  0.00  0.00    +0.157 C 
BRANCH  25  26
ATOM     26  O   UNL     1      36.014 -24.127  -9.763  0.00  0.00    -0.380 OA
ATOM     27  H   UNL     1      36.013 -25.097  -9.752  0.00  0.00    +0.211 HD
ENDBRANCH  25  26
ENDBRANCH   5  25
BRANCH   4  28
ATOM     28  C   UNL     1      34.904 -22.713 -18.116  0.00  0.00    +0.116 C 
BRANCH  28  30
ATOM     29 CL   UNL     1      36.858 -19.046 -21.242  0.00  0.00    -0.079 Cl
ATOM     30  C   UNL     1      34.660 -21.611 -19.109  0.00  0.00    -0.002 C 
ATOM     31  C   UNL     1      35.736 -20.914 -19.658  0.00  0.00    +0.012 C 
ATOM     32  C   UNL     1      33.355 -21.285 -19.480  0.00  0.00    +0.001 C 
ATOM     33  C   UNL     1      35.508 -19.891 -20.578  0.00  0.00    +0.091 C 
ATOM     34  C   UNL     1      33.128 -20.261 -20.400  0.00  0.00    +0.038 C 
ATOM     35  C   UNL     1      34.204 -19.564 -20.949  0.00  0.00    +0.149 C 
BRANCH  35  36
ATOM     36  O   UNL     1      33.952 -18.569 -21.847  0.00  0.00    -0.471 OA
ATOM     37  C   UNL     1      33.935 -17.235 -21.345  0.00  0.00    +0.253 C 
ENDBRANCH  35  36
ENDBRANCH  28  30
ENDBRANCH   4  28
TORSDOF 8
ENDMDL
MODEL 2
REMARK VINA RESULT:     -10.6      1.915      2.808
REMARK  Name = 9869929
REMARK  8 active torsions:
REMARK  status: ('A' for Active; 'I' for Inactive)
REMARK    1  A    between atoms: N_4  and  C_28
REMARK    2  A    between atoms: C_5  and  C_25
REMARK    3  A    between atoms: C_11  and  C_16
REMARK    4  A    between atoms: N_15  and  C_18
REMARK    5  A    between atoms: C_18  and  C_21
REMARK    6  A    between atoms: C_25  and  O_26
REMARK    7  A    between atoms: C_28  and  C_30
REMARK    8  A    between atoms: C_35  and  O_36
REMARK                            x       y       z     vdW  Elec       q    Type
REMARK                         _______ _______ _______ _____ _____    ______ ____
ROOT
ATOM      1  N   UNL     1      38.211 -24.727 -14.478  0.00  0.00    -0.243 N 
ATOM      2  N   UNL     1      36.797 -23.568 -15.907  0.00  0.00    -0.322 NA
ATOM      3  N   UNL     1      35.965 -24.615 -13.902  0.00  0.00    -0.170 NA
ATOM      4  N   UNL     1      35.322 -22.390 -17.342  0.00  0.00    -0.304 N 
ATOM      5  C   UNL     1      38.551 -25.649 -13.387  0.00  0.00    +0.113 C 
ATOM      6  C   UNL     1      39.902 -26.230 -13.833  0.00  0.00    +0.025 C 
ATOM      7  C   UNL     1      40.547 -25.086 -14.597  0.00  0.00    +0.024 C 
ATOM      8  C   UNL     1      39.369 -24.447 -15.329  0.00  0.00    +0.102 C 
ATOM      9  C   UNL     1      36.936 -24.284 -14.775  0.00  0.00    +0.149 C 
ATOM     10  C   UNL     1      35.540 -23.151 -16.166  0.00  0.00    +0.199 C 
ATOM     11  C   UNL     1      34.459 -23.423 -15.353  0.00  0.00    +0.118 C 
ATOM     12  C   UNL     1      34.734 -24.166 -14.223  0.00  0.00    +0.120 C 
ATOM     13  H   UNL     1      34.408 -22.081 -17.542  0.00  0.00    +0.149 HD
ENDROOT
BRANCH  11  16
ATOM     14  O   UNL     1      32.656 -22.997 -16.791  0.00  0.00    -0.270 OA
ATOM     15  N   UNL     1      32.339 -22.551 -14.537  0.00  0.00    -0.288 N 
ATOM     16  C   UNL     1      33.103 -22.976 -15.631  0.00  0.00    +0.252 C 
ATOM     17  H   UNL     1      32.755 -22.560 -13.646  0.00  0.00    +0.151 HD
BRANCH  15  18
ATOM     18  C   UNL     1      30.969 -22.101 -14.647  0.00  0.00    +0.190 C 
BRANCH  18  21
ATOM     19  N   UNL     1      30.153 -24.378 -14.467  0.00  0.00    -0.195 NA
ATOM     20  N   UNL     1      29.314 -22.938 -16.210  0.00  0.00    -0.217 NA
ATOM     21  C   UNL     1      30.086 -23.214 -15.141  0.00  0.00    +0.028 C 
ATOM     22  C   UNL     1      29.349 -25.354 -14.938  0.00  0.00    +0.107 C 
ATOM     23  C   UNL     1      28.536 -23.959 -16.626  0.00  0.00    +0.164 C 
ATOM     24  C   UNL     1      28.511 -25.201 -16.024  0.00  0.00    +0.022 C 
ENDBRANCH  18  21
ENDBRANCH  15  18
ENDBRANCH  11  16
BRANCH   5  25
ATOM     25  C   UNL     1      38.672 -24.902 -12.061  0.00  0.00    +0.157 C 
BRANCH  25  26
ATOM     26  O   UNL     1      37.460 -25.052 -11.345  0.00  0.00    -0.380 OA
ATOM     27  H   UNL     1      37.492 -25.867 -10.820  0.00  0.00    +0.211 HD
ENDBRANCH  25  26
ENDBRANCH   5  25
BRANCH   4  28
ATOM     28  C   UNL     1      36.371 -22.056 -18.248  0.00  0.00    +0.116 C 
BRANCH  28  30
ATOM     29 CL   UNL     1      32.371 -20.109 -20.939  0.00  0.00    -0.079 Cl
ATOM     30  C   UNL     1      35.876 -21.104 -19.300  0.00  0.00    -0.002 C 
ATOM     31  C   UNL     1      34.516 -21.045 -19.605  0.00  0.00    +0.012 C 
ATOM     32  C   UNL     1      36.778 -20.279 -19.973  0.00  0.00    +0.001 C 
ATOM     33  C   UNL     1      34.058 -20.161 -20.583  0.00  0.00    +0.091 C 
ATOM     34  C   UNL     1      36.319 -19.395 -20.950  0.00  0.00    +0.038 C 
ATOM     35  C   UNL     1      34.959 -19.336 -21.255  0.00  0.00    +0.149 C 
BRANCH  35  36
ATOM     36  O   UNL     1      34.539 -18.463 -22.214  0.00  0.00    -0.471 OA
ATOM     37  C   UNL     1      35.139 -18.581 -23.503  0.00  0.00    +0.253 C 
ENDBRANCH  35  36
ENDBRANCH  28  30
ENDBRANCH   4  28
TORSDOF 8
ENDMDL
MODEL 3
REMARK VINA RESULT:     -10.2      3.447      8.198
REMARK  Name = 9869929
REMARK  8 active torsions:
REMARK  status: ('A' for Active; 'I' for Inactive)
REMARK    1  A    between atoms: N_4  and  C_28
REMARK    2  A    between atoms: C_5  and  C_25
REMARK    3  A    between atoms: C_11  and  C_16
REMARK    4  A    between atoms: N_15  and  C_18
REMARK    5  A    between atoms: C_18  and  C_21
REMARK    6  A    between atoms: C_25  and  O_26
REMARK    7  A    between atoms: C_28  and  C_30
REMARK    8  A    between atoms: C_35  and  O_36
REMARK                            x       y       z     vdW  Elec       q    Type
REMARK                         _______ _______ _______ _____ _____    ______ ____
ROOT
ATOM      1  N   UNL     1      31.695 -23.664 -15.914  0.00  0.00    -0.243 N 
ATOM      2  N   UNL     1      33.880 -22.926 -16.167  0.00  0.00    -0.322 NA
ATOM      3  N   UNL     1      32.337 -22.921 -18.018  0.00  0.00    -0.170 NA
ATOM      4  N   UNL     1      36.105 -22.163 -16.463  0.00  0.00    -0.304 N 
ATOM      5  C   UNL     1      30.376 -24.125 -16.366  0.00  0.00    +0.113 C 
ATOM      6  C   UNL     1      29.935 -25.073 -15.240  0.00  0.00    +0.025 C 
ATOM      7  C   UNL     1      30.563 -24.465 -13.997  0.00  0.00    +0.024 C 
ATOM      8  C   UNL     1      31.915 -23.963 -14.498  0.00  0.00    +0.102 C 
ATOM      9  C   UNL     1      32.680 -23.149 -16.735  0.00  0.00    +0.149 C 
ATOM     10  C   UNL     1      34.817 -22.422 -16.996  0.00  0.00    +0.199 C 
ATOM     11  C   UNL     1      34.594 -22.145 -18.329  0.00  0.00    +0.118 C 
ATOM     12  C   UNL     1      33.322 -22.418 -18.789  0.00  0.00    +0.120 C 
ATOM     13  H   UNL     1      36.798 -21.796 -17.059  0.00  0.00    +0.149 HD
ENDROOT
BRANCH  11  16
ATOM     14  O   UNL     1      36.743 -22.098 -19.266  0.00  0.00    -0.270 OA
ATOM     15  N   UNL     1      35.219 -20.529 -20.038  0.00  0.00    -0.288 N 
ATOM     16  C   UNL     1      35.603 -21.603 -19.225  0.00  0.00    +0.252 C 
ATOM     17  H   UNL     1      34.300 -20.187 -19.954  0.00  0.00    +0.151 HD
BRANCH  15  18
ATOM     18  C   UNL     1      36.098 -19.898 -20.995  0.00  0.00    +0.190 C 
BRANCH  18  21
ATOM     19  N   UNL     1      35.176 -18.587 -22.815  0.00  0.00    -0.195 NA
ATOM     20  N   UNL     1      35.326 -17.632 -20.606  0.00  0.00    -0.217 NA
ATOM     21  C   UNL     1      35.493 -18.620 -21.506  0.00  0.00    +0.028 C 
ATOM     22  C   UNL     1      34.636 -17.425 -23.240  0.00  0.00    +0.107 C 
ATOM     23  C   UNL     1      34.781 -16.501 -21.099  0.00  0.00    +0.164 C 
ATOM     24  C   UNL     1      34.413 -16.338 -22.420  0.00  0.00    +0.022 C 
ENDBRANCH  18  21
ENDBRANCH  15  18
ENDBRANCH  11  16
BRANCH   5  25
ATOM     25  C   UNL     1      29.412 -22.950 -16.518  0.00  0.00    +0.157 C 
BRANCH  25  26
ATOM     26  O   UNL     1      28.518 -23.232 -17.579  0.00  0.00    -0.380 OA
ATOM     27  H   UNL     1      27.835 -23.849 -17.271  0.00  0.00    +0.211 HD
ENDBRANCH  25  26
ENDBRANCH   5  25
BRANCH   4  28
ATOM     28  C   UNL     1      36.439 -22.415 -15.100  0.00  0.00    +0.116 C 
BRANCH  28  30
ATOM     29 CL   UNL     1      36.980 -27.390 -13.688  0.00  0.00    -0.079 Cl
ATOM     30  C   UNL     1      37.320 -23.627 -14.987  0.00  0.00    -0.002 C 
ATOM     31  C   UNL     1      36.814 -24.813 -14.455  0.00  0.00    +0.012 C 
ATOM     32  C   UNL     1      38.647 -23.566 -15.414  0.00  0.00    +0.001 C 
ATOM     33  C   UNL     1      37.633 -25.937 -14.350  0.00  0.00    +0.091 C 
ATOM     34  C   UNL     1      39.466 -24.691 -15.309  0.00  0.00    +0.038 C 
ATOM     35  C   UNL     1      38.959 -25.876 -14.777  0.00  0.00    +0.149 C 
BRANCH  35  36
ATOM     36  O   UNL     1      39.782 -26.959 -14.687  0.00  0.00    -0.471 OA
ATOM     37  C   UNL     1      41.069 -26.746 -14.111  0.00  0.00    +0.253 C 
ENDBRANCH  35  36
ENDBRANCH  28  30
ENDBRANCH   4  28
TORSDOF 8
ENDMDL
MODEL 4
REMARK VINA RESULT:      -9.8      1.585      2.033
REMARK  Name = 9869929
REMARK  8 active torsions:
REMARK  status: ('A' for Active; 'I' for Inactive)
REMARK    1  A    between atoms: N_4  and  C_28
REMARK    2  A    between atoms: C_5  and  C_25
REMARK    3  A    between atoms: C_11  and  C_16
REMARK    4  A    between atoms: N_15  and  C_18
REMARK    5  A    between atoms: C_18  and  C_21
REMARK    6  A    between atoms: C_25  and  O_26
REMARK    7  A    between atoms: C_28  and  C_30
REMARK    8  A    between atoms: C_35  and  O_36
REMARK                            x       y       z     vdW  Elec       q    Type
REMARK                         _______ _______ _______ _____ _____    ______ ____
ROOT
ATOM      1  N   UNL     1      37.235 -24.760 -14.128  0.00  0.00    -0.243 N 
ATOM      2  N   UNL     1      35.413 -24.148 -15.429  0.00  0.00    -0.322 NA
ATOM      3  N   UNL     1      35.281 -24.166 -13.023  0.00  0.00    -0.170 NA
ATOM      4  N   UNL     1      33.533 -23.515 -16.726  0.00  0.00    -0.304 N 
ATOM      5  C   UNL     1      37.924 -25.177 -12.901  0.00  0.00    +0.113 C 
ATOM      6  C   UNL     1      39.081 -26.039 -13.429  0.00  0.00    +0.025 C 
ATOM      7  C   UNL     1      39.423 -25.396 -14.763  0.00  0.00    +0.024 C 
ATOM      8  C   UNL     1      38.059 -24.991 -15.316  0.00  0.00    +0.102 C 
ATOM      9  C   UNL     1      35.920 -24.340 -14.196  0.00  0.00    +0.149 C 
ATOM     10  C   UNL     1      34.129 -23.738 -15.460  0.00  0.00    +0.199 C 
ATOM     11  C   UNL     1      33.365 -23.523 -14.331  0.00  0.00    +0.118 C 
ATOM     12  C   UNL     1      34.001 -23.756 -13.128  0.00  0.00    +0.120 C 
ATOM     13  H   UNL     1      32.594 -23.217 -16.761  0.00  0.00    +0.149 HD
ENDROOT
BRANCH  11  16
ATOM     14  O   UNL     1      31.650 -22.079 -15.018  0.00  0.00    -0.270 OA
ATOM     15  N   UNL     1      31.054 -23.848 -13.641  0.00  0.00    -0.288 N 
ATOM     16  C   UNL     1      31.979 -23.082 -14.361  0.00  0.00    +0.252 C 
ATOM     17  H   UNL     1      31.384 -24.630 -13.142  0.00  0.00    +0.151 HD
BRANCH  15  18
ATOM     18  C   UNL     1      29.640 -23.553 -13.593  0.00  0.00    +0.190 C 
BRANCH  18  21
ATOM     19  N   UNL     1      28.552 -22.331 -15.384  0.00  0.00    -0.195 NA
ATOM     20  N   UNL     1      29.107 -24.658 -15.685  0.00  0.00    -0.217 NA
ATOM     21  C   UNL     1      29.061 -23.512 -14.980  0.00  0.00    +0.028 C 
ATOM     22  C   UNL     1      28.041 -22.330 -16.633  0.00  0.00    +0.107 C 
ATOM     23  C   UNL     1      28.579 -24.585 -16.925  0.00  0.00    +0.164 C 
ATOM     24  C   UNL     1      28.027 -23.437 -17.457  0.00  0.00    +0.022 C 
ENDBRANCH  18  21
ENDBRANCH  15  18
ENDBRANCH  11  16
BRANCH   5  25
ATOM     25  C   UNL     1      38.436 -23.965 -12.125  0.00  0.00    +0.157 C 
BRANCH  25  26
ATOM     26  O   UNL     1      37.920 -22.792 -12.728  0.00  0.00    -0.380 OA
ATOM     27  H   UNL     1      38.057 -22.833 -13.687  0.00  0.00    +0.211 HD
ENDBRANCH  25  26
ENDBRANCH   5  25
BRANCH   4  28
ATOM     28  C   UNL     1      34.235 -23.709 -17.952  0.00  0.00    +0.116 C 
BRANCH  28  30
ATOM     29 CL   UNL     1      36.947 -19.970 -20.340  0.00  0.00    -0.079 Cl
ATOM     30  C   UNL     1      34.234 -22.444 -18.766  0.00  0.00    -0.002 C 
ATOM     31  C   UNL     1      35.442 -21.853 -19.139  0.00  0.00    +0.012 C 
ATOM     32  C   UNL     1      33.025 -21.862 -19.147  0.00  0.00    +0.001 C 
ATOM     33  C   UNL     1      35.440 -20.680 -19.893  0.00  0.00    +0.091 C 
ATOM     34  C   UNL     1      33.024 -20.688 -19.902  0.00  0.00    +0.038 C 
ATOM     35  C   UNL     1      34.232 -20.097 -20.274  0.00  0.00    +0.149 C 
BRANCH  35  36
ATOM     36  O   UNL     1      34.200 -18.951 -21.012  0.00  0.00    -0.471 OA
ATOM     37  C   UNL     1      34.436 -19.076 -22.412  0.00  0.00    +0.253 C 
ENDBRANCH  35  36
ENDBRANCH  28  30
ENDBRANCH   4  28
TORSDOF 8
ENDMDL
MODEL 5
REMARK VINA RESULT:      -9.6      2.679      7.626
REMARK  Name = 9869929
REMARK  8 active torsions:
REMARK  status: ('A' for Active; 'I' for Inactive)
REMARK    1  A    between atoms: N_4  and  C_28
REMARK    2  A    between atoms: C_5  and  C_25
REMARK    3  A    between atoms: C_11  and  C_16
REMARK    4  A    between atoms: N_15  and  C_18
REMARK    5  A    between atoms: C_18  and  C_21
REMARK    6  A    between atoms: C_25  and  O_26
REMARK    7  A    between atoms: C_28  and  C_30
REMARK    8  A    between atoms: C_35  and  O_36
REMARK                            x       y       z     vdW  Elec       q    Type
REMARK                         _______ _______ _______ _____ _____    ______ ____
ROOT
ATOM      1  N   UNL     1      35.402 -19.558 -21.090  0.00  0.00    -0.243 N 
ATOM      2  N   UNL     1      35.474 -20.963 -19.245  0.00  0.00    -0.322 NA
ATOM      3  N   UNL     1      33.442 -20.655 -20.503  0.00  0.00    -0.170 NA
ATOM      4  N   UNL     1      35.510 -22.409 -17.366  0.00  0.00    -0.304 N 
ATOM      5  C   UNL     1      34.760 -18.750 -22.135  0.00  0.00    +0.113 C 
ATOM      6  C   UNL     1      35.767 -17.613 -22.362  0.00  0.00    +0.025 C 
ATOM      7  C   UNL     1      37.111 -18.270 -22.099  0.00  0.00    +0.024 C 
ATOM      8  C   UNL     1      36.817 -19.214 -20.936  0.00  0.00    +0.102 C 
ATOM      9  C   UNL     1      34.744 -20.429 -20.242  0.00  0.00    +0.149 C 
ATOM     10  C   UNL     1      34.802 -21.810 -18.438  0.00  0.00    +0.199 C 
ATOM     11  C   UNL     1      33.468 -22.124 -18.597  0.00  0.00    +0.118 C 
ATOM     12  C   UNL     1      32.833 -21.511 -19.657  0.00  0.00    +0.120 C 
ATOM     13  H   UNL     1      35.029 -23.028 -16.770  0.00  0.00    +0.149 HD
ENDROOT
BRANCH  11  16
ATOM     14  O   UNL     1      33.239 -24.126 -17.395  0.00  0.00    -0.270 OA
ATOM     15  N   UNL     1      31.483 -22.615 -17.276  0.00  0.00    -0.288 N 
ATOM     16  C   UNL     1      32.740 -23.036 -17.727  0.00  0.00    +0.252 C 
ATOM     17  H   UNL     1      31.149 -21.740 -17.578  0.00  0.00    +0.151 HD
BRANCH  15  18
ATOM     18  C   UNL     1      30.651 -23.396 -16.390  0.00  0.00    +0.190 C 
BRANCH  18  21
ATOM     19  N   UNL     1      28.707 -22.452 -15.288  0.00  0.00    -0.195 NA
ATOM     20  N   UNL     1      28.610 -22.993 -17.635  0.00  0.00    -0.217 NA
ATOM     21  C   UNL     1      29.227 -22.914 -16.441  0.00  0.00    +0.028 C 
ATOM     22  C   UNL     1      27.428 -22.029 -15.370  0.00  0.00    +0.107 C 
ATOM     23  C   UNL     1      27.334 -22.553 -17.645  0.00  0.00    +0.164 C 
ATOM     24  C   UNL     1      26.685 -22.056 -16.533  0.00  0.00    +0.022 C 
ENDBRANCH  18  21
ENDBRANCH  15  18
ENDBRANCH  11  16
BRANCH   5  25
ATOM     25  C   UNL     1      34.547 -19.574 -23.403  0.00  0.00    +0.157 C 
BRANCH  25  26
ATOM     26  O   UNL     1      34.584 -18.703 -24.520  0.00  0.00    -0.380 OA
ATOM     27  H   UNL     1      35.506 -18.537 -24.770  0.00  0.00    +0.211 HD
ENDBRANCH  25  26
ENDBRANCH   5  25
BRANCH   4  28
ATOM     28  C   UNL     1      36.890 -22.150 -17.115  0.00  0.00    +0.116 C 
BRANCH  28  30
ATOM     29 CL   UNL     1      40.414 -25.315 -14.970  0.00  0.00    -0.079 Cl
ATOM     30  C   UNL     1      37.360 -22.916 -15.910  0.00  0.00    -0.002 C 
ATOM     31  C   UNL     1      38.530 -23.675 -15.977  0.00  0.00    +0.012 C 
ATOM     32  C   UNL     1      36.626 -22.871 -14.725  0.00  0.00    +0.001 C 
ATOM     33  C   UNL     1      38.964 -24.386 -14.859  0.00  0.00    +0.091 C 
ATOM     34  C   UNL     1      37.061 -23.583 -13.607  0.00  0.00    +0.038 C 
ATOM     35  C   UNL     1      38.231 -24.340 -13.674  0.00  0.00    +0.149 C 
BRANCH  35  36
ATOM     36  O   UNL     1      38.632 -25.025 -12.566  0.00  0.00    -0.471 OA
ATOM     37  C   UNL     1      37.768 -26.058 -12.096  0.00  0.00    +0.253 C 
ENDBRANCH  35  36
ENDBRANCH  28  30
ENDBRANCH   4  28
TORSDOF 8
ENDMDL
MODEL 6
REMARK VINA RESULT:      -9.0      2.832      7.930
REMARK  Name = 9869929
REMARK  8 active torsions:
REMARK  status: ('A' for Active; 'I' for Inactive)
REMARK    1  A    between atoms: N_4  and  C_28
REMARK    2  A    between atoms: C_5  and  C_25
REMARK    3  A    between atoms: C_11  and  C_16
REMARK    4  A    between atoms: N_15  and  C_18
REMARK    5  A    between atoms: C_18  and  C_21
REMARK    6  A    between atoms: C_25  and  O_26
REMARK    7  A    between atoms: C_28  and  C_30
REMARK    8  A    between atoms: C_35  and  O_36
REMARK                            x       y       z     vdW  Elec       q    Type
REMARK                         _______ _______ _______ _____ _____    ______ ____
ROOT
ATOM      1  N   UNL     1      35.439 -19.507 -21.191  0.00  0.00    -0.243 N 
ATOM      2  N   UNL     1      35.404 -20.921 -19.351  0.00  0.00    -0.322 NA
ATOM      3  N   UNL     1      33.412 -20.495 -20.639  0.00  0.00    -0.170 NA
ATOM      4  N   UNL     1      35.329 -22.372 -17.478  0.00  0.00    -0.304 N 
ATOM      5  C   UNL     1      34.859 -18.662 -22.242  0.00  0.00    +0.113 C 
ATOM      6  C   UNL     1      35.932 -17.581 -22.449  0.00  0.00    +0.025 C 
ATOM      7  C   UNL     1      37.233 -18.313 -22.167  0.00  0.00    +0.024 C 
ATOM      8  C   UNL     1      36.869 -19.244 -21.013  0.00  0.00    +0.102 C 
ATOM      9  C   UNL     1      34.721 -20.344 -20.358  0.00  0.00    +0.149 C 
ATOM     10  C   UNL     1      34.673 -21.731 -18.558  0.00  0.00    +0.199 C 
ATOM     11  C   UNL     1      33.326 -21.970 -18.739  0.00  0.00    +0.118 C 
ATOM     12  C   UNL     1      32.743 -21.318 -19.807  0.00  0.00    +0.120 C 
ATOM     13  H   UNL     1      34.806 -22.966 -16.892  0.00  0.00    +0.149 HD
ENDROOT
BRANCH  11  16
ATOM     14  O   UNL     1      32.923 -23.996 -17.628  0.00  0.00    -0.270 OA
ATOM     15  N   UNL     1      31.350 -22.313 -17.361  0.00  0.00    -0.288 N 
ATOM     16  C   UNL     1      32.535 -22.843 -17.885  0.00  0.00    +0.252 C 
ATOM     17  H   UNL     1      31.102 -21.392 -17.606  0.00  0.00    +0.151 HD
BRANCH  15  18
ATOM     18  C   UNL     1      30.469 -23.045 -16.479  0.00  0.00    +0.190 C 
BRANCH  18  21
ATOM     19  N   UNL     1      30.959 -24.824 -14.904  0.00  0.00    -0.195 NA
ATOM     20  N   UNL     1      32.097 -22.707 -14.713  0.00  0.00    -0.217 NA
ATOM     21  C   UNL     1      31.226 -23.560 -15.286  0.00  0.00    +0.028 C 
ATOM     22  C   UNL     1      31.655 -25.253 -13.831  0.00  0.00    +0.107 C 
ATOM     23  C   UNL     1      32.758 -23.202 -13.646  0.00  0.00    +0.164 C 
ATOM     24  C   UNL     1      32.576 -24.479 -13.154  0.00  0.00    +0.022 C 
ENDBRANCH  18  21
ENDBRANCH  15  18
ENDBRANCH  11  16
BRANCH   5  25
ATOM     25  C   UNL     1      34.621 -19.467 -23.518  0.00  0.00    +0.157 C 
BRANCH  25  26
ATOM     26  O   UNL     1      34.456 -18.567 -24.598  0.00  0.00    -0.380 OA
ATOM     27  H   UNL     1      35.325 -18.268 -24.906  0.00  0.00    +0.211 HD
ENDBRANCH  25  26
ENDBRANCH   5  25
BRANCH   4  28
ATOM     28  C   UNL     1      36.717 -22.192 -17.205  0.00  0.00    +0.116 C 
BRANCH  28  30
ATOM     29 CL   UNL     1      40.118 -25.262 -14.745  0.00  0.00    -0.079 Cl
ATOM     30  C   UNL     1      37.109 -22.928 -15.954  0.00  0.00    -0.002 C 
ATOM     31  C   UNL     1      38.290 -23.670 -15.920  0.00  0.00    +0.012 C 
ATOM     32  C   UNL     1      36.289 -22.870 -14.826  0.00  0.00    +0.001 C 
ATOM     33  C   UNL     1      38.652 -24.353 -14.759  0.00  0.00    +0.091 C 
ATOM     34  C   UNL     1      36.652 -23.554 -13.665  0.00  0.00    +0.038 C 
ATOM     35  C   UNL     1      37.833 -24.295 -13.632  0.00  0.00    +0.149 C 
BRANCH  35  36
ATOM     36  O   UNL     1      38.162 -24.952 -12.484  0.00  0.00    -0.471 OA
ATOM     37  C   UNL     1      37.499 -26.190 -12.234  0.00  0.00    +0.253 C 
ENDBRANCH  35  36
ENDBRANCH  28  30
ENDBRANCH   4  28
TORSDOF 8
ENDMDL
MODEL 7
REMARK VINA RESULT:      -8.3     13.289     18.214
REMARK  Name = 9869929
REMARK  8 active torsions:
REMARK  status: ('A' for Active; 'I' for Inactive)
REMARK    1  A    between atoms: N_4  and  C_28
REMARK    2  A    between atoms: C_5  and  C_25
REMARK    3  A    between atoms: C_11  and  C_16
REMARK    4  A    between atoms: N_15  and  C_18
REMARK    5  A    between atoms: C_18  and  C_21
REMARK    6  A    between atoms: C_25  and  O_26
REMARK    7  A    between atoms: C_28  and  C_30
REMARK    8  A    between atoms: C_35  and  O_36
REMARK                            x       y       z     vdW  Elec       q    Type
REMARK                         _______ _______ _______ _____ _____    ______ ____
ROOT
ATOM      1  N   UNL     1      34.227  -4.691 -27.075  0.00  0.00    -0.243 N 
ATOM      2  N   UNL     1      34.133  -6.206 -25.319  0.00  0.00    -0.322 NA
ATOM      3  N   UNL     1      32.546  -4.402 -25.500  0.00  0.00    -0.170 NA
ATOM      4  N   UNL     1      34.005  -7.735 -23.512  0.00  0.00    -0.304 N 
ATOM      5  C   UNL     1      33.916  -3.445 -27.788  0.00  0.00    +0.113 C 
ATOM      6  C   UNL     1      35.191  -3.187 -28.606  0.00  0.00    +0.025 C 
ATOM      7  C   UNL     1      35.698  -4.584 -28.925  0.00  0.00    +0.024 C 
ATOM      8  C   UNL     1      35.391  -5.367 -27.651  0.00  0.00    +0.102 C 
ATOM      9  C   UNL     1      33.609  -5.118 -25.915  0.00  0.00    +0.149 C 
ATOM     10  C   UNL     1      33.506  -6.595 -24.190  0.00  0.00    +0.199 C 
ATOM     11  C   UNL     1      32.408  -5.948 -23.661  0.00  0.00    +0.118 C 
ATOM     12  C   UNL     1      31.968  -4.846 -24.366  0.00  0.00    +0.120 C 
ATOM     13  H   UNL     1      33.556  -8.028 -22.686  0.00  0.00    +0.149 HD
ENDROOT
BRANCH  11  16
ATOM     14  O   UNL     1      30.490  -6.324 -22.365  0.00  0.00    -0.270 OA
ATOM     15  N   UNL     1      32.536  -6.825 -21.395  0.00  0.00    -0.288 N 
ATOM     16  C   UNL     1      31.731  -6.365 -22.443  0.00  0.00    +0.252 C 
ATOM     17  H   UNL     1      33.512  -6.830 -21.524  0.00  0.00    +0.151 HD
BRANCH  15  18
ATOM     18  C   UNL     1      32.012  -7.296 -20.132  0.00  0.00    +0.190 C 
BRANCH  18  21
ATOM     19  N   UNL     1      31.912  -9.434 -18.993  0.00  0.00    -0.195 NA
ATOM     20  N   UNL     1      31.538  -9.326 -21.372  0.00  0.00    -0.217 NA
ATOM     21  C   UNL     1      31.807  -8.785 -20.168  0.00  0.00    +0.028 C 
ATOM     22  C   UNL     1      31.724 -10.769 -19.061  0.00  0.00    +0.107 C 
ATOM     23  C   UNL     1      31.361 -10.664 -21.366  0.00  0.00    +0.164 C 
ATOM     24  C   UNL     1      31.443 -11.444 -20.231  0.00  0.00    +0.022 C 
ENDBRANCH  18  21
ENDBRANCH  15  18
ENDBRANCH  11  16
BRANCH   5  25
ATOM     25  C   UNL     1      32.697  -3.624 -28.690  0.00  0.00    +0.157 C 
BRANCH  25  26
ATOM     26  O   UNL     1      31.582  -3.008 -28.072  0.00  0.00    -0.380 OA
ATOM     27  H   UNL     1      31.448  -3.391 -27.190  0.00  0.00    +0.211 HD
ENDBRANCH  25  26
ENDBRANCH   5  25
BRANCH   4  28
ATOM     28  C   UNL     1      35.134  -8.473 -23.976  0.00  0.00    +0.116 C 
BRANCH  28  30
ATOM     29 CL   UNL     1      32.646 -12.970 -23.185  0.00  0.00    -0.079 Cl
ATOM     30  C   UNL     1      34.706  -9.813 -24.508  0.00  0.00    -0.002 C 
ATOM     31  C   UNL     1      33.961 -10.678 -23.705  0.00  0.00    +0.012 C 
ATOM     32  C   UNL     1      35.055 -10.191 -25.804  0.00  0.00    +0.001 C 
ATOM     33  C   UNL     1      33.566 -11.921 -24.199  0.00  0.00    +0.091 C 
ATOM     34  C   UNL     1      34.658 -11.435 -26.298  0.00  0.00    +0.038 C 
ATOM     35  C   UNL     1      33.914 -12.299 -25.495  0.00  0.00    +0.149 C 
BRANCH  35  36
ATOM     36  O   UNL     1      33.541 -13.508 -26.004  0.00  0.00    -0.471 OA
ATOM     37  C   UNL     1      33.437 -13.608 -27.423  0.00  0.00    +0.253 C 
ENDBRANCH  35  36
ENDBRANCH  28  30
ENDBRANCH   4  28
TORSDOF 8
ENDMDL
MODEL 8
REMARK VINA RESULT:      -8.1      2.987      8.298
REMARK  Name = 9869929
REMARK  8 active torsions:
REMARK  status: ('A' for Active; 'I' for Inactive)
REMARK    1  A    between atoms: N_4  and  C_28
REMARK    2  A    between atoms: C_5  and  C_25
REMARK    3  A    between atoms: C_11  and  C_16
REMARK    4  A    between atoms: N_15  and  C_18
REMARK    5  A    between atoms: C_18  and  C_21
REMARK    6  A    between atoms: C_25  and  O_26
REMARK    7  A    between atoms: C_28  and  C_30
REMARK    8  A    between atoms: C_35  and  O_36
REMARK                            x       y       z     vdW  Elec       q    Type
REMARK                         _______ _______ _______ _____ _____    ______ ____
ROOT
ATOM      1  N   UNL     1      30.354 -23.961 -15.971  0.00  0.00    -0.243 N 
ATOM      2  N   UNL     1      32.674 -23.965 -15.906  0.00  0.00    -0.322 NA
ATOM      3  N   UNL     1      31.472 -22.672 -17.546  0.00  0.00    -0.170 NA
ATOM      4  N   UNL     1      35.044 -23.943 -15.868  0.00  0.00    -0.304 N 
ATOM      5  C   UNL     1      29.031 -23.719 -16.561  0.00  0.00    +0.113 C 
ATOM      6  C   UNL     1      28.173 -24.842 -15.958  0.00  0.00    +0.025 C 
ATOM      7  C   UNL     1      28.783 -25.056 -14.583  0.00  0.00    +0.024 C 
ATOM      8  C   UNL     1      30.279 -24.877 -14.832  0.00  0.00    +0.102 C 
ATOM      9  C   UNL     1      31.551 -23.513 -16.497  0.00  0.00    +0.149 C 
ATOM     10  C   UNL     1      33.824 -23.508 -16.443  0.00  0.00    +0.199 C 
ATOM     11  C   UNL     1      33.878 -22.644 -17.517  0.00  0.00    +0.118 C 
ATOM     12  C   UNL     1      32.659 -22.256 -18.032  0.00  0.00    +0.120 C 
ATOM     13  H   UNL     1      35.890 -23.617 -16.253  0.00  0.00    +0.149 HD
ENDROOT
BRANCH  11  16
ATOM     14  O   UNL     1      36.212 -22.416 -17.572  0.00  0.00    -0.270 OA
ATOM     15  N   UNL     1      35.010 -21.397 -19.274  0.00  0.00    -0.288 N 
ATOM     16  C   UNL     1      35.117 -22.151 -18.099  0.00  0.00    +0.252 C 
ATOM     17  H   UNL     1      34.112 -21.224 -19.637  0.00  0.00    +0.151 HD
BRANCH  15  18
ATOM     18  C   UNL     1      36.148 -20.858 -19.983  0.00  0.00    +0.190 C 
BRANCH  18  21
ATOM     19  N   UNL     1      36.330 -18.622 -20.904  0.00  0.00    -0.195 NA
ATOM     20  N   UNL     1      34.736 -20.174 -21.832  0.00  0.00    -0.217 NA
ATOM     21  C   UNL     1      35.709 -19.815 -20.973  0.00  0.00    +0.028 C 
ATOM     22  C   UNL     1      35.911 -17.710 -21.806  0.00  0.00    +0.107 C 
ATOM     23  C   UNL     1      34.366 -19.214 -22.705  0.00  0.00    +0.164 C 
ATOM     24  C   UNL     1      34.923 -17.951 -22.739  0.00  0.00    +0.022 C 
ENDBRANCH  18  21
ENDBRANCH  15  18
ENDBRANCH  11  16
BRANCH   5  25
ATOM     25  C   UNL     1      28.506 -22.339 -16.170  0.00  0.00    +0.157 C 
BRANCH  25  26
ATOM     26  O   UNL     1      27.090 -22.383 -16.150  0.00  0.00    -0.380 OA
ATOM     27  H   UNL     1      26.742 -21.939 -16.939  0.00  0.00    +0.211 HD
ENDBRANCH  25  26
ENDBRANCH   5  25
BRANCH   4  28
ATOM     28  C   UNL     1      35.097 -24.836 -14.757  0.00  0.00    +0.116 C 
BRANCH  28  30
ATOM     29 CL   UNL     1      40.136 -25.459 -13.637  0.00  0.00    -0.079 Cl
ATOM     30  C   UNL     1      36.263 -24.505 -13.869  0.00  0.00    -0.002 C 
ATOM     31  C   UNL     1      37.517 -25.063 -14.124  0.00  0.00    +0.012 C 
ATOM     32  C   UNL     1      36.092 -23.640 -12.788  0.00  0.00    +0.001 C 
ATOM     33  C   UNL     1      38.598 -24.755 -13.298  0.00  0.00    +0.091 C 
ATOM     34  C   UNL     1      37.174 -23.333 -11.962  0.00  0.00    +0.038 C 
ATOM     35  C   UNL     1      38.427 -23.891 -12.218  0.00  0.00    +0.149 C 
BRANCH  35  36
ATOM     36  O   UNL     1      39.466 -23.572 -11.395  0.00  0.00    -0.471 OA
ATOM     37  C   UNL     1      40.273 -22.459 -11.773  0.00  0.00    +0.253 C 
ENDBRANCH  35  36
ENDBRANCH  28  30
ENDBRANCH   4  28
TORSDOF 8
ENDMDL
MODEL 9
REMARK VINA RESULT:      -8.1      3.541      8.891
REMARK  Name = 9869929
REMARK  8 active torsions:
REMARK  status: ('A' for Active; 'I' for Inactive)
REMARK    1  A    between atoms: N_4  and  C_28
REMARK    2  A    between atoms: C_5  and  C_25
REMARK    3  A    between atoms: C_11  and  C_16
REMARK    4  A    between atoms: N_15  and  C_18
REMARK    5  A    between atoms: C_18  and  C_21
REMARK    6  A    between atoms: C_25  and  O_26
REMARK    7  A    between atoms: C_28  and  C_30
REMARK    8  A    between atoms: C_35  and  O_36
REMARK                            x       y       z     vdW  Elec       q    Type
REMARK                         _______ _______ _______ _____ _____    ______ ____
ROOT
ATOM      1  N   UNL     1      35.122 -19.705 -21.390  0.00  0.00    -0.243 N 
ATOM      2  N   UNL     1      34.781 -21.139 -19.597  0.00  0.00    -0.322 NA
ATOM      3  N   UNL     1      36.888 -20.014 -19.916  0.00  0.00    -0.170 NA
ATOM      4  N   UNL     1      34.469 -22.595 -17.753  0.00  0.00    -0.304 N 
ATOM      5  C   UNL     1      35.912 -18.901 -22.331  0.00  0.00    +0.113 C 
ATOM      6  C   UNL     1      35.078 -18.958 -23.620  0.00  0.00    +0.025 C 
ATOM      7  C   UNL     1      33.647 -19.038 -23.116  0.00  0.00    +0.024 C 
ATOM      8  C   UNL     1      33.761 -19.930 -21.882  0.00  0.00    +0.102 C 
ATOM      9  C   UNL     1      35.618 -20.312 -20.252  0.00  0.00    +0.149 C 
ATOM     10  C   UNL     1      35.298 -21.714 -18.492  0.00  0.00    +0.199 C 
ATOM     11  C   UNL     1      36.582 -21.491 -18.041  0.00  0.00    +0.118 C 
ATOM     12  C   UNL     1      37.339 -20.623 -18.801  0.00  0.00    +0.120 C 
ATOM     13  H   UNL     1      34.836 -23.022 -16.944  0.00  0.00    +0.149 HD
ENDROOT
BRANCH  11  16
ATOM     14  O   UNL     1      38.338 -22.450 -16.816  0.00  0.00    -0.270 OA
ATOM     15  N   UNL     1      36.282 -22.278 -15.757  0.00  0.00    -0.288 N 
ATOM     16  C   UNL     1      37.142 -22.111 -16.849  0.00  0.00    +0.252 C 
ATOM     17  H   UNL     1      35.346 -21.987 -15.852  0.00  0.00    +0.151 HD
BRANCH  15  18
ATOM     18  C   UNL     1      36.694 -22.854 -14.497  0.00  0.00    +0.190 C 
BRANCH  18  21
ATOM     19  N   UNL     1      38.159 -24.765 -14.213  0.00  0.00    -0.195 NA
ATOM     20  N   UNL     1      35.987 -25.059 -15.216  0.00  0.00    -0.217 NA
ATOM     21  C   UNL     1      36.964 -24.325 -14.653  0.00  0.00    +0.028 C 
ATOM     22  C   UNL     1      38.369 -26.089 -14.368  0.00  0.00    +0.107 C 
ATOM     23  C   UNL     1      36.263 -26.374 -15.340  0.00  0.00    +0.164 C 
ATOM     24  C   UNL     1      37.449 -26.951 -14.931  0.00  0.00    +0.022 C 
ENDBRANCH  18  21
ENDBRANCH  15  18
ENDBRANCH  11  16
BRANCH   5  25
ATOM     25  C   UNL     1      36.065 -17.468 -21.825  0.00  0.00    +0.157 C 
BRANCH  25  26
ATOM     26  O   UNL     1      35.362 -17.342 -20.602  0.00  0.00    -0.380 OA
ATOM     27  H   UNL     1      34.881 -18.164 -20.419  0.00  0.00    +0.211 HD
ENDBRANCH  25  26
ENDBRANCH   5  25
BRANCH   4  28
ATOM     28  C   UNL     1      33.128 -22.893 -18.135  0.00  0.00    +0.116 C 
BRANCH  28  30
ATOM     29 CL   UNL     1      28.420 -22.512 -15.960  0.00  0.00    -0.079 Cl
ATOM     30  C   UNL     1      32.259 -23.063 -16.920  0.00  0.00    -0.002 C 
ATOM     31  C   UNL     1      30.901 -22.750 -16.982  0.00  0.00    +0.012 C 
ATOM     32  C   UNL     1      32.812 -23.534 -15.729  0.00  0.00    +0.001 C 
ATOM     33  C   UNL     1      30.096 -22.907 -15.854  0.00  0.00    +0.091 C 
ATOM     34  C   UNL     1      32.005 -23.692 -14.601  0.00  0.00    +0.038 C 
ATOM     35  C   UNL     1      30.648 -23.378 -14.664  0.00  0.00    +0.149 C 
BRANCH  35  36
ATOM     36  O   UNL     1      29.885 -23.543 -13.546  0.00  0.00    -0.471 OA
ATOM     37  C   UNL     1      30.298 -24.548 -12.623  0.00  0.00    +0.253 C 
ENDBRANCH  35  36
ENDBRANCH  28  30
ENDBRANCH   4  28
TORSDOF 8
ENDMDL
