MODEL 1
REMARK VINA RESULT:     -11.3      0.000      0.000
REMARK  Name = 2197
REMARK  2 active torsions:
REMARK  status: ('A' for Active; 'I' for Inactive)
REMARK    1  A    between atoms: C_3  and  C_12
REMARK    2  A    between atoms: C_17  and  O_18
REMARK                            x       y       z     vdW  Elec       q    Type
REMARK                         _______ _______ _______ _____ _____    ______ ____
ROOT
ATOM      1  O   UNL     1      35.317 -16.646 -20.381  0.00  0.00    -0.291 OA
ATOM      2  O   UNL     1      35.165 -19.629 -24.068  0.00  0.00    -0.291 OA
ATOM      3  C   UNL     1      35.543 -18.580 -21.879  0.00  0.00    +0.146 C 
ATOM      4  C   UNL     1      35.205 -17.150 -21.483  0.00  0.00    +0.184 C 
ATOM      5  C   UNL     1      35.129 -18.655 -23.340  0.00  0.00    +0.184 C 
ATOM      6  C   UNL     1      34.707 -16.453 -22.671  0.00  0.00    +0.038 C 
ATOM      7  C   UNL     1      34.662 -17.329 -23.752  0.00  0.00    +0.038 C 
ATOM      8  C   UNL     1      34.308 -15.136 -22.787  0.00  0.00    +0.003 C 
ATOM      9  C   UNL     1      34.218 -16.925 -24.996  0.00  0.00    +0.003 C 
ATOM     10  C   UNL     1      33.857 -14.709 -24.039  0.00  0.00    +0.000 C 
ATOM     11  C   UNL     1      33.812 -15.595 -25.133  0.00  0.00    +0.000 C 
ENDROOT
BRANCH   3  12
ATOM     12  C   UNL     1      34.818 -19.574 -21.044  0.00  0.00    -0.008 C 
ATOM     13  C   UNL     1      33.425 -19.524 -20.945  0.00  0.00    -0.000 C 
ATOM     14  C   UNL     1      35.526 -20.563 -20.355  0.00  0.00    -0.000 C 
ATOM     15  C   UNL     1      32.745 -20.456 -20.161  0.00  0.00    +0.037 C 
ATOM     16  C   UNL     1      34.845 -21.494 -19.572  0.00  0.00    +0.037 C 
ATOM     17  C   UNL     1      33.455 -21.441 -19.474  0.00  0.00    +0.139 C 
BRANCH  17  18
ATOM     18  O   UNL     1      32.789 -22.351 -18.711  0.00  0.00    -0.471 OA
ATOM     19  C   UNL     1      33.564 -23.109 -17.783  0.00  0.00    +0.252 C 
ENDBRANCH  17  18
ENDBRANCH   3  12
TORSDOF 2
ENDMDL
MODEL 2
REMARK VINA RESULT:      -9.4      1.685      6.336
REMARK  Name = 2197
REMARK  2 active torsions:
REMARK  status: ('A' for Active; 'I' for Inactive)
REMARK    1  A    between atoms: C_3  and  C_12
REMARK    2  A    between atoms: C_17  and  O_18
REMARK                            x       y       z     vdW  Elec       q    Type
REMARK                         _______ _______ _______ _____ _____    ______ ____
ROOT
ATOM      1  O   UNL     1      37.011 -18.710 -21.408  0.00  0.00    -0.291 OA
ATOM      2  O   UNL     1      32.342 -18.310 -20.665  0.00  0.00    -0.291 OA
ATOM      3  C   UNL     1      34.708 -17.888 -21.172  0.00  0.00    +0.146 C 
ATOM      4  C   UNL     1      35.852 -18.888 -21.085  0.00  0.00    +0.184 C 
ATOM      5  C   UNL     1      33.498 -18.685 -20.711  0.00  0.00    +0.184 C 
ATOM      6  C   UNL     1      35.323 -20.139 -20.538  0.00  0.00    +0.038 C 
ATOM      7  C   UNL     1      33.953 -20.021 -20.321  0.00  0.00    +0.038 C 
ATOM      8  C   UNL     1      36.004 -21.309 -20.262  0.00  0.00    +0.003 C 
ATOM      9  C   UNL     1      33.206 -21.067 -19.815  0.00  0.00    +0.003 C 
ATOM     10  C   UNL     1      35.264 -22.377 -19.748  0.00  0.00    +0.000 C 
ATOM     11  C   UNL     1      33.879 -22.258 -19.528  0.00  0.00    +0.000 C 
ENDROOT
BRANCH   3  12
ATOM     12  C   UNL     1      34.534 -17.360 -22.552  0.00  0.00    -0.008 C 
ATOM     13  C   UNL     1      34.268 -16.003 -22.755  0.00  0.00    -0.000 C 
ATOM     14  C   UNL     1      34.637 -18.218 -23.650  0.00  0.00    -0.000 C 
ATOM     15  C   UNL     1      34.104 -15.509 -24.049  0.00  0.00    +0.037 C 
ATOM     16  C   UNL     1      34.472 -17.723 -24.943  0.00  0.00    +0.037 C 
ATOM     17  C   UNL     1      34.206 -16.368 -25.143  0.00  0.00    +0.139 C 
BRANCH  17  18
ATOM     18  O   UNL     1      34.047 -15.884 -26.405  0.00  0.00    -0.471 OA
ATOM     19  C   UNL     1      33.129 -14.804 -26.574  0.00  0.00    +0.252 C 
ENDBRANCH  17  18
ENDBRANCH   3  12
TORSDOF 2
ENDMDL
MODEL 3
REMARK VINA RESULT:      -9.3      1.767      6.350
REMARK  Name = 2197
REMARK  2 active torsions:
REMARK  status: ('A' for Active; 'I' for Inactive)
REMARK    1  A    between atoms: C_3  and  C_12
REMARK    2  A    between atoms: C_17  and  O_18
REMARK                            x       y       z     vdW  Elec       q    Type
REMARK                         _______ _______ _______ _____ _____    ______ ____
ROOT
ATOM      1  O   UNL     1      32.800 -19.870 -21.637  0.00  0.00    -0.291 OA
ATOM      2  O   UNL     1      37.473 -19.095 -21.356  0.00  0.00    -0.291 OA
ATOM      3  C   UNL     1      35.116 -19.162 -22.048  0.00  0.00    +0.146 C 
ATOM      4  C   UNL     1      33.981 -19.895 -21.347  0.00  0.00    +0.184 C 
ATOM      5  C   UNL     1      36.337 -19.503 -21.206  0.00  0.00    +0.184 C 
ATOM      6  C   UNL     1      34.549 -20.656 -20.232  0.00  0.00    +0.038 C 
ATOM      7  C   UNL     1      35.920 -20.427 -20.150  0.00  0.00    +0.038 C 
ATOM      8  C   UNL     1      33.896 -21.485 -19.342  0.00  0.00    +0.003 C 
ATOM      9  C   UNL     1      36.697 -21.021 -19.175  0.00  0.00    +0.003 C 
ATOM     10  C   UNL     1      34.667 -22.096 -18.349  0.00  0.00    +0.000 C 
ATOM     11  C   UNL     1      36.054 -21.866 -18.266  0.00  0.00    +0.000 C 
ENDROOT
BRANCH   3  12
ATOM     12  C   UNL     1      34.877 -17.695 -22.111  0.00  0.00    -0.008 C 
ATOM     13  C   UNL     1      34.798 -17.051 -23.349  0.00  0.00    -0.000 C 
ATOM     14  C   UNL     1      34.728 -16.957 -20.935  0.00  0.00    -0.000 C 
ATOM     15  C   UNL     1      34.575 -15.675 -23.408  0.00  0.00    +0.037 C 
ATOM     16  C   UNL     1      34.504 -15.581 -20.995  0.00  0.00    +0.037 C 
ATOM     17  C   UNL     1      34.428 -14.941 -22.232  0.00  0.00    +0.139 C 
BRANCH  17  18
ATOM     18  O   UNL     1      34.208 -13.598 -22.292  0.00  0.00    -0.471 OA
ATOM     19  C   UNL     1      33.759 -13.070 -23.539  0.00  0.00    +0.252 C 
ENDBRANCH  17  18
ENDBRANCH   3  12
TORSDOF 2
ENDMDL
MODEL 4
REMARK VINA RESULT:      -8.9      2.078      7.247
REMARK  Name = 2197
REMARK  2 active torsions:
REMARK  status: ('A' for Active; 'I' for Inactive)
REMARK    1  A    between atoms: C_3  and  C_12
REMARK    2  A    between atoms: C_17  and  O_18
REMARK                            x       y       z     vdW  Elec       q    Type
REMARK                         _______ _______ _______ _____ _____    ______ ____
ROOT
ATOM      1  O   UNL     1      32.884 -22.600 -19.896  0.00  0.00    -0.291 OA
ATOM      2  O   UNL     1      37.114 -21.705 -17.940  0.00  0.00    -0.291 OA
ATOM      3  C   UNL     1      35.246 -22.051 -19.498  0.00  0.00    +0.146 C 
ATOM      4  C   UNL     1      33.835 -22.501 -19.144  0.00  0.00    +0.184 C 
ATOM      5  C   UNL     1      35.968 -22.049 -18.159  0.00  0.00    +0.184 C 
ATOM      6  C   UNL     1      33.798 -22.803 -17.711  0.00  0.00    +0.038 C 
ATOM      7  C   UNL     1      35.039 -22.539 -17.138  0.00  0.00    +0.038 C 
ATOM      8  C   UNL     1      32.736 -23.267 -16.961  0.00  0.00    +0.003 C 
ATOM      9  C   UNL     1      35.271 -22.731 -15.790  0.00  0.00    +0.003 C 
ATOM     10  C   UNL     1      32.953 -23.469 -15.595  0.00  0.00    +0.000 C 
ATOM     11  C   UNL     1      34.208 -23.203 -15.015  0.00  0.00    +0.000 C 
ENDROOT
BRANCH   3  12
ATOM     12  C   UNL     1      35.258 -20.709 -20.139  0.00  0.00    -0.008 C 
ATOM     13  C   UNL     1      34.055 -20.068 -20.445  0.00  0.00    -0.000 C 
ATOM     14  C   UNL     1      36.471 -20.085 -20.436  0.00  0.00    -0.000 C 
ATOM     15  C   UNL     1      34.066 -18.810 -21.047  0.00  0.00    +0.037 C 
ATOM     16  C   UNL     1      36.482 -18.827 -21.038  0.00  0.00    +0.037 C 
ATOM     17  C   UNL     1      35.280 -18.189 -21.344  0.00  0.00    +0.139 C 
BRANCH  17  18
ATOM     18  O   UNL     1      35.289 -16.960 -21.930  0.00  0.00    -0.471 OA
ATOM     19  C   UNL     1      34.666 -15.896 -21.213  0.00  0.00    +0.252 C 
ENDBRANCH  17  18
ENDBRANCH   3  12
TORSDOF 2
ENDMDL
MODEL 5
REMARK VINA RESULT:      -8.9      7.922      9.901
REMARK  Name = 2197
REMARK  2 active torsions:
REMARK  status: ('A' for Active; 'I' for Inactive)
REMARK    1  A    between atoms: C_3  and  C_12
REMARK    2  A    between atoms: C_17  and  O_18
REMARK                            x       y       z     vdW  Elec       q    Type
REMARK                         _______ _______ _______ _____ _____    ______ ____
ROOT
ATOM      1  O   UNL     1      34.039 -23.915 -12.379  0.00  0.00    -0.291 OA
ATOM      2  O   UNL     1      34.645 -22.912 -16.977  0.00  0.00    -0.291 OA
ATOM      3  C   UNL     1      34.944 -23.239 -14.560  0.00  0.00    +0.146 C 
ATOM      4  C   UNL     1      33.883 -23.676 -13.561  0.00  0.00    +0.184 C 
ATOM      5  C   UNL     1      34.190 -23.170 -15.879  0.00  0.00    +0.184 C 
ATOM      6  C   UNL     1      32.603 -23.769 -14.267  0.00  0.00    +0.038 C 
ATOM      7  C   UNL     1      32.782 -23.476 -15.616  0.00  0.00    +0.038 C 
ATOM      8  C   UNL     1      31.365 -24.103 -13.755  0.00  0.00    +0.003 C 
ATOM      9  C   UNL     1      31.729 -23.501 -16.510  0.00  0.00    +0.003 C 
ATOM     10  C   UNL     1      30.288 -24.133 -14.645  0.00  0.00    +0.000 C 
ATOM     11  C   UNL     1      30.468 -23.835 -16.009  0.00  0.00    +0.000 C 
ENDROOT
BRANCH   3  12
ATOM     12  C   UNL     1      36.081 -24.197 -14.619  0.00  0.00    -0.008 C 
ATOM     13  C   UNL     1      37.365 -23.785 -14.252  0.00  0.00    -0.000 C 
ATOM     14  C   UNL     1      35.869 -25.512 -15.040  0.00  0.00    -0.000 C 
ATOM     15  C   UNL     1      38.431 -24.683 -14.309  0.00  0.00    +0.037 C 
ATOM     16  C   UNL     1      36.935 -26.409 -15.096  0.00  0.00    +0.037 C 
ATOM     17  C   UNL     1      38.216 -25.995 -14.730  0.00  0.00    +0.139 C 
BRANCH  17  18
ATOM     18  O   UNL     1      39.257 -26.871 -14.783  0.00  0.00    -0.471 OA
ATOM     19  C   UNL     1      40.549 -26.363 -14.451  0.00  0.00    +0.252 C 
ENDBRANCH  17  18
ENDBRANCH   3  12
TORSDOF 2
ENDMDL
MODEL 6
REMARK VINA RESULT:      -8.7      8.820     13.191
REMARK  Name = 2197
REMARK  2 active torsions:
REMARK  status: ('A' for Active; 'I' for Inactive)
REMARK    1  A    between atoms: C_3  and  C_12
REMARK    2  A    between atoms: C_17  and  O_18
REMARK                            x       y       z     vdW  Elec       q    Type
REMARK                         _______ _______ _______ _____ _____    ______ ____
ROOT
ATOM      1  O   UNL     1      32.464  -9.366 -23.830  0.00  0.00    -0.291 OA
ATOM      2  O   UNL     1      33.030  -6.983 -19.766  0.00  0.00    -0.291 OA
ATOM      3  C   UNL     1      33.062  -7.716 -22.111  0.00  0.00    +0.146 C 
ATOM      4  C   UNL     1      32.523  -9.028 -22.663  0.00  0.00    +0.184 C 
ATOM      5  C   UNL     1      32.809  -7.825 -20.615  0.00  0.00    +0.184 C 
ATOM      6  C   UNL     1      32.070  -9.845 -21.536  0.00  0.00    +0.038 C 
ATOM      7  C   UNL     1      32.235  -9.145 -20.344  0.00  0.00    +0.038 C 
ATOM      8  C   UNL     1      31.534 -11.118 -21.562  0.00  0.00    +0.003 C 
ATOM      9  C   UNL     1      31.875  -9.689 -19.126  0.00  0.00    +0.003 C 
ATOM     10  C   UNL     1      31.165 -11.685 -20.339  0.00  0.00    +0.000 C 
ATOM     11  C   UNL     1      31.333 -10.978 -19.133  0.00  0.00    +0.000 C 
ENDROOT
BRANCH   3  12
ATOM     12  C   UNL     1      32.377  -6.538 -22.707  0.00  0.00    -0.008 C 
ATOM     13  C   UNL     1      32.712  -6.109 -23.993  0.00  0.00    -0.000 C 
ATOM     14  C   UNL     1      31.396  -5.857 -21.983  0.00  0.00    -0.000 C 
ATOM     15  C   UNL     1      32.070  -5.003 -24.552  0.00  0.00    +0.037 C 
ATOM     16  C   UNL     1      30.754  -4.752 -22.541  0.00  0.00    +0.037 C 
ATOM     17  C   UNL     1      31.091  -4.325 -23.826  0.00  0.00    +0.139 C 
BRANCH  17  18
ATOM     18  O   UNL     1      30.465  -3.247 -24.373  0.00  0.00    -0.471 OA
ATOM     19  C   UNL     1      31.102  -2.623 -25.486  0.00  0.00    +0.252 C 
ENDBRANCH  17  18
ENDBRANCH   3  12
TORSDOF 2
ENDMDL
MODEL 7
REMARK VINA RESULT:      -8.7      8.820     13.157
REMARK  Name = 2197
REMARK  2 active torsions:
REMARK  status: ('A' for Active; 'I' for Inactive)
REMARK    1  A    between atoms: C_3  and  C_12
REMARK    2  A    between atoms: C_17  and  O_18
REMARK                            x       y       z     vdW  Elec       q    Type
REMARK                         _______ _______ _______ _____ _____    ______ ____
ROOT
ATOM      1  O   UNL     1      32.452  -9.418 -23.838  0.00  0.00    -0.291 OA
ATOM      2  O   UNL     1      33.042  -7.020 -19.787  0.00  0.00    -0.291 OA
ATOM      3  C   UNL     1      33.065  -7.764 -22.128  0.00  0.00    +0.146 C 
ATOM      4  C   UNL     1      32.516  -9.075 -22.673  0.00  0.00    +0.184 C 
ATOM      5  C   UNL     1      32.813  -7.865 -20.631  0.00  0.00    +0.184 C 
ATOM      6  C   UNL     1      32.059  -9.884 -21.541  0.00  0.00    +0.038 C 
ATOM      7  C   UNL     1      32.231  -9.179 -20.353  0.00  0.00    +0.038 C 
ATOM      8  C   UNL     1      31.514 -11.153 -21.560  0.00  0.00    +0.003 C 
ATOM      9  C   UNL     1      31.869  -9.715 -19.132  0.00  0.00    +0.003 C 
ATOM     10  C   UNL     1      31.143 -11.712 -20.334  0.00  0.00    +0.000 C 
ATOM     11  C   UNL     1      31.319 -11.000 -19.132  0.00  0.00    +0.000 C 
ENDROOT
BRANCH   3  12
ATOM     12  C   UNL     1      32.386  -6.584 -22.728  0.00  0.00    -0.008 C 
ATOM     13  C   UNL     1      31.429  -5.878 -21.995  0.00  0.00    -0.000 C 
ATOM     14  C   UNL     1      32.704  -6.178 -24.027  0.00  0.00    -0.000 C 
ATOM     15  C   UNL     1      30.793  -4.772 -22.559  0.00  0.00    +0.037 C 
ATOM     16  C   UNL     1      32.066  -5.072 -24.589  0.00  0.00    +0.037 C 
ATOM     17  C   UNL     1      31.111  -4.369 -23.855  0.00  0.00    +0.139 C 
BRANCH  17  18
ATOM     18  O   UNL     1      30.490  -3.289 -24.403  0.00  0.00    -0.471 OA
ATOM     19  C   UNL     1      30.854  -2.006 -23.897  0.00  0.00    +0.252 C 
ENDBRANCH  17  18
ENDBRANCH   3  12
TORSDOF 2
ENDMDL
MODEL 8
REMARK VINA RESULT:      -8.7      2.590      4.659
REMARK  Name = 2197
REMARK  2 active torsions:
REMARK  status: ('A' for Active; 'I' for Inactive)
REMARK    1  A    between atoms: C_3  and  C_12
REMARK    2  A    between atoms: C_17  and  O_18
REMARK                            x       y       z     vdW  Elec       q    Type
REMARK                         _______ _______ _______ _____ _____    ______ ____
ROOT
ATOM      1  O   UNL     1      37.250 -21.658 -20.063  0.00  0.00    -0.291 OA
ATOM      2  O   UNL     1      32.573 -21.219 -19.393  0.00  0.00    -0.291 OA
ATOM      3  C   UNL     1      34.888 -22.035 -19.503  0.00  0.00    +0.146 C 
ATOM      4  C   UNL     1      36.089 -21.295 -20.074  0.00  0.00    +0.184 C 
ATOM      5  C   UNL     1      33.731 -21.075 -19.735  0.00  0.00    +0.184 C 
ATOM      6  C   UNL     1      35.615 -20.037 -20.656  0.00  0.00    +0.038 C 
ATOM      7  C   UNL     1      34.244 -19.909 -20.458  0.00  0.00    +0.038 C 
ATOM      8  C   UNL     1      36.350 -19.065 -21.306  0.00  0.00    +0.003 C 
ATOM      9  C   UNL     1      33.546 -18.803 -20.904  0.00  0.00    +0.003 C 
ATOM     10  C   UNL     1      35.661 -17.939 -21.765  0.00  0.00    +0.000 C 
ATOM     11  C   UNL     1      34.273 -17.809 -21.567  0.00  0.00    +0.000 C 
ENDROOT
BRANCH   3  12
ATOM     12  C   UNL     1      35.065 -22.354 -18.061  0.00  0.00    -0.008 C 
ATOM     13  C   UNL     1      34.060 -23.029 -17.364  0.00  0.00    -0.000 C 
ATOM     14  C   UNL     1      36.236 -21.979 -17.398  0.00  0.00    -0.000 C 
ATOM     15  C   UNL     1      34.226 -23.327 -16.011  0.00  0.00    +0.037 C 
ATOM     16  C   UNL     1      36.401 -22.277 -16.046  0.00  0.00    +0.037 C 
ATOM     17  C   UNL     1      35.396 -22.951 -15.352  0.00  0.00    +0.139 C 
BRANCH  17  18
ATOM     18  O   UNL     1      35.557 -23.244 -14.032  0.00  0.00    -0.471 OA
ATOM     19  C   UNL     1      36.896 -23.370 -13.555  0.00  0.00    +0.252 C 
ENDBRANCH  17  18
ENDBRANCH   3  12
TORSDOF 2
ENDMDL
MODEL 9
REMARK VINA RESULT:      -8.7      4.096      8.323
REMARK  Name = 2197
REMARK  2 active torsions:
REMARK  status: ('A' for Active; 'I' for Inactive)
REMARK    1  A    between atoms: C_3  and  C_12
REMARK    2  A    between atoms: C_17  and  O_18
REMARK                            x       y       z     vdW  Elec       q    Type
REMARK                         _______ _______ _______ _____ _____    ______ ____
ROOT
ATOM      1  O   UNL     1      32.639 -13.750 -20.455  0.00  0.00    -0.291 OA
ATOM      2  O   UNL     1      32.930 -14.258 -25.164  0.00  0.00    -0.291 OA
ATOM      3  C   UNL     1      32.325 -13.568 -22.885  0.00  0.00    +0.146 C 
ATOM      4  C   UNL     1      32.874 -14.137 -21.584  0.00  0.00    +0.184 C 
ATOM      5  C   UNL     1      33.020 -14.392 -23.958  0.00  0.00    +0.184 C 
ATOM      6  C   UNL     1      33.760 -15.256 -21.914  0.00  0.00    +0.038 C 
ATOM      7  C   UNL     1      33.845 -15.404 -23.295  0.00  0.00    +0.038 C 
ATOM      8  C   UNL     1      34.454 -16.081 -21.051  0.00  0.00    +0.003 C 
ATOM      9  C   UNL     1      34.627 -16.385 -23.873  0.00  0.00    +0.003 C 
ATOM     10  C   UNL     1      35.250 -17.080 -21.618  0.00  0.00    +0.000 C 
ATOM     11  C   UNL     1      35.335 -17.231 -23.015  0.00  0.00    +0.000 C 
ENDROOT
BRANCH   3  12
ATOM     12  C   UNL     1      32.614 -12.116 -23.023  0.00  0.00    -0.008 C 
ATOM     13  C   UNL     1      31.792 -11.175 -22.398  0.00  0.00    -0.000 C 
ATOM     14  C   UNL     1      33.708 -11.687 -23.778  0.00  0.00    -0.000 C 
ATOM     15  C   UNL     1      32.062  -9.813 -22.529  0.00  0.00    +0.037 C 
ATOM     16  C   UNL     1      33.978 -10.325 -23.909  0.00  0.00    +0.037 C 
ATOM     17  C   UNL     1      33.155  -9.388 -23.284  0.00  0.00    +0.139 C 
BRANCH  17  18
ATOM     18  O   UNL     1      33.419  -8.058 -23.409  0.00  0.00    -0.471 OA
ATOM     19  C   UNL     1      34.790  -7.676 -23.508  0.00  0.00    +0.252 C 
ENDBRANCH  17  18
ENDBRANCH   3  12
TORSDOF 2
ENDMDL
