MODEL 1
REMARK VINA RESULT:      -5.8      0.000      0.000
REMARK  Name = 446337
REMARK  0 active torsions:
REMARK  status: ('A' for Active; 'I' for Inactive)
REMARK                            x       y       z     vdW  Elec       q    Type
REMARK                         _______ _______ _______ _____ _____    ______ ____
ROOT
ATOM      1  O   UNL     1      35.979 -21.810 -20.239  0.00  0.00    -0.296 OA
ATOM      2  N   UNL     1      35.025 -17.900 -20.826  0.00  0.00    +0.389 N 
ATOM      3  C   UNL     1      36.287 -18.374 -21.420  0.00  0.00    -0.051 C 
ATOM      4  C   UNL     1      34.052 -18.902 -21.299  0.00  0.00    -0.051 C 
ATOM      5  C   UNL     1      35.916 -18.808 -22.843  0.00  0.00    -0.022 C 
ATOM      6  C   UNL     1      34.430 -19.158 -22.763  0.00  0.00    -0.022 C 
ATOM      7  C   UNL     1      36.765 -19.567 -20.577  0.00  0.00    +0.044 C 
ATOM      8  C   UNL     1      34.244 -20.163 -20.442  0.00  0.00    +0.044 C 
ATOM      9  C   UNL     1      35.689 -20.632 -20.444  0.00  0.00    +0.147 C 
ATOM     10  C   UNL     1      34.682 -16.542 -21.245  0.00  0.00    -0.100 C 
ATOM     11  H   UNL     1      35.062 -17.827 -19.810  0.00  0.00    -0.080 HD
ENDROOT
TORSDOF 0
ENDMDL
MODEL 2
REMARK VINA RESULT:      -5.7      8.998      9.977
REMARK  Name = 446337
REMARK  0 active torsions:
REMARK  status: ('A' for Active; 'I' for Inactive)
REMARK                            x       y       z     vdW  Elec       q    Type
REMARK                         _______ _______ _______ _____ _____    ______ ____
ROOT
ATOM      1  O   UNL     1      36.819 -27.168 -16.141  0.00  0.00    -0.296 OA
ATOM      2  N   UNL     1      35.949 -25.137 -12.725  0.00  0.00    +0.389 N 
ATOM      3  C   UNL     1      37.266 -25.795 -12.793  0.00  0.00    -0.051 C 
ATOM      4  C   UNL     1      35.908 -24.372 -13.985  0.00  0.00    -0.051 C 
ATOM      5  C   UNL     1      38.216 -24.722 -13.337  0.00  0.00    -0.022 C 
ATOM      6  C   UNL     1      37.314 -23.776 -14.128  0.00  0.00    -0.022 C 
ATOM      7  C   UNL     1      37.135 -26.975 -13.769  0.00  0.00    +0.044 C 
ATOM      8  C   UNL     1      35.605 -25.369 -15.114  0.00  0.00    +0.044 C 
ATOM      9  C   UNL     1      36.577 -26.537 -15.112  0.00  0.00    +0.147 C 
ATOM     10  C   UNL     1      35.805 -24.287 -11.546  0.00  0.00    -0.100 C 
ATOM     11  H   UNL     1      35.176 -25.796 -12.633  0.00  0.00    -0.080 HD
ENDROOT
TORSDOF 0
ENDMDL
MODEL 3
REMARK VINA RESULT:      -5.6      9.033     10.328
REMARK  Name = 446337
REMARK  0 active torsions:
REMARK  status: ('A' for Active; 'I' for Inactive)
REMARK                            x       y       z     vdW  Elec       q    Type
REMARK                         _______ _______ _______ _____ _____    ______ ____
ROOT
ATOM      1  O   UNL     1      35.421 -24.463  -9.928  0.00  0.00    -0.296 OA
ATOM      2  N   UNL     1      36.664 -23.445 -13.666  0.00  0.00    +0.389 N 
ATOM      3  C   UNL     1      37.700 -23.541 -12.622  0.00  0.00    -0.051 C 
ATOM      4  C   UNL     1      35.949 -24.726 -13.527  0.00  0.00    -0.051 C 
ATOM      5  C   UNL     1      38.214 -24.983 -12.709  0.00  0.00    -0.022 C 
ATOM      6  C   UNL     1      37.051 -25.771 -13.311  0.00  0.00    -0.022 C 
ATOM      7  C   UNL     1      37.013 -23.271 -11.274  0.00  0.00    +0.044 C 
ATOM      8  C   UNL     1      35.039 -24.609 -12.294  0.00  0.00    +0.044 C 
ATOM      9  C   UNL     1      35.813 -24.178 -11.060  0.00  0.00    +0.147 C 
ATOM     10  C   UNL     1      37.227 -23.257 -15.001  0.00  0.00    -0.100 C 
ATOM     11  H   UNL     1      36.056 -22.634 -13.554  0.00  0.00    -0.080 HD
ENDROOT
TORSDOF 0
ENDMDL
MODEL 4
REMARK VINA RESULT:      -5.5      2.697      3.751
REMARK  Name = 446337
REMARK  0 active torsions:
REMARK  status: ('A' for Active; 'I' for Inactive)
REMARK                            x       y       z     vdW  Elec       q    Type
REMARK                         _______ _______ _______ _____ _____    ______ ____
ROOT
ATOM      1  O   UNL     1      33.941 -17.179 -25.386  0.00  0.00    -0.296 OA
ATOM      2  N   UNL     1      36.104 -18.524 -22.214  0.00  0.00    +0.389 N 
ATOM      3  C   UNL     1      35.401 -17.240 -22.045  0.00  0.00    -0.051 C 
ATOM      4  C   UNL     1      35.038 -19.410 -22.718  0.00  0.00    -0.051 C 
ATOM      5  C   UNL     1      34.043 -17.611 -21.436  0.00  0.00    -0.022 C 
ATOM      6  C   UNL     1      33.803 -19.053 -21.882  0.00  0.00    -0.022 C 
ATOM      7  C   UNL     1      35.238 -16.624 -23.443  0.00  0.00    +0.044 C 
ATOM      8  C   UNL     1      34.828 -19.070 -24.202  0.00  0.00    +0.044 C 
ATOM      9  C   UNL     1      34.572 -17.587 -24.411  0.00  0.00    +0.147 C 
ATOM     10  C   UNL     1      36.696 -19.009 -20.969  0.00  0.00    -0.100 C 
ATOM     11  H   UNL     1      36.904 -18.463 -22.844  0.00  0.00    -0.080 HD
ENDROOT
TORSDOF 0
ENDMDL
MODEL 5
REMARK VINA RESULT:      -5.5      9.025     10.197
REMARK  Name = 446337
REMARK  0 active torsions:
REMARK  status: ('A' for Active; 'I' for Inactive)
REMARK                            x       y       z     vdW  Elec       q    Type
REMARK                         _______ _______ _______ _____ _____    ______ ____
ROOT
ATOM      1  O   UNL     1      37.791 -22.335 -11.870  0.00  0.00    -0.296 OA
ATOM      2  N   UNL     1      36.998 -25.661 -14.074  0.00  0.00    +0.389 N 
ATOM      3  C   UNL     1      37.489 -24.479 -14.805  0.00  0.00    -0.051 C 
ATOM      4  C   UNL     1      37.986 -25.800 -12.989  0.00  0.00    -0.051 C 
ATOM      5  C   UNL     1      39.011 -24.653 -14.860  0.00  0.00    -0.022 C 
ATOM      6  C   UNL     1      39.342 -25.532 -13.654  0.00  0.00    -0.022 C 
ATOM      7  C   UNL     1      37.096 -23.242 -13.982  0.00  0.00    +0.044 C 
ATOM      8  C   UNL     1      37.658 -24.732 -11.935  0.00  0.00    +0.044 C 
ATOM      9  C   UNL     1      37.577 -23.342 -12.545  0.00  0.00    +0.147 C 
ATOM     10  C   UNL     1      36.920 -26.851 -14.919  0.00  0.00    -0.100 C 
ATOM     11  H   UNL     1      36.043 -25.555 -13.734  0.00  0.00    -0.080 HD
ENDROOT
TORSDOF 0
ENDMDL
MODEL 6
REMARK VINA RESULT:      -5.4      1.189      2.425
REMARK  Name = 446337
REMARK  0 active torsions:
REMARK  status: ('A' for Active; 'I' for Inactive)
REMARK                            x       y       z     vdW  Elec       q    Type
REMARK                         _______ _______ _______ _____ _____    ______ ____
ROOT
ATOM      1  O   UNL     1      36.433 -20.571 -19.134  0.00  0.00    -0.296 OA
ATOM      2  N   UNL     1      35.195 -19.189 -22.754  0.00  0.00    +0.389 N 
ATOM      3  C   UNL     1      34.149 -19.472 -21.756  0.00  0.00    -0.051 C 
ATOM      4  C   UNL     1      36.135 -18.338 -22.001  0.00  0.00    -0.051 C 
ATOM      5  C   UNL     1      33.925 -18.140 -21.031  0.00  0.00    -0.022 C 
ATOM      6  C   UNL     1      35.243 -17.386 -21.194  0.00  0.00    -0.022 C 
ATOM      7  C   UNL     1      34.708 -20.541 -20.803  0.00  0.00    +0.044 C 
ATOM      8  C   UNL     1      36.947 -19.261 -21.079  0.00  0.00    +0.044 C 
ATOM      9  C   UNL     1      36.048 -20.131 -20.217  0.00  0.00    +0.147 C 
ATOM     10  C   UNL     1      34.670 -18.527 -23.946  0.00  0.00    -0.100 C 
ATOM     11  H   UNL     1      35.631 -20.031 -23.128  0.00  0.00    -0.080 HD
ENDROOT
TORSDOF 0
ENDMDL
MODEL 7
REMARK VINA RESULT:      -5.4     10.644     11.579
REMARK  Name = 446337
REMARK  0 active torsions:
REMARK  status: ('A' for Active; 'I' for Inactive)
REMARK                            x       y       z     vdW  Elec       q    Type
REMARK                         _______ _______ _______ _____ _____    ______ ____
ROOT
ATOM      1  O   UNL     1      32.569  -9.226 -19.374  0.00  0.00    -0.296 OA
ATOM      2  N   UNL     1      31.467  -7.595 -22.933  0.00  0.00    +0.389 N 
ATOM      3  C   UNL     1      32.528  -6.901 -22.183  0.00  0.00    -0.051 C 
ATOM      4  C   UNL     1      31.950  -8.987 -22.959  0.00  0.00    -0.051 C 
ATOM      5  C   UNL     1      33.839  -7.491 -22.717  0.00  0.00    -0.022 C 
ATOM      6  C   UNL     1      33.454  -8.877 -23.234  0.00  0.00    -0.022 C 
ATOM      7  C   UNL     1      32.328  -7.237 -20.697  0.00  0.00    +0.044 C 
ATOM      8  C   UNL     1      31.676  -9.590 -21.573  0.00  0.00    +0.044 C 
ATOM      9  C   UNL     1      32.262  -8.736 -20.460  0.00  0.00    +0.147 C 
ATOM     10  C   UNL     1      31.272  -7.043 -24.272  0.00  0.00    -0.100 C 
ATOM     11  H   UNL     1      30.546  -7.499 -22.506  0.00  0.00    -0.080 HD
ENDROOT
TORSDOF 0
ENDMDL
MODEL 8
REMARK VINA RESULT:      -5.4      8.152      9.503
REMARK  Name = 446337
REMARK  0 active torsions:
REMARK  status: ('A' for Active; 'I' for Inactive)
REMARK                            x       y       z     vdW  Elec       q    Type
REMARK                         _______ _______ _______ _____ _____    ______ ____
ROOT
ATOM      1  O   UNL     1      37.100 -26.577 -11.700  0.00  0.00    -0.296 OA
ATOM      2  N   UNL     1      37.618 -23.897 -14.716  0.00  0.00    +0.389 N 
ATOM      3  C   UNL     1      36.886 -25.134 -15.042  0.00  0.00    -0.051 C 
ATOM      4  C   UNL     1      36.917 -23.417 -13.511  0.00  0.00    -0.051 C 
ATOM      5  C   UNL     1      35.409 -24.788 -14.820  0.00  0.00    -0.022 C 
ATOM      6  C   UNL     1      35.429 -23.647 -13.804  0.00  0.00    -0.022 C 
ATOM      7  C   UNL     1      37.362 -26.215 -14.059  0.00  0.00    +0.044 C 
ATOM      8  C   UNL     1      37.395 -24.279 -12.333  0.00  0.00    +0.044 C 
ATOM      9  C   UNL     1      37.230 -25.763 -12.614  0.00  0.00    +0.147 C 
ATOM     10  C   UNL     1      37.591 -22.925 -15.806  0.00  0.00    -0.100 C 
ATOM     11  H   UNL     1      38.615 -24.049 -14.564  0.00  0.00    -0.080 HD
ENDROOT
TORSDOF 0
ENDMDL
MODEL 9
REMARK VINA RESULT:      -5.3      8.254      9.747
REMARK  Name = 446337
REMARK  0 active torsions:
REMARK  status: ('A' for Active; 'I' for Inactive)
REMARK                            x       y       z     vdW  Elec       q    Type
REMARK                         _______ _______ _______ _____ _____    ______ ____
ROOT
ATOM      1  O   UNL     1      34.682 -24.761 -15.061  0.00  0.00    -0.296 OA
ATOM      2  N   UNL     1      38.698 -25.403 -15.131  0.00  0.00    +0.389 N 
ATOM      3  C   UNL     1      38.233 -24.162 -14.487  0.00  0.00    -0.051 C 
ATOM      4  C   UNL     1      37.870 -26.433 -14.477  0.00  0.00    -0.051 C 
ATOM      5  C   UNL     1      38.075 -24.521 -13.005  0.00  0.00    -0.022 C 
ATOM      6  C   UNL     1      37.835 -26.030 -12.998  0.00  0.00    -0.022 C 
ATOM      7  C   UNL     1      36.881 -23.800 -15.123  0.00  0.00    +0.044 C 
ATOM      8  C   UNL     1      36.471 -26.361 -15.111  0.00  0.00    +0.044 C 
ATOM      9  C   UNL     1      35.897 -24.956 -15.054  0.00  0.00    +0.147 C 
ATOM     10  C   UNL     1      40.129 -25.632 -14.943  0.00  0.00    -0.100 C 
ATOM     11  H   UNL     1      38.595 -25.392 -16.145  0.00  0.00    -0.080 HD
ENDROOT
TORSDOF 0
ENDMDL
