MODEL 1
REMARK VINA RESULT:      -9.7      0.000      0.000
REMARK  Name = 43008
REMARK  6 active torsions:
REMARK  status: ('A' for Active; 'I' for Inactive)
REMARK    1  A    between atoms: N_2  and  C_17
REMARK    2  A    between atoms: C_3  and  C_8
REMARK    3  A    between atoms: C_9  and  O_15
REMARK    4  A    between atoms: C_17  and  C_19
REMARK    5  A    between atoms: N_18  and  C_24
REMARK    6  A    between atoms: C_24  and  C_25
REMARK                            x       y       z     vdW  Elec       q    Type
REMARK                         _______ _______ _______ _____ _____    ______ ____
ROOT
ATOM      1  O   UNL     1      36.046 -18.796 -23.717  0.00  0.00    -0.270 OA
ATOM      2  N   UNL     1      35.472 -18.064 -21.591  0.00  0.00    -0.303 N 
ATOM      3  C   UNL     1      35.477 -17.992 -22.982  0.00  0.00    +0.245 C 
ATOM      4  H   UNL     1      34.988 -17.372 -21.085  0.00  0.00    +0.150 HD
ENDROOT
BRANCH   3   8
ATOM      5  N   UNL     1      33.134 -15.666 -26.630  0.00  0.00    -0.159 NA
ATOM      6  N   UNL     1      32.779 -13.771 -25.365  0.00  0.00    -0.158 NA
ATOM      7  N   UNL     1      32.641 -14.429 -26.519  0.00  0.00    -0.196 N 
ATOM      8  C   UNL     1      34.759 -16.840 -23.584  0.00  0.00    +0.067 C 
ATOM      9  C   UNL     1      34.554 -15.693 -22.794  0.00  0.00    +0.123 C 
ATOM     10  C   UNL     1      34.341 -16.995 -24.906  0.00  0.00    +0.083 C 
ATOM     11  C   UNL     1      33.668 -15.869 -25.414  0.00  0.00    +0.100 A 
ATOM     12  C   UNL     1      33.885 -14.554 -23.277  0.00  0.00    +0.112 C 
ATOM     13  C   UNL     1      33.442 -14.660 -24.608  0.00  0.00    +0.103 A 
ATOM     14  H   UNL     1      32.180 -14.007 -27.280  0.00  0.00    +0.213 HD
BRANCH   9  15
ATOM     15  O   UNL     1      35.011 -15.655 -21.501  0.00  0.00    -0.475 OA
ATOM     16  C   UNL     1      34.280 -14.845 -20.589  0.00  0.00    +0.252 C 
ENDBRANCH   9  15
ENDBRANCH   3   8
BRANCH   2  17
ATOM     17  C   UNL     1      36.141 -19.102 -20.864  0.00  0.00    +0.069 C 
BRANCH  17  19
ATOM     18  N   UNL     1      35.276 -20.881 -19.332  0.00  0.00    +0.392 N 
ATOM     19  C   UNL     1      35.242 -20.320 -20.690  0.00  0.00    -0.038 C 
ATOM     20  C   UNL     1      33.764 -19.964 -20.871  0.00  0.00    -0.021 C 
ATOM     21  C   UNL     1      33.009 -20.884 -19.917  0.00  0.00    -0.025 C 
ATOM     22  C   UNL     1      34.082 -21.724 -19.243  0.00  0.00    -0.077 C 
ATOM     23  H   UNL     1      35.284 -20.137 -18.634  0.00  0.00    -0.079 HD
BRANCH  18  24
ATOM     24  C   UNL     1      36.488 -21.641 -19.053  0.00  0.00    -0.050 C 
BRANCH  24  25
ATOM     25  C   UNL     1      36.937 -21.462 -17.635  0.00  0.00    -0.049 C 
ATOM     26  C   UNL     1      36.630 -22.303 -16.640  0.00  0.00    -0.007 C 
ENDBRANCH  24  25
ENDBRANCH  18  24
ENDBRANCH  17  19
ENDBRANCH   2  17
TORSDOF 6
ENDMDL
MODEL 2
REMARK VINA RESULT:      -9.7      4.389      9.312
REMARK  Name = 43008
REMARK  6 active torsions:
REMARK  status: ('A' for Active; 'I' for Inactive)
REMARK    1  A    between atoms: N_2  and  C_17
REMARK    2  A    between atoms: C_3  and  C_8
REMARK    3  A    between atoms: C_9  and  O_15
REMARK    4  A    between atoms: C_17  and  C_19
REMARK    5  A    between atoms: N_18  and  C_24
REMARK    6  A    between atoms: C_24  and  C_25
REMARK                            x       y       z     vdW  Elec       q    Type
REMARK                         _______ _______ _______ _____ _____    ______ ____
ROOT
ATOM      1  O   UNL     1      33.856 -23.729 -19.156  0.00  0.00    -0.270 OA
ATOM      2  N   UNL     1      32.954 -21.629 -18.749  0.00  0.00    -0.303 N 
ATOM      3  C   UNL     1      33.378 -22.904 -18.380  0.00  0.00    +0.245 C 
ATOM      4  H   UNL     1      32.583 -21.037 -18.056  0.00  0.00    +0.150 HD
ENDROOT
BRANCH   3   8
ATOM      5  N   UNL     1      34.962 -24.486 -13.998  0.00  0.00    -0.159 NA
ATOM      6  N   UNL     1      32.875 -24.300 -13.035  0.00  0.00    -0.158 NA
ATOM      7  N   UNL     1      34.169 -24.614 -12.931  0.00  0.00    -0.196 N 
ATOM      8  C   UNL     1      33.202 -23.268 -16.952  0.00  0.00    +0.067 C 
ATOM      9  C   UNL     1      31.919 -23.148 -16.383  0.00  0.00    +0.123 C 
ATOM     10  C   UNL     1      34.343 -23.708 -16.281  0.00  0.00    +0.083 C 
ATOM     11  C   UNL     1      34.108 -24.036 -14.933  0.00  0.00    +0.100 A 
ATOM     12  C   UNL     1      31.656 -23.470 -15.040  0.00  0.00    +0.112 C 
ATOM     13  C   UNL     1      32.777 -23.918 -14.318  0.00  0.00    +0.103 A 
ATOM     14  H   UNL     1      34.535 -24.935 -12.075  0.00  0.00    +0.213 HD
BRANCH   9  15
ATOM     15  O   UNL     1      30.868 -22.702 -17.143  0.00  0.00    -0.475 OA
ATOM     16  C   UNL     1      29.575 -22.789 -16.558  0.00  0.00    +0.252 C 
ENDBRANCH   9  15
ENDBRANCH   3   8
BRANCH   2  17
ATOM     17  C   UNL     1      33.035 -21.142 -20.094  0.00  0.00    +0.069 C 
BRANCH  17  19
ATOM     18  N   UNL     1      35.254 -20.480 -21.040  0.00  0.00    +0.392 N 
ATOM     19  C   UNL     1      34.104 -20.064 -20.225  0.00  0.00    -0.038 C 
ATOM     20  C   UNL     1      33.584 -18.838 -20.978  0.00  0.00    -0.021 C 
ATOM     21  C   UNL     1      34.784 -18.299 -21.749  0.00  0.00    -0.025 C 
ATOM     22  C   UNL     1      35.932 -19.232 -21.399  0.00  0.00    -0.077 C 
ATOM     23  H   UNL     1      34.947 -21.008 -21.856  0.00  0.00    -0.079 HD
BRANCH  18  24
ATOM     24  C   UNL     1      36.153 -21.394 -20.345  0.00  0.00    -0.050 C 
BRANCH  24  25
ATOM     25  C   UNL     1      36.538 -20.871 -18.996  0.00  0.00    -0.049 C 
ATOM     26  C   UNL     1      36.790 -21.647 -17.935  0.00  0.00    -0.007 C 
ENDBRANCH  24  25
ENDBRANCH  18  24
ENDBRANCH  17  19
ENDBRANCH   2  17
TORSDOF 6
ENDMDL
MODEL 3
REMARK VINA RESULT:      -9.6      1.823      2.915
REMARK  Name = 43008
REMARK  6 active torsions:
REMARK  status: ('A' for Active; 'I' for Inactive)
REMARK    1  A    between atoms: N_2  and  C_17
REMARK    2  A    between atoms: C_3  and  C_8
REMARK    3  A    between atoms: C_9  and  O_15
REMARK    4  A    between atoms: C_17  and  C_19
REMARK    5  A    between atoms: N_18  and  C_24
REMARK    6  A    between atoms: C_24  and  C_25
REMARK                            x       y       z     vdW  Elec       q    Type
REMARK                         _______ _______ _______ _____ _____    ______ ____
ROOT
ATOM      1  O   UNL     1      35.334 -16.389 -19.878  0.00  0.00    -0.270 OA
ATOM      2  N   UNL     1      35.263 -17.559 -21.881  0.00  0.00    -0.303 N 
ATOM      3  C   UNL     1      34.987 -16.473 -21.054  0.00  0.00    +0.245 C 
ATOM      4  H   UNL     1      34.941 -17.536 -22.812  0.00  0.00    +0.150 HD
ENDROOT
BRANCH   3   8
ATOM      5  N   UNL     1      31.705 -12.809 -20.926  0.00  0.00    -0.159 NA
ATOM      6  N   UNL     1      31.964 -12.328 -23.166  0.00  0.00    -0.158 NA
ATOM      7  N   UNL     1      31.380 -12.073 -21.993  0.00  0.00    -0.196 N 
ATOM      8  C   UNL     1      34.195 -15.371 -21.657  0.00  0.00    +0.067 C 
ATOM      9  C   UNL     1      34.369 -15.094 -23.027  0.00  0.00    +0.123 C 
ATOM     10  C   UNL     1      33.330 -14.690 -20.801  0.00  0.00    +0.083 C 
ATOM     11  C   UNL     1      32.613 -13.659 -21.434  0.00  0.00    +0.100 A 
ATOM     12  C   UNL     1      33.664 -14.071 -23.686  0.00  0.00    +0.112 C 
ATOM     13  C   UNL     1      32.777 -13.352 -22.863  0.00  0.00    +0.103 A 
ATOM     14  H   UNL     1      30.716 -11.350 -21.915  0.00  0.00    +0.213 HD
BRANCH   9  15
ATOM     15  O   UNL     1      35.252 -15.833 -23.773  0.00  0.00    -0.475 OA
ATOM     16  C   UNL     1      34.749 -16.413 -24.969  0.00  0.00    +0.252 C 
ENDBRANCH   9  15
ENDBRANCH   3   8
BRANCH   2  17
ATOM     17  C   UNL     1      35.993 -18.709 -21.436  0.00  0.00    +0.069 C 
BRANCH  17  19
ATOM     18  N   UNL     1      35.143 -20.424 -19.826  0.00  0.00    +0.392 N 
ATOM     19  C   UNL     1      35.063 -19.891 -21.193  0.00  0.00    -0.038 C 
ATOM     20  C   UNL     1      33.591 -19.489 -21.312  0.00  0.00    -0.021 C 
ATOM     21  C   UNL     1      32.852 -20.362 -20.304  0.00  0.00    -0.025 C 
ATOM     22  C   UNL     1      33.927 -21.224 -19.662  0.00  0.00    -0.077 C 
ATOM     23  H   UNL     1      35.209 -19.667 -19.146  0.00  0.00    -0.079 HD
BRANCH  18  24
ATOM     24  C   UNL     1      36.341 -21.220 -19.587  0.00  0.00    -0.050 C 
BRANCH  24  25
ATOM     25  C   UNL     1      36.299 -21.892 -18.249  0.00  0.00    -0.049 C 
ATOM     26  C   UNL     1      37.007 -21.491 -17.186  0.00  0.00    -0.007 C 
ENDBRANCH  24  25
ENDBRANCH  18  24
ENDBRANCH  17  19
ENDBRANCH   2  17
TORSDOF 6
ENDMDL
MODEL 4
REMARK VINA RESULT:      -9.5      4.556      8.650
REMARK  Name = 43008
REMARK  6 active torsions:
REMARK  status: ('A' for Active; 'I' for Inactive)
REMARK    1  A    between atoms: N_2  and  C_17
REMARK    2  A    between atoms: C_3  and  C_8
REMARK    3  A    between atoms: C_9  and  O_15
REMARK    4  A    between atoms: C_17  and  C_19
REMARK    5  A    between atoms: N_18  and  C_24
REMARK    6  A    between atoms: C_24  and  C_25
REMARK                            x       y       z     vdW  Elec       q    Type
REMARK                         _______ _______ _______ _____ _____    ______ ____
ROOT
ATOM      1  O   UNL     1      33.854 -11.900 -23.850  0.00  0.00    -0.270 OA
ATOM      2  N   UNL     1      31.983 -12.798 -22.811  0.00  0.00    -0.303 N 
ATOM      3  C   UNL     1      33.197 -12.874 -23.492  0.00  0.00    +0.245 C 
ATOM      4  H   UNL     1      31.528 -13.635 -22.566  0.00  0.00    +0.150 HD
ENDROOT
BRANCH   3   8
ATOM      5  N   UNL     1      35.624 -17.040 -22.512  0.00  0.00    -0.159 NA
ATOM      6  N   UNL     1      35.097 -17.977 -24.551  0.00  0.00    -0.158 NA
ATOM      7  N   UNL     1      35.703 -18.065 -23.365  0.00  0.00    -0.196 N 
ATOM      8  C   UNL     1      33.687 -14.238 -23.813  0.00  0.00    +0.067 C 
ATOM      9  C   UNL     1      33.354 -14.791 -25.065  0.00  0.00    +0.123 C 
ATOM     10  C   UNL     1      34.451 -14.868 -22.831  0.00  0.00    +0.083 C 
ATOM     11  C   UNL     1      34.882 -16.156 -23.199  0.00  0.00    +0.100 A 
ATOM     12  C   UNL     1      33.772 -16.075 -25.458  0.00  0.00    +0.112 C 
ATOM     13  C   UNL     1      34.546 -16.754 -24.500  0.00  0.00    +0.103 A 
ATOM     14  H   UNL     1      36.202 -18.878 -23.121  0.00  0.00    +0.213 HD
BRANCH   9  15
ATOM     15  O   UNL     1      32.593 -14.075 -25.954  0.00  0.00    -0.475 OA
ATOM     16  C   UNL     1      33.263 -13.558 -27.097  0.00  0.00    +0.252 C 
ENDBRANCH   9  15
ENDBRANCH   3   8
BRANCH   2  17
ATOM     17  C   UNL     1      31.370 -11.554 -22.454  0.00  0.00    +0.069 C 
BRANCH  17  19
ATOM     18  N   UNL     1      31.611  -9.575 -20.942  0.00  0.00    +0.392 N 
ATOM     19  C   UNL     1      32.008 -10.966 -21.200  0.00  0.00    -0.038 C 
ATOM     20  C   UNL     1      31.544 -11.690 -19.934  0.00  0.00    -0.021 C 
ATOM     21  C   UNL     1      31.506 -10.620 -18.849  0.00  0.00    -0.025 C 
ATOM     22  C   UNL     1      31.955  -9.341 -19.537  0.00  0.00    -0.077 C 
ATOM     23  H   UNL     1      30.618  -9.442 -21.129  0.00  0.00    -0.079 HD
BRANCH  18  24
ATOM     24  C   UNL     1      32.269  -8.615 -21.818  0.00  0.00    -0.050 C 
BRANCH  24  25
ATOM     25  C   UNL     1      32.537  -7.319 -21.117  0.00  0.00    -0.049 C 
ATOM     26  C   UNL     1      32.008  -6.146 -21.482  0.00  0.00    -0.007 C 
ENDBRANCH  24  25
ENDBRANCH  18  24
ENDBRANCH  17  19
ENDBRANCH   2  17
TORSDOF 6
ENDMDL
MODEL 5
REMARK VINA RESULT:      -9.4      4.214      9.543
REMARK  Name = 43008
REMARK  6 active torsions:
REMARK  status: ('A' for Active; 'I' for Inactive)
REMARK    1  A    between atoms: N_2  and  C_17
REMARK    2  A    between atoms: C_3  and  C_8
REMARK    3  A    between atoms: C_9  and  O_15
REMARK    4  A    between atoms: C_17  and  C_19
REMARK    5  A    between atoms: N_18  and  C_24
REMARK    6  A    between atoms: C_24  and  C_25
REMARK                            x       y       z     vdW  Elec       q    Type
REMARK                         _______ _______ _______ _____ _____    ______ ____
ROOT
ATOM      1  O   UNL     1      33.656 -23.739 -19.330  0.00  0.00    -0.270 OA
ATOM      2  N   UNL     1      33.247 -21.515 -18.807  0.00  0.00    -0.303 N 
ATOM      3  C   UNL     1      33.451 -22.858 -18.498  0.00  0.00    +0.245 C 
ATOM      4  H   UNL     1      33.089 -20.881 -18.070  0.00  0.00    +0.150 HD
ENDROOT
BRANCH   3   8
ATOM      5  N   UNL     1      35.370 -24.400 -14.238  0.00  0.00    -0.159 NA
ATOM      6  N   UNL     1      33.356 -24.244 -13.127  0.00  0.00    -0.158 NA
ATOM      7  N   UNL     1      34.658 -24.537 -13.116  0.00  0.00    -0.196 N 
ATOM      8  C   UNL     1      33.384 -23.220 -17.060  0.00  0.00    +0.067 C 
ATOM      9  C   UNL     1      32.143 -23.118 -16.401  0.00  0.00    +0.123 C 
ATOM     10  C   UNL     1      34.578 -23.639 -16.471  0.00  0.00    +0.083 C 
ATOM     11  C   UNL     1      34.445 -23.966 -15.109  0.00  0.00    +0.100 A 
ATOM     12  C   UNL     1      31.982 -23.440 -15.041  0.00  0.00    +0.112 C 
ATOM     13  C   UNL     1      33.160 -23.868 -14.401  0.00  0.00    +0.103 A 
ATOM     14  H   UNL     1      35.090 -24.850 -12.288  0.00  0.00    +0.213 HD
BRANCH   9  15
ATOM     15  O   UNL     1      31.033 -22.692 -17.085  0.00  0.00    -0.475 OA
ATOM     16  C   UNL     1      29.784 -22.824 -16.419  0.00  0.00    +0.252 C 
ENDBRANCH   9  15
ENDBRANCH   3   8
BRANCH   2  17
ATOM     17  C   UNL     1      33.256 -21.017 -20.150  0.00  0.00    +0.069 C 
BRANCH  17  19
ATOM     18  N   UNL     1      34.963 -19.286 -20.744  0.00  0.00    +0.392 N 
ATOM     19  C   UNL     1      34.677 -20.722 -20.617  0.00  0.00    -0.038 C 
ATOM     20  C   UNL     1      35.718 -21.185 -19.596  0.00  0.00    -0.021 C 
ATOM     21  C   UNL     1      36.859 -20.178 -19.699  0.00  0.00    -0.025 C 
ATOM     22  C   UNL     1      36.425 -19.196 -20.774  0.00  0.00    -0.077 C 
ATOM     23  H   UNL     1      34.554 -18.767 -19.968  0.00  0.00    -0.079 HD
BRANCH  18  24
ATOM     24  C   UNL     1      34.367 -18.682 -21.928  0.00  0.00    -0.050 C 
BRANCH  24  25
ATOM     25  C   UNL     1      34.949 -19.244 -23.188  0.00  0.00    -0.049 C 
ATOM     26  C   UNL     1      34.583 -18.862 -24.418  0.00  0.00    -0.007 C 
ENDBRANCH  24  25
ENDBRANCH  18  24
ENDBRANCH  17  19
ENDBRANCH   2  17
TORSDOF 6
ENDMDL
MODEL 6
REMARK VINA RESULT:      -9.4      3.809      8.810
REMARK  Name = 43008
REMARK  6 active torsions:
REMARK  status: ('A' for Active; 'I' for Inactive)
REMARK    1  A    between atoms: N_2  and  C_17
REMARK    2  A    between atoms: C_3  and  C_8
REMARK    3  A    between atoms: C_9  and  O_15
REMARK    4  A    between atoms: C_17  and  C_19
REMARK    5  A    between atoms: N_18  and  C_24
REMARK    6  A    between atoms: C_24  and  C_25
REMARK                            x       y       z     vdW  Elec       q    Type
REMARK                         _______ _______ _______ _____ _____    ______ ____
ROOT
ATOM      1  O   UNL     1      31.938 -13.676 -21.340  0.00  0.00    -0.270 OA
ATOM      2  N   UNL     1      33.093 -12.551 -23.010  0.00  0.00    -0.303 N 
ATOM      3  C   UNL     1      32.798 -13.659 -22.218  0.00  0.00    +0.245 C 
ATOM      4  H   UNL     1      33.801 -12.633 -23.688  0.00  0.00    +0.150 HD
ENDROOT
BRANCH   3   8
ATOM      5  N   UNL     1      35.442 -17.557 -20.795  0.00  0.00    -0.159 NA
ATOM      6  N   UNL     1      35.859 -18.226 -22.962  0.00  0.00    -0.158 NA
ATOM      7  N   UNL     1      36.007 -18.415 -21.648  0.00  0.00    -0.196 N 
ATOM      8  C   UNL     1      33.613 -14.876 -22.459  0.00  0.00    +0.067 C 
ATOM      9  C   UNL     1      33.856 -15.266 -23.790  0.00  0.00    +0.123 C 
ATOM     10  C   UNL     1      34.079 -15.543 -21.326  0.00  0.00    +0.083 C 
ATOM     11  C   UNL     1      34.843 -16.686 -21.624  0.00  0.00    +0.100 A 
ATOM     12  C   UNL     1      34.617 -16.403 -24.117  0.00  0.00    +0.112 C 
ATOM     13  C   UNL     1      35.110 -17.112 -23.006  0.00  0.00    +0.103 A 
ATOM     14  H   UNL     1      36.528 -19.181 -21.312  0.00  0.00    +0.213 HD
BRANCH   9  15
ATOM     15  O   UNL     1      33.344 -14.530 -24.828  0.00  0.00    -0.475 OA
ATOM     16  C   UNL     1      33.180 -15.205 -26.069  0.00  0.00    +0.252 C 
ENDBRANCH   9  15
ENDBRANCH   3   8
BRANCH   2  17
ATOM     17  C   UNL     1      32.410 -11.298 -22.878  0.00  0.00    +0.069 C 
BRANCH  17  19
ATOM     18  N   UNL     1      33.570  -9.089 -23.052  0.00  0.00    +0.392 N 
ATOM     19  C   UNL     1      33.025 -10.239 -23.785  0.00  0.00    -0.038 C 
ATOM     20  C   UNL     1      34.249 -10.773 -24.533  0.00  0.00    -0.021 C 
ATOM     21  C   UNL     1      35.190  -9.581 -24.669  0.00  0.00    -0.025 C 
ATOM     22  C   UNL     1      34.463  -8.424 -24.004  0.00  0.00    -0.077 C 
ATOM     23  H   UNL     1      34.055  -9.395 -22.208  0.00  0.00    -0.079 HD
BRANCH  18  24
ATOM     24  C   UNL     1      32.543  -8.179 -22.559  0.00  0.00    -0.050 C 
BRANCH  24  25
ATOM     25  C   UNL     1      32.704  -7.905 -21.096  0.00  0.00    -0.049 C 
ATOM     26  C   UNL     1      32.326  -8.751 -20.129  0.00  0.00    -0.007 C 
ENDBRANCH  24  25
ENDBRANCH  18  24
ENDBRANCH  17  19
ENDBRANCH   2  17
TORSDOF 6
ENDMDL
MODEL 7
REMARK VINA RESULT:      -9.2      3.777      9.704
REMARK  Name = 43008
REMARK  6 active torsions:
REMARK  status: ('A' for Active; 'I' for Inactive)
REMARK    1  A    between atoms: N_2  and  C_17
REMARK    2  A    between atoms: C_3  and  C_8
REMARK    3  A    between atoms: C_9  and  O_15
REMARK    4  A    between atoms: C_17  and  C_19
REMARK    5  A    between atoms: N_18  and  C_24
REMARK    6  A    between atoms: C_24  and  C_25
REMARK                            x       y       z     vdW  Elec       q    Type
REMARK                         _______ _______ _______ _____ _____    ______ ____
ROOT
ATOM      1  O   UNL     1      37.246 -20.550 -17.452  0.00  0.00    -0.270 OA
ATOM      2  N   UNL     1      36.156 -22.034 -18.866  0.00  0.00    -0.303 N 
ATOM      3  C   UNL     1      36.681 -21.625 -17.642  0.00  0.00    +0.245 C 
ATOM      4  H   UNL     1      35.721 -22.915 -18.922  0.00  0.00    +0.150 HD
ENDROOT
BRANCH   3   8
ATOM      5  N   UNL     1      38.436 -24.293 -13.898  0.00  0.00    -0.159 NA
ATOM      6  N   UNL     1      36.375 -25.207 -13.416  0.00  0.00    -0.158 NA
ATOM      7  N   UNL     1      37.679 -25.102 -13.152  0.00  0.00    -0.196 N 
ATOM      8  C   UNL     1      36.558 -22.588 -16.519  0.00  0.00    +0.067 C 
ATOM      9  C   UNL     1      35.290 -23.135 -16.242  0.00  0.00    +0.123 C 
ATOM     10  C   UNL     1      37.730 -22.876 -15.819  0.00  0.00    +0.083 C 
ATOM     11  C   UNL     1      37.543 -23.793 -14.769  0.00  0.00    +0.100 A 
ATOM     12  C   UNL     1      35.075 -24.054 -15.199  0.00  0.00    +0.112 C 
ATOM     13  C   UNL     1      36.229 -24.377 -14.462  0.00  0.00    +0.103 A 
ATOM     14  H   UNL     1      38.079 -25.615 -12.412  0.00  0.00    +0.213 HD
BRANCH   9  15
ATOM     15  O   UNL     1      34.204 -22.776 -17.000  0.00  0.00    -0.475 OA
ATOM     16  C   UNL     1      32.955 -23.353 -16.641  0.00  0.00    +0.252 C 
ENDBRANCH   9  15
ENDBRANCH   3   8
BRANCH   2  17
ATOM     17  C   UNL     1      36.221 -21.226 -20.048  0.00  0.00    +0.069 C 
BRANCH  17  19
ATOM     18  N   UNL     1      34.880 -19.631 -21.432  0.00  0.00    +0.392 N 
ATOM     19  C   UNL     1      35.054 -20.247 -20.110  0.00  0.00    -0.038 C 
ATOM     20  C   UNL     1      33.713 -20.948 -19.884  0.00  0.00    -0.021 C 
ATOM     21  C   UNL     1      32.712 -20.188 -20.747  0.00  0.00    -0.025 C 
ATOM     22  C   UNL     1      33.519 -19.089 -21.418  0.00  0.00    -0.077 C 
ATOM     23  H   UNL     1      35.020 -20.318 -22.172  0.00  0.00    -0.079 HD
BRANCH  18  24
ATOM     24  C   UNL     1      35.864 -18.595 -21.720  0.00  0.00    -0.050 C 
BRANCH  24  25
ATOM     25  C   UNL     1      35.220 -17.253 -21.886  0.00  0.00    -0.049 C 
ATOM     26  C   UNL     1      35.263 -16.535 -23.015  0.00  0.00    -0.007 C 
ENDBRANCH  24  25
ENDBRANCH  18  24
ENDBRANCH  17  19
ENDBRANCH   2  17
TORSDOF 6
ENDMDL
MODEL 8
REMARK VINA RESULT:      -9.2      4.241      6.971
REMARK  Name = 43008
REMARK  6 active torsions:
REMARK  status: ('A' for Active; 'I' for Inactive)
REMARK    1  A    between atoms: N_2  and  C_17
REMARK    2  A    between atoms: C_3  and  C_8
REMARK    3  A    between atoms: C_9  and  O_15
REMARK    4  A    between atoms: C_17  and  C_19
REMARK    5  A    between atoms: N_18  and  C_24
REMARK    6  A    between atoms: C_24  and  C_25
REMARK                            x       y       z     vdW  Elec       q    Type
REMARK                         _______ _______ _______ _____ _____    ______ ____
ROOT
ATOM      1  O   UNL     1      33.888 -23.819 -19.195  0.00  0.00    -0.270 OA
ATOM      2  N   UNL     1      32.722 -22.262 -17.928  0.00  0.00    -0.303 N 
ATOM      3  C   UNL     1      33.650 -22.652 -18.891  0.00  0.00    +0.245 C 
ATOM      4  H   UNL     1      32.601 -21.301 -17.753  0.00  0.00    +0.150 HD
ENDROOT
BRANCH   3   8
ATOM      5  N   UNL     1      34.093 -18.794 -21.913  0.00  0.00    -0.159 NA
ATOM      6  N   UNL     1      36.338 -18.532 -21.456  0.00  0.00    -0.158 NA
ATOM      7  N   UNL     1      35.241 -18.138 -22.107  0.00  0.00    -0.196 N 
ATOM      8  C   UNL     1      34.405 -21.561 -19.558  0.00  0.00    +0.067 C 
ATOM      9  C   UNL     1      35.776 -21.419 -19.265  0.00  0.00    +0.123 C 
ATOM     10  C   UNL     1      33.681 -20.754 -20.435  0.00  0.00    +0.083 C 
ATOM     11  C   UNL     1      34.454 -19.741 -21.031  0.00  0.00    +0.100 A 
ATOM     12  C   UNL     1      36.572 -20.416 -19.847  0.00  0.00    +0.112 C 
ATOM     13  C   UNL     1      35.886 -19.574 -20.740  0.00  0.00    +0.103 A 
ATOM     14  H   UNL     1      35.277 -17.371 -22.724  0.00  0.00    +0.213 HD
BRANCH   9  15
ATOM     15  O   UNL     1      36.383 -22.274 -18.381  0.00  0.00    -0.475 OA
ATOM     16  C   UNL     1      36.923 -21.695 -17.200  0.00  0.00    +0.252 C 
ENDBRANCH   9  15
ENDBRANCH   3   8
BRANCH   2  17
ATOM     17  C   UNL     1      31.936 -23.199 -17.182  0.00  0.00    +0.069 C 
BRANCH  17  19
ATOM     18  N   UNL     1      30.930 -23.533 -14.916  0.00  0.00    +0.392 N 
ATOM     19  C   UNL     1      32.021 -22.919 -15.686  0.00  0.00    -0.038 C 
ATOM     20  C   UNL     1      33.270 -23.545 -15.061  0.00  0.00    -0.021 C 
ATOM     21  C   UNL     1      32.856 -23.946 -13.650  0.00  0.00    -0.025 C 
ATOM     22  C   UNL     1      31.400 -23.527 -13.528  0.00  0.00    -0.077 C 
ATOM     23  H   UNL     1      30.732 -24.474 -15.258  0.00  0.00    -0.079 HD
BRANCH  18  24
ATOM     24  C   UNL     1      29.661 -22.831 -15.053  0.00  0.00    -0.050 C 
BRANCH  24  25
ATOM     25  C   UNL     1      28.605 -23.710 -15.649  0.00  0.00    -0.049 C 
ATOM     26  C   UNL     1      28.210 -23.647 -16.926  0.00  0.00    -0.007 C 
ENDBRANCH  24  25
ENDBRANCH  18  24
ENDBRANCH  17  19
ENDBRANCH   2  17
TORSDOF 6
ENDMDL
MODEL 9
REMARK VINA RESULT:      -9.2      3.999      9.241
REMARK  Name = 43008
REMARK  6 active torsions:
REMARK  status: ('A' for Active; 'I' for Inactive)
REMARK    1  A    between atoms: N_2  and  C_17
REMARK    2  A    between atoms: C_3  and  C_8
REMARK    3  A    between atoms: C_9  and  O_15
REMARK    4  A    between atoms: C_17  and  C_19
REMARK    5  A    between atoms: N_18  and  C_24
REMARK    6  A    between atoms: C_24  and  C_25
REMARK                            x       y       z     vdW  Elec       q    Type
REMARK                         _______ _______ _______ _____ _____    ______ ____
ROOT
ATOM      1  O   UNL     1      33.713 -23.569 -19.523  0.00  0.00    -0.270 OA
ATOM      2  N   UNL     1      33.259 -21.342 -19.053  0.00  0.00    -0.303 N 
ATOM      3  C   UNL     1      33.469 -22.677 -18.714  0.00  0.00    +0.245 C 
ATOM      4  H   UNL     1      33.068 -20.698 -18.333  0.00  0.00    +0.150 HD
ENDROOT
BRANCH   3   8
ATOM      5  N   UNL     1      30.984 -23.824 -14.625  0.00  0.00    -0.159 NA
ATOM      6  N   UNL     1      32.898 -23.953 -13.345  0.00  0.00    -0.158 NA
ATOM      7  N   UNL     1      31.569 -24.043 -13.444  0.00  0.00    -0.196 N 
ATOM      8  C   UNL     1      33.358 -23.016 -17.272  0.00  0.00    +0.067 C 
ATOM      9  C   UNL     1      34.540 -23.089 -16.509  0.00  0.00    +0.123 C 
ATOM     10  C   UNL     1      32.069 -23.236 -16.786  0.00  0.00    +0.083 C 
ATOM     11  C   UNL     1      32.035 -23.553 -15.416  0.00  0.00    +0.100 A 
ATOM     12  C   UNL     1      34.534 -23.402 -15.138  0.00  0.00    +0.112 C 
ATOM     13  C   UNL     1      33.256 -23.635 -14.599  0.00  0.00    +0.103 A 
ATOM     14  H   UNL     1      31.026 -24.270 -12.654  0.00  0.00    +0.213 HD
BRANCH   9  15
ATOM     15  O   UNL     1      35.756 -22.852 -17.098  0.00  0.00    -0.475 OA
ATOM     16  C   UNL     1      36.768 -22.294 -16.269  0.00  0.00    +0.252 C 
ENDBRANCH   9  15
ENDBRANCH   3   8
BRANCH   2  17
ATOM     17  C   UNL     1      33.308 -20.866 -20.403  0.00  0.00    +0.069 C 
BRANCH  17  19
ATOM     18  N   UNL     1      35.018 -19.111 -20.906  0.00  0.00    +0.392 N 
ATOM     19  C   UNL     1      34.739 -20.551 -20.824  0.00  0.00    -0.038 C 
ATOM     20  C   UNL     1      35.755 -21.034 -19.786  0.00  0.00    -0.021 C 
ATOM     21  C   UNL     1      36.891 -20.018 -19.832  0.00  0.00    -0.025 C 
ATOM     22  C   UNL     1      36.480 -19.010 -20.894  0.00  0.00    -0.077 C 
ATOM     23  H   UNL     1      34.585 -18.614 -20.128  0.00  0.00    -0.079 HD
BRANCH  18  24
ATOM     24  C   UNL     1      34.450 -18.480 -22.090  0.00  0.00    -0.050 C 
BRANCH  24  25
ATOM     25  C   UNL     1      34.907 -19.153 -23.348  0.00  0.00    -0.049 C 
ATOM     26  C   UNL     1      34.509 -18.798 -24.575  0.00  0.00    -0.007 C 
ENDBRANCH  24  25
ENDBRANCH  18  24
ENDBRANCH  17  19
ENDBRANCH   2  17
TORSDOF 6
ENDMDL
