MODEL 1
REMARK VINA RESULT:      -9.3      0.000      0.000
REMARK  Name = 4184
REMARK  0 active torsions:
REMARK  status: ('A' for Active; 'I' for Inactive)
REMARK                            x       y       z     vdW  Elec       q    Type
REMARK                         _______ _______ _______ _____ _____    ______ ____
ROOT
ATOM      1  N   UNL     1      32.769 -10.826 -23.180  0.00  0.00    -0.310 N 
ATOM      2  N   UNL     1      31.098 -10.901 -20.867  0.00  0.00    +0.388 N 
ATOM      3  C   UNL     1      31.787  -9.737 -22.964  0.00  0.00    +0.074 C 
ATOM      4  C   UNL     1      31.517  -9.615 -21.444  0.00  0.00    -0.053 C 
ATOM      5  C   UNL     1      32.421 -12.110 -22.560  0.00  0.00    +0.068 C 
ATOM      6  C   UNL     1      32.088  -8.340 -23.510  0.00  0.00    -0.010 C 
ATOM      7  C   UNL     1      32.140 -11.912 -21.070  0.00  0.00    -0.056 C 
ATOM      8  C   UNL     1      33.610 -10.857 -24.291  0.00  0.00    +0.044 C 
ATOM      9  C   UNL     1      33.380  -7.816 -23.704  0.00  0.00    -0.020 C 
ATOM     10  C   UNL     1      34.603  -8.672 -23.524  0.00  0.00    +0.054 C 
ATOM     11  C   UNL     1      34.559  -9.831 -24.488  0.00  0.00    -0.004 C 
ATOM     12  C   UNL     1      30.798 -10.753 -19.443  0.00  0.00    -0.101 C 
ATOM     13  C   UNL     1      30.984  -7.503 -23.774  0.00  0.00    -0.003 C 
ATOM     14  C   UNL     1      33.585 -11.909 -25.225  0.00  0.00    +0.014 C 
ATOM     15  C   UNL     1      33.538  -6.488 -24.143  0.00  0.00    -0.004 C 
ATOM     16  C   UNL     1      35.431  -9.863 -25.588  0.00  0.00    -0.003 C 
ATOM     17  C   UNL     1      31.152  -6.189 -24.212  0.00  0.00    -0.000 C 
ATOM     18  C   UNL     1      32.431  -5.680 -24.392  0.00  0.00    -0.000 C 
ATOM     19  C   UNL     1      34.458 -11.938 -26.316  0.00  0.00    +0.001 C 
ATOM     20  C   UNL     1      35.381 -10.915 -26.496  0.00  0.00    -0.000 C 
ATOM     21  H   UNL     1      30.249 -11.209 -21.342  0.00  0.00    -0.080 HD
ENDROOT
TORSDOF 0
ENDMDL
MODEL 2
REMARK VINA RESULT:      -9.2      1.963      4.558
REMARK  Name = 4184
REMARK  0 active torsions:
REMARK  status: ('A' for Active; 'I' for Inactive)
REMARK                            x       y       z     vdW  Elec       q    Type
REMARK                         _______ _______ _______ _____ _____    ______ ____
ROOT
ATOM      1  N   UNL     1      32.874  -7.723 -23.143  0.00  0.00    -0.310 N 
ATOM      2  N   UNL     1      31.627  -5.376 -22.102  0.00  0.00    +0.388 N 
ATOM      3  C   UNL     1      32.495  -7.682 -21.711  0.00  0.00    +0.074 C 
ATOM      4  C   UNL     1      31.311  -6.699 -21.545  0.00  0.00    -0.053 C 
ATOM      5  C   UNL     1      33.132  -6.414 -23.756  0.00  0.00    +0.068 C 
ATOM      6  C   UNL     1      32.138  -8.986 -20.996  0.00  0.00    -0.010 C 
ATOM      7  C   UNL     1      31.937  -5.487 -23.530  0.00  0.00    -0.056 C 
ATOM      8  C   UNL     1      33.493  -8.832 -23.716  0.00  0.00    +0.044 C 
ATOM      9  C   UNL     1      31.596 -10.124 -21.623  0.00  0.00    -0.020 C 
ATOM     10  C   UNL     1      31.461 -10.198 -23.119  0.00  0.00    +0.054 C 
ATOM     11  C   UNL     1      32.822 -10.073 -23.759  0.00  0.00    -0.004 C 
ATOM     12  C   UNL     1      30.517  -4.448 -21.889  0.00  0.00    -0.101 C 
ATOM     13  C   UNL     1      32.310  -9.017 -19.596  0.00  0.00    -0.003 C 
ATOM     14  C   UNL     1      34.770  -8.763 -24.304  0.00  0.00    +0.014 C 
ATOM     15  C   UNL     1      31.237 -11.245 -20.852  0.00  0.00    -0.004 C 
ATOM     16  C   UNL     1      33.421 -11.193 -24.357  0.00  0.00    -0.003 C 
ATOM     17  C   UNL     1      31.953 -10.135 -18.841  0.00  0.00    -0.000 C 
ATOM     18  C   UNL     1      31.411 -11.248 -19.470  0.00  0.00    -0.000 C 
ATOM     19  C   UNL     1      35.361  -9.879 -24.901  0.00  0.00    +0.001 C 
ATOM     20  C   UNL     1      34.686 -11.094 -24.928  0.00  0.00    -0.000 C 
ATOM     21  H   UNL     1      32.448  -5.008 -21.618  0.00  0.00    -0.080 HD
ENDROOT
TORSDOF 0
ENDMDL
MODEL 3
REMARK VINA RESULT:      -9.1      1.497      4.728
REMARK  Name = 4184
REMARK  0 active torsions:
REMARK  status: ('A' for Active; 'I' for Inactive)
REMARK                            x       y       z     vdW  Elec       q    Type
REMARK                         _______ _______ _______ _____ _____    ______ ____
ROOT
ATOM      1  N   UNL     1      32.774 -12.345 -23.338  0.00  0.00    -0.310 N 
ATOM      2  N   UNL     1      33.650 -13.137 -25.937  0.00  0.00    +0.388 N 
ATOM      3  C   UNL     1      33.724 -11.478 -24.074  0.00  0.00    +0.074 C 
ATOM      4  C   UNL     1      33.528 -11.713 -25.592  0.00  0.00    -0.053 C 
ATOM      5  C   UNL     1      32.816 -13.766 -23.704  0.00  0.00    +0.068 C 
ATOM      6  C   UNL     1      33.712  -9.970 -23.818  0.00  0.00    -0.010 C 
ATOM      7  C   UNL     1      32.645 -13.922 -25.215  0.00  0.00    -0.056 C 
ATOM      8  C   UNL     1      32.312 -12.024 -22.063  0.00  0.00    +0.044 C 
ATOM      9  C   UNL     1      32.586  -9.235 -23.403  0.00  0.00    -0.020 C 
ATOM     10  C   UNL     1      31.303  -9.924 -23.024  0.00  0.00    +0.054 C 
ATOM     11  C   UNL     1      31.550 -10.853 -21.862  0.00  0.00    -0.004 C 
ATOM     12  C   UNL     1      33.513 -13.331 -27.380  0.00  0.00    -0.101 C 
ATOM     13  C   UNL     1      34.906  -9.265 -24.081  0.00  0.00    -0.003 C 
ATOM     14  C   UNL     1      32.538 -12.853 -20.949  0.00  0.00    +0.014 C 
ATOM     15  C   UNL     1      32.671  -7.837 -23.270  0.00  0.00    -0.004 C 
ATOM     16  C   UNL     1      31.054 -10.530 -20.588  0.00  0.00    -0.003 C 
ATOM     17  C   UNL     1      34.981  -7.879 -23.942  0.00  0.00    -0.000 C 
ATOM     18  C   UNL     1      33.860  -7.164 -23.541  0.00  0.00    -0.000 C 
ATOM     19  C   UNL     1      32.039 -12.529 -19.685  0.00  0.00    +0.001 C 
ATOM     20  C   UNL     1      31.297 -11.368 -19.505  0.00  0.00    -0.000 C 
ATOM     21  H   UNL     1      34.578 -13.460 -25.658  0.00  0.00    -0.080 HD
ENDROOT
TORSDOF 0
ENDMDL
MODEL 4
REMARK VINA RESULT:      -8.9      2.193      5.269
REMARK  Name = 4184
REMARK  0 active torsions:
REMARK  status: ('A' for Active; 'I' for Inactive)
REMARK                            x       y       z     vdW  Elec       q    Type
REMARK                         _______ _______ _______ _____ _____    ______ ____
ROOT
ATOM      1  N   UNL     1      33.352 -11.352 -23.827  0.00  0.00    -0.310 N 
ATOM      2  N   UNL     1      31.755 -11.301 -21.461  0.00  0.00    +0.388 N 
ATOM      3  C   UNL     1      33.433 -12.487 -22.878  0.00  0.00    +0.074 C 
ATOM      4  C   UNL     1      32.093 -12.579 -22.106  0.00  0.00    -0.053 C 
ATOM      5  C   UNL     1      32.949 -10.071 -23.233  0.00  0.00    +0.068 C 
ATOM      6  C   UNL     1      33.776 -13.881 -23.407  0.00  0.00    -0.010 C 
ATOM      7  C   UNL     1      31.638 -10.240 -22.466  0.00  0.00    -0.056 C 
ATOM      8  C   UNL     1      34.108 -11.308 -24.996  0.00  0.00    +0.044 C 
ATOM      9  C   UNL     1      33.492 -14.338 -24.707  0.00  0.00    -0.020 C 
ATOM     10  C   UNL     1      32.945 -13.410 -25.757  0.00  0.00    +0.054 C 
ATOM     11  C   UNL     1      33.920 -12.284 -25.998  0.00  0.00    -0.004 C 
ATOM     12  C   UNL     1      30.514 -11.423 -20.696  0.00  0.00    -0.101 C 
ATOM     13  C   UNL     1      34.362 -14.786 -22.497  0.00  0.00    -0.003 C 
ATOM     14  C   UNL     1      35.043 -10.286 -25.250  0.00  0.00    +0.014 C 
ATOM     15  C   UNL     1      33.787 -15.667 -25.063  0.00  0.00    -0.004 C 
ATOM     16  C   UNL     1      34.656 -12.237 -27.193  0.00  0.00    -0.003 C 
ATOM     17  C   UNL     1      34.653 -16.101 -22.861  0.00  0.00    -0.000 C 
ATOM     18  C   UNL     1      34.361 -16.543 -24.144  0.00  0.00    -0.000 C 
ATOM     19  C   UNL     1      35.770 -10.242 -26.443  0.00  0.00    +0.001 C 
ATOM     20  C   UNL     1      35.575 -11.217 -27.414  0.00  0.00    -0.000 C 
ATOM     21  H   UNL     1      32.506 -11.056 -20.815  0.00  0.00    -0.080 HD
ENDROOT
TORSDOF 0
ENDMDL
MODEL 5
REMARK VINA RESULT:      -8.8     13.659     16.336
REMARK  Name = 4184
REMARK  0 active torsions:
REMARK  status: ('A' for Active; 'I' for Inactive)
REMARK                            x       y       z     vdW  Elec       q    Type
REMARK                         _______ _______ _______ _____ _____    ______ ____
ROOT
ATOM      1  N   UNL     1      34.555 -24.342 -15.075  0.00  0.00    -0.310 N 
ATOM      2  N   UNL     1      31.820 -23.527 -15.011  0.00  0.00    +0.388 N 
ATOM      3  C   UNL     1      33.962 -23.712 -16.278  0.00  0.00    +0.074 C 
ATOM      4  C   UNL     1      32.799 -22.794 -15.829  0.00  0.00    -0.053 C 
ATOM      5  C   UNL     1      33.600 -25.025 -14.195  0.00  0.00    +0.068 C 
ATOM      6  C   UNL     1      34.861 -22.915 -17.225  0.00  0.00    -0.010 C 
ATOM      7  C   UNL     1      32.467 -24.072 -13.814  0.00  0.00    -0.056 C 
ATOM      8  C   UNL     1      35.881 -24.770 -15.040  0.00  0.00    +0.044 C 
ATOM      9  C   UNL     1      36.038 -22.245 -16.841  0.00  0.00    -0.020 C 
ATOM     10  C   UNL     1      36.599 -22.390 -15.453  0.00  0.00    +0.054 C 
ATOM     11  C   UNL     1      36.930 -23.838 -15.188  0.00  0.00    -0.004 C 
ATOM     12  C   UNL     1      30.705 -22.656 -14.640  0.00  0.00    -0.101 C 
ATOM     13  C   UNL     1      34.437 -22.797 -18.565  0.00  0.00    -0.003 C 
ATOM     14  C   UNL     1      36.232 -26.115 -14.816  0.00  0.00    +0.014 C 
ATOM     15  C   UNL     1      36.748 -21.479 -17.784  0.00  0.00    -0.004 C 
ATOM     16  C   UNL     1      38.271 -24.251 -15.127  0.00  0.00    -0.003 C 
ATOM     17  C   UNL     1      35.150 -22.038 -19.493  0.00  0.00    -0.000 C 
ATOM     18  C   UNL     1      36.305 -21.374 -19.100  0.00  0.00    -0.000 C 
ATOM     19  C   UNL     1      37.567 -26.520 -14.753  0.00  0.00    +0.001 C 
ATOM     20  C   UNL     1      38.586 -25.588 -14.908  0.00  0.00    -0.000 C 
ATOM     21  H   UNL     1      31.451 -24.301 -15.564  0.00  0.00    -0.080 HD
ENDROOT
TORSDOF 0
ENDMDL
MODEL 6
REMARK VINA RESULT:      -8.4      1.824      2.420
REMARK  Name = 4184
REMARK  0 active torsions:
REMARK  status: ('A' for Active; 'I' for Inactive)
REMARK                            x       y       z     vdW  Elec       q    Type
REMARK                         _______ _______ _______ _____ _____    ______ ____
ROOT
ATOM      1  N   UNL     1      32.944  -8.767 -22.659  0.00  0.00    -0.310 N 
ATOM      2  N   UNL     1      31.812  -7.171 -20.580  0.00  0.00    +0.388 N 
ATOM      3  C   UNL     1      32.349  -7.453 -23.001  0.00  0.00    +0.074 C 
ATOM      4  C   UNL     1      32.431  -6.539 -21.755  0.00  0.00    -0.053 C 
ATOM      5  C   UNL     1      32.401  -9.401 -21.452  0.00  0.00    +0.068 C 
ATOM      6  C   UNL     1      32.893  -6.676 -24.201  0.00  0.00    -0.010 C 
ATOM      7  C   UNL     1      32.488  -8.435 -20.270  0.00  0.00    -0.056 C 
ATOM      8  C   UNL     1      33.506  -9.600 -23.625  0.00  0.00    +0.044 C 
ATOM      9  C   UNL     1      34.210  -6.768 -24.687  0.00  0.00    -0.020 C 
ATOM     10  C   UNL     1      35.175  -7.782 -24.136  0.00  0.00    +0.054 C 
ATOM     11  C   UNL     1      34.633  -9.173 -24.359  0.00  0.00    -0.004 C 
ATOM     12  C   UNL     1      31.855  -6.272 -19.428  0.00  0.00    -0.101 C 
ATOM     13  C   UNL     1      32.019  -5.757 -24.819  0.00  0.00    -0.003 C 
ATOM     14  C   UNL     1      33.018 -10.895 -23.878  0.00  0.00    +0.014 C 
ATOM     15  C   UNL     1      34.623  -5.949 -25.755  0.00  0.00    -0.004 C 
ATOM     16  C   UNL     1      35.227 -10.012 -25.316  0.00  0.00    -0.003 C 
ATOM     17  C   UNL     1      32.437  -4.952 -25.879  0.00  0.00    -0.000 C 
ATOM     18  C   UNL     1      33.742  -5.045 -26.344  0.00  0.00    -0.000 C 
ATOM     19  C   UNL     1      33.614 -11.728 -24.828  0.00  0.00    +0.001 C 
ATOM     20  C   UNL     1      34.719 -11.286 -25.547  0.00  0.00    -0.000 C 
ATOM     21  H   UNL     1      30.835  -7.369 -20.796  0.00  0.00    -0.080 HD
ENDROOT
TORSDOF 0
ENDMDL
MODEL 7
REMARK VINA RESULT:      -8.2     13.558     16.292
REMARK  Name = 4184
REMARK  0 active torsions:
REMARK  status: ('A' for Active; 'I' for Inactive)
REMARK                            x       y       z     vdW  Elec       q    Type
REMARK                         _______ _______ _______ _____ _____    ______ ____
ROOT
ATOM      1  N   UNL     1      34.618 -23.715 -14.716  0.00  0.00    -0.310 N 
ATOM      2  N   UNL     1      37.222 -24.609 -13.964  0.00  0.00    +0.388 N 
ATOM      3  C   UNL     1      35.805 -23.083 -15.338  0.00  0.00    +0.074 C 
ATOM      4  C   UNL     1      36.969 -24.102 -15.321  0.00  0.00    -0.053 C 
ATOM      5  C   UNL     1      34.846 -24.296 -13.387  0.00  0.00    +0.068 C 
ATOM      6  C   UNL     1      35.691 -22.509 -16.751  0.00  0.00    -0.010 C 
ATOM      7  C   UNL     1      36.024 -25.269 -13.437  0.00  0.00    -0.056 C 
ATOM      8  C   UNL     1      33.318 -23.322 -15.030  0.00  0.00    +0.044 C 
ATOM      9  C   UNL     1      34.800 -22.973 -17.737  0.00  0.00    -0.020 C 
ATOM     10  C   UNL     1      33.753 -24.005 -17.416  0.00  0.00    +0.054 C 
ATOM     11  C   UNL     1      32.831 -23.477 -16.345  0.00  0.00    -0.004 C 
ATOM     12  C   UNL     1      38.358 -25.531 -13.961  0.00  0.00    -0.101 C 
ATOM     13  C   UNL     1      36.594 -21.483 -17.101  0.00  0.00    -0.003 C 
ATOM     14  C   UNL     1      32.433 -22.806 -14.065  0.00  0.00    +0.014 C 
ATOM     15  C   UNL     1      34.834 -22.419 -19.030  0.00  0.00    -0.004 C 
ATOM     16  C   UNL     1      31.515 -23.111 -16.671  0.00  0.00    -0.003 C 
ATOM     17  C   UNL     1      36.617 -20.938 -18.385  0.00  0.00    -0.000 C 
ATOM     18  C   UNL     1      35.739 -21.410 -19.351  0.00  0.00    -0.000 C 
ATOM     19  C   UNL     1      31.123 -22.448 -14.393  0.00  0.00    +0.001 C 
ATOM     20  C   UNL     1      30.665 -22.601 -15.696  0.00  0.00    -0.000 C 
ATOM     21  H   UNL     1      37.451 -23.819 -13.360  0.00  0.00    -0.080 HD
ENDROOT
TORSDOF 0
ENDMDL
MODEL 8
REMARK VINA RESULT:      -8.0      2.781      4.302
REMARK  Name = 4184
REMARK  0 active torsions:
REMARK  status: ('A' for Active; 'I' for Inactive)
REMARK                            x       y       z     vdW  Elec       q    Type
REMARK                         _______ _______ _______ _____ _____    ______ ____
ROOT
ATOM      1  N   UNL     1      33.532 -14.499 -23.726  0.00  0.00    -0.310 N 
ATOM      2  N   UNL     1      33.999 -15.670 -21.165  0.00  0.00    +0.388 N 
ATOM      3  C   UNL     1      32.812 -13.964 -22.546  0.00  0.00    +0.074 C 
ATOM      4  C   UNL     1      33.664 -14.243 -21.284  0.00  0.00    -0.053 C 
ATOM      5  C   UNL     1      33.946 -15.903 -23.618  0.00  0.00    +0.068 C 
ATOM      6  C   UNL     1      32.398 -12.492 -22.528  0.00  0.00    -0.010 C 
ATOM      7  C   UNL     1      34.757 -16.112 -22.339  0.00  0.00    -0.056 C 
ATOM      8  C   UNL     1      33.346 -13.981 -25.006  0.00  0.00    +0.044 C 
ATOM      9  C   UNL     1      33.068 -11.461 -23.213  0.00  0.00    -0.020 C 
ATOM     10  C   UNL     1      34.193 -11.761 -24.166  0.00  0.00    +0.054 C 
ATOM     11  C   UNL     1      33.689 -12.641 -25.284  0.00  0.00    -0.004 C 
ATOM     12  C   UNL     1      34.760 -15.920 -19.940  0.00  0.00    -0.101 C 
ATOM     13  C   UNL     1      31.301 -12.144 -21.712  0.00  0.00    -0.003 C 
ATOM     14  C   UNL     1      32.859 -14.762 -26.071  0.00  0.00    +0.014 C 
ATOM     15  C   UNL     1      32.642 -10.128 -23.065  0.00  0.00    -0.004 C 
ATOM     16  C   UNL     1      33.533 -12.112 -26.575  0.00  0.00    -0.003 C 
ATOM     17  C   UNL     1      30.884 -10.819 -21.574  0.00  0.00    -0.000 C 
ATOM     18  C   UNL     1      31.559  -9.810 -22.248  0.00  0.00    -0.000 C 
ATOM     19  C   UNL     1      32.709 -14.233 -27.355  0.00  0.00    +0.001 C 
ATOM     20  C   UNL     1      33.046 -12.908 -27.607  0.00  0.00    -0.000 C 
ATOM     21  H   UNL     1      33.131 -16.204 -21.117  0.00  0.00    -0.080 HD
ENDROOT
TORSDOF 0
ENDMDL
MODEL 9
REMARK VINA RESULT:      -7.5      2.701      4.468
REMARK  Name = 4184
REMARK  0 active torsions:
REMARK  status: ('A' for Active; 'I' for Inactive)
REMARK                            x       y       z     vdW  Elec       q    Type
REMARK                         _______ _______ _______ _____ _____    ______ ____
ROOT
ATOM      1  N   UNL     1      32.057  -6.755 -23.582  0.00  0.00    -0.310 N 
ATOM      2  N   UNL     1      30.573  -4.392 -22.981  0.00  0.00    +0.388 N 
ATOM      3  C   UNL     1      31.909  -5.712 -24.624  0.00  0.00    +0.074 C 
ATOM      4  C   UNL     1      31.699  -4.347 -23.926  0.00  0.00    -0.053 C 
ATOM      5  C   UNL     1      30.987  -6.789 -22.577  0.00  0.00    +0.068 C 
ATOM      6  C   UNL     1      33.005  -5.548 -25.678  0.00  0.00    -0.010 C 
ATOM      7  C   UNL     1      30.817  -5.405 -21.950  0.00  0.00    -0.056 C 
ATOM      8  C   UNL     1      32.761  -7.936 -23.809  0.00  0.00    +0.044 C 
ATOM      9  C   UNL     1      34.362  -5.865 -25.482  0.00  0.00    -0.020 C 
ATOM     10  C   UNL     1      34.826  -6.554 -24.228  0.00  0.00    +0.054 C 
ATOM     11  C   UNL     1      34.142  -7.892 -24.099  0.00  0.00    -0.004 C 
ATOM     12  C   UNL     1      30.360  -3.080 -22.370  0.00  0.00    -0.101 C 
ATOM     13  C   UNL     1      32.628  -4.975 -26.911  0.00  0.00    -0.003 C 
ATOM     14  C   UNL     1      32.155  -9.203 -23.720  0.00  0.00    +0.014 C 
ATOM     15  C   UNL     1      35.298  -5.603 -26.499  0.00  0.00    -0.004 C 
ATOM     16  C   UNL     1      34.870  -9.075 -24.304  0.00  0.00    -0.003 C 
ATOM     17  C   UNL     1      33.564  -4.721 -27.915  0.00  0.00    -0.000 C 
ATOM     18  C   UNL     1      34.901  -5.031 -27.706  0.00  0.00    -0.000 C 
ATOM     19  C   UNL     1      32.885 -10.378 -23.921  0.00  0.00    +0.001 C 
ATOM     20  C   UNL     1      34.243 -10.313 -24.212  0.00  0.00    -0.000 C 
ATOM     21  H   UNL     1      29.729  -4.647 -23.495  0.00  0.00    -0.080 HD
ENDROOT
TORSDOF 0
ENDMDL
