MODEL 1
REMARK VINA RESULT:      -5.4      0.000      0.000
REMARK  Name = 1046
REMARK  1 active torsions:
REMARK  status: ('A' for Active; 'I' for Inactive)
REMARK    1  A    between atoms: C_3  and  C_9
REMARK                            x       y       z     vdW  Elec       q    Type
REMARK                         _______ _______ _______ _____ _____    ______ ____
ROOT
ATOM      1  N   UNL     1      37.934 -23.785 -13.291  0.00  0.00    -0.236 NA
ATOM      2  N   UNL     1      36.405 -25.390 -11.572  0.00  0.00    -0.239 NA
ATOM      3  C   UNL     1      37.881 -25.126 -13.425  0.00  0.00    +0.153 C 
ATOM      4  C   UNL     1      37.131 -25.914 -12.580  0.00  0.00    +0.123 C 
ATOM      5  C   UNL     1      37.209 -23.263 -12.283  0.00  0.00    +0.120 C 
ATOM      6  C   UNL     1      36.458 -24.050 -11.439  0.00  0.00    +0.120 C 
ENDROOT
BRANCH   3   9
ATOM      7  O   UNL     1      38.732 -26.934 -14.671  0.00  0.00    -0.269 OA
ATOM      8  N   UNL     1      39.310 -24.831 -15.376  0.00  0.00    -0.324 N 
ATOM      9  C   UNL     1      38.657 -25.702 -14.506  0.00  0.00    +0.262 C 
ATOM     10  H   UNL     1      39.845 -25.187 -16.121  0.00  0.00    +0.145 HD
ATOM     11  H   UNL     1      39.235 -23.858 -15.246  0.00  0.00    +0.145 HD
ENDBRANCH   3   9
TORSDOF 1
ENDMDL
MODEL 2
REMARK VINA RESULT:      -5.3      2.621      3.711
REMARK  Name = 1046
REMARK  1 active torsions:
REMARK  status: ('A' for Active; 'I' for Inactive)
REMARK    1  A    between atoms: C_3  and  C_9
REMARK                            x       y       z     vdW  Elec       q    Type
REMARK                         _______ _______ _______ _____ _____    ______ ____
ROOT
ATOM      1  N   UNL     1      35.787 -24.706 -13.745  0.00  0.00    -0.236 NA
ATOM      2  N   UNL     1      37.572 -26.861 -13.957  0.00  0.00    -0.239 NA
ATOM      3  C   UNL     1      36.438 -25.202 -12.673  0.00  0.00    +0.153 C 
ATOM      4  C   UNL     1      37.314 -26.261 -12.777  0.00  0.00    +0.123 C 
ATOM      5  C   UNL     1      36.046 -25.306 -14.924  0.00  0.00    +0.120 C 
ATOM      6  C   UNL     1      36.922 -26.364 -15.028  0.00  0.00    +0.120 C 
ENDROOT
BRANCH   3   9
ATOM      7  O   UNL     1      35.305 -25.006 -10.618  0.00  0.00    -0.269 OA
ATOM      8  N   UNL     1      36.926 -23.446 -11.058  0.00  0.00    -0.324 N 
ATOM      9  C   UNL     1      36.170 -24.566 -11.398  0.00  0.00    +0.262 C 
ATOM     10  H   UNL     1      36.771 -22.989 -10.199  0.00  0.00    +0.145 HD
ATOM     11  H   UNL     1      37.616 -23.112 -11.675  0.00  0.00    +0.145 HD
ENDBRANCH   3   9
TORSDOF 1
ENDMDL
MODEL 3
REMARK VINA RESULT:      -5.3      9.107      9.490
REMARK  Name = 1046
REMARK  1 active torsions:
REMARK  status: ('A' for Active; 'I' for Inactive)
REMARK    1  A    between atoms: C_3  and  C_9
REMARK                            x       y       z     vdW  Elec       q    Type
REMARK                         _______ _______ _______ _____ _____    ______ ____
ROOT
ATOM      1  N   UNL     1      35.499 -20.695 -19.926  0.00  0.00    -0.236 NA
ATOM      2  N   UNL     1      32.865 -21.609 -19.615  0.00  0.00    -0.239 NA
ATOM      3  C   UNL     1      34.459 -20.097 -20.541  0.00  0.00    +0.153 C 
ATOM      4  C   UNL     1      33.165 -20.546 -20.388  0.00  0.00    +0.123 C 
ATOM      5  C   UNL     1      35.198 -21.757 -19.154  0.00  0.00    +0.120 C 
ATOM      6  C   UNL     1      33.905 -22.206 -19.000  0.00  0.00    +0.120 C 
ENDROOT
BRANCH   3   9
ATOM      7  O   UNL     1      34.433 -18.909 -22.574  0.00  0.00    -0.269 OA
ATOM      8  N   UNL     1      35.440 -17.881 -20.789  0.00  0.00    -0.324 N 
ATOM      9  C   UNL     1      34.767 -18.952 -21.375  0.00  0.00    +0.262 C 
ATOM     10  H   UNL     1      35.665 -17.087 -21.326  0.00  0.00    +0.145 HD
ATOM     11  H   UNL     1      35.689 -17.919 -19.837  0.00  0.00    +0.145 HD
ENDBRANCH   3   9
TORSDOF 1
ENDMDL
MODEL 4
REMARK VINA RESULT:      -5.1     14.376     15.058
REMARK  Name = 1046
REMARK  1 active torsions:
REMARK  status: ('A' for Active; 'I' for Inactive)
REMARK    1  A    between atoms: C_3  and  C_9
REMARK                            x       y       z     vdW  Elec       q    Type
REMARK                         _______ _______ _______ _____ _____    ______ ____
ROOT
ATOM      1  N   UNL     1      34.024 -17.522 -25.490  0.00  0.00    -0.236 NA
ATOM      2  N   UNL     1      35.329 -17.143 -23.036  0.00  0.00    -0.239 NA
ATOM      3  C   UNL     1      34.112 -16.309 -24.909  0.00  0.00    +0.153 C 
ATOM      4  C   UNL     1      34.752 -16.123 -23.703  0.00  0.00    +0.123 C 
ATOM      5  C   UNL     1      34.600 -18.541 -24.823  0.00  0.00    +0.120 C 
ATOM      6  C   UNL     1      35.241 -18.355 -23.618  0.00  0.00    +0.120 C 
ENDROOT
BRANCH   3   9
ATOM      7  O   UNL     1      33.398 -15.194 -26.857  0.00  0.00    -0.269 OA
ATOM      8  N   UNL     1      32.996 -14.145 -24.859  0.00  0.00    -0.324 N 
ATOM      9  C   UNL     1      33.496 -15.203 -25.616  0.00  0.00    +0.262 C 
ATOM     10  H   UNL     1      32.571 -13.377 -25.306  0.00  0.00    +0.145 HD
ATOM     11  H   UNL     1      33.066 -14.165 -23.877  0.00  0.00    +0.145 HD
ENDBRANCH   3   9
TORSDOF 1
ENDMDL
MODEL 5
REMARK VINA RESULT:      -5.1     12.031     12.872
REMARK  Name = 1046
REMARK  1 active torsions:
REMARK  status: ('A' for Active; 'I' for Inactive)
REMARK    1  A    between atoms: C_3  and  C_9
REMARK                            x       y       z     vdW  Elec       q    Type
REMARK                         _______ _______ _______ _____ _____    ______ ____
ROOT
ATOM      1  N   UNL     1      34.870 -18.873 -23.170  0.00  0.00    -0.236 NA
ATOM      2  N   UNL     1      34.741 -16.466 -24.606  0.00  0.00    -0.239 NA
ATOM      3  C   UNL     1      35.096 -17.680 -22.585  0.00  0.00    +0.153 C 
ATOM      4  C   UNL     1      35.033 -16.498 -23.290  0.00  0.00    +0.123 C 
ATOM      5  C   UNL     1      34.579 -18.841 -24.486  0.00  0.00    +0.120 C 
ATOM      6  C   UNL     1      34.515 -17.659 -25.191  0.00  0.00    +0.120 C 
ENDROOT
BRANCH   3   9
ATOM      7  O   UNL     1      35.195 -16.714 -20.439  0.00  0.00    -0.269 OA
ATOM      8  N   UNL     1      35.951 -18.869 -20.639  0.00  0.00    -0.324 N 
ATOM      9  C   UNL     1      35.411 -17.700 -21.169  0.00  0.00    +0.262 C 
ATOM     10  H   UNL     1      36.177 -18.918 -19.681  0.00  0.00    +0.145 HD
ATOM     11  H   UNL     1      36.107 -19.648 -21.221  0.00  0.00    +0.145 HD
ENDBRANCH   3   9
TORSDOF 1
ENDMDL
MODEL 6
REMARK VINA RESULT:      -5.1      8.843      9.472
REMARK  Name = 1046
REMARK  1 active torsions:
REMARK  status: ('A' for Active; 'I' for Inactive)
REMARK    1  A    between atoms: C_3  and  C_9
REMARK                            x       y       z     vdW  Elec       q    Type
REMARK                         _______ _______ _______ _____ _____    ______ ____
ROOT
ATOM      1  N   UNL     1      36.073 -20.198 -20.174  0.00  0.00    -0.236 NA
ATOM      2  N   UNL     1      34.179 -18.650 -21.548  0.00  0.00    -0.239 NA
ATOM      3  C   UNL     1      34.765 -20.521 -20.192  0.00  0.00    +0.153 C 
ATOM      4  C   UNL     1      33.834 -19.761 -20.866  0.00  0.00    +0.123 C 
ATOM      5  C   UNL     1      36.417 -19.088 -20.856  0.00  0.00    +0.120 C 
ATOM      6  C   UNL     1      35.488 -18.328 -21.531  0.00  0.00    +0.120 C 
ENDROOT
BRANCH   3   9
ATOM      7  O   UNL     1      35.224 -22.441 -18.907  0.00  0.00    -0.269 OA
ATOM      8  N   UNL     1      33.022 -22.019 -19.384  0.00  0.00    -0.324 N 
ATOM      9  C   UNL     1      34.380 -21.714 -19.462  0.00  0.00    +0.262 C 
ATOM     10  H   UNL     1      32.724 -22.822 -18.896  0.00  0.00    +0.145 HD
ATOM     11  H   UNL     1      32.360 -21.432 -19.815  0.00  0.00    +0.145 HD
ENDBRANCH   3   9
TORSDOF 1
ENDMDL
MODEL 7
REMARK VINA RESULT:      -5.1     14.398     15.056
REMARK  Name = 1046
REMARK  1 active torsions:
REMARK  status: ('A' for Active; 'I' for Inactive)
REMARK    1  A    between atoms: C_3  and  C_9
REMARK                            x       y       z     vdW  Elec       q    Type
REMARK                         _______ _______ _______ _____ _____    ______ ____
ROOT
ATOM      1  N   UNL     1      33.698 -14.650 -23.783  0.00  0.00    -0.236 NA
ATOM      2  N   UNL     1      33.616 -15.971 -26.256  0.00  0.00    -0.239 NA
ATOM      3  C   UNL     1      34.316 -15.832 -23.981  0.00  0.00    +0.153 C 
ATOM      4  C   UNL     1      34.275 -16.481 -25.196  0.00  0.00    +0.123 C 
ATOM      5  C   UNL     1      33.039 -14.141 -24.842  0.00  0.00    +0.120 C 
ATOM      6  C   UNL     1      32.999 -14.789 -26.057  0.00  0.00    +0.120 C 
ENDROOT
BRANCH   3   9
ATOM      7  O   UNL     1      34.887 -15.937 -21.699  0.00  0.00    -0.269 OA
ATOM      8  N   UNL     1      35.875 -17.474 -23.084  0.00  0.00    -0.324 N 
ATOM      9  C   UNL     1      35.029 -16.391 -22.850  0.00  0.00    +0.262 C 
ATOM     10  H   UNL     1      36.375 -17.879 -22.338  0.00  0.00    +0.145 HD
ATOM     11  H   UNL     1      35.972 -17.834 -23.995  0.00  0.00    +0.145 HD
ENDBRANCH   3   9
TORSDOF 1
ENDMDL
MODEL 8
REMARK VINA RESULT:      -5.1     14.664     15.286
REMARK  Name = 1046
REMARK  1 active torsions:
REMARK  status: ('A' for Active; 'I' for Inactive)
REMARK    1  A    between atoms: C_3  and  C_9
REMARK                            x       y       z     vdW  Elec       q    Type
REMARK                         _______ _______ _______ _____ _____    ______ ____
ROOT
ATOM      1  N   UNL     1      33.686 -16.161 -26.065  0.00  0.00    -0.236 NA
ATOM      2  N   UNL     1      33.510 -14.117 -24.151  0.00  0.00    -0.239 NA
ATOM      3  C   UNL     1      34.160 -16.314 -24.813  0.00  0.00    +0.153 C 
ATOM      4  C   UNL     1      34.074 -15.310 -23.873  0.00  0.00    +0.123 C 
ATOM      5  C   UNL     1      33.122 -14.969 -26.343  0.00  0.00    +0.120 C 
ATOM      6  C   UNL     1      33.035 -13.965 -25.404  0.00  0.00    +0.120 C 
ENDROOT
BRANCH   3   9
ATOM      7  O   UNL     1      34.455 -18.631 -25.109  0.00  0.00    -0.269 OA
ATOM      8  N   UNL     1      35.737 -17.623 -23.498  0.00  0.00    -0.324 N 
ATOM      9  C   UNL     1      34.769 -17.592 -24.499  0.00  0.00    +0.262 C 
ATOM     10  H   UNL     1      36.172 -18.474 -23.259  0.00  0.00    +0.145 HD
ATOM     11  H   UNL     1      35.988 -16.794 -23.030  0.00  0.00    +0.145 HD
ENDBRANCH   3   9
TORSDOF 1
ENDMDL
MODEL 9
REMARK VINA RESULT:      -5.0     15.089     15.818
REMARK  Name = 1046
REMARK  1 active torsions:
REMARK  status: ('A' for Active; 'I' for Inactive)
REMARK    1  A    between atoms: C_3  and  C_9
REMARK                            x       y       z     vdW  Elec       q    Type
REMARK                         _______ _______ _______ _____ _____    ______ ____
ROOT
ATOM      1  N   UNL     1      34.492 -15.496 -23.372  0.00  0.00    -0.236 NA
ATOM      2  N   UNL     1      33.860 -16.363 -25.964  0.00  0.00    -0.239 NA
ATOM      3  C   UNL     1      33.743 -14.752 -24.210  0.00  0.00    +0.153 C 
ATOM      4  C   UNL     1      33.433 -15.178 -25.484  0.00  0.00    +0.123 C 
ATOM      5  C   UNL     1      34.918 -16.680 -23.852  0.00  0.00    +0.120 C 
ATOM      6  C   UNL     1      34.608 -17.106 -25.125  0.00  0.00    +0.120 C 
ENDROOT
BRANCH   3   9
ATOM      7  O   UNL     1      32.200 -13.370 -23.089  0.00  0.00    -0.269 OA
ATOM      8  N   UNL     1      34.081 -12.358 -23.920  0.00  0.00    -0.324 N 
ATOM      9  C   UNL     1      33.276 -13.475 -23.707  0.00  0.00    +0.262 C 
ATOM     10  H   UNL     1      33.796 -11.474 -23.592  0.00  0.00    +0.145 HD
ATOM     11  H   UNL     1      34.937 -12.451 -24.398  0.00  0.00    +0.145 HD
ENDBRANCH   3   9
TORSDOF 1
ENDMDL
