MODEL 1
REMARK VINA RESULT:      -8.8      0.000      0.000
REMARK  Name = 2910
REMARK  3 active torsions:
REMARK  status: ('A' for Active; 'I' for Inactive)
REMARK    1  A    between atoms: C_7  and  C_16
REMARK    2  A    between atoms: C_12  and  S_23
REMARK    3  A    between atoms: S_23  and  N_26
REMARK                            x       y       z     vdW  Elec       q    Type
REMARK                         _______ _______ _______ _____ _____    ______ ____
ROOT
ATOM      1 CL   UNL     1      36.150 -24.931 -11.466  0.00  0.00    -0.081 Cl
ATOM      2  S   UNL     1      34.067 -23.462 -17.185  0.00  0.00    +0.063 S 
ATOM      3  O   UNL     1      33.829 -24.708 -17.885  0.00  0.00    -0.153 OA
ATOM      4  O   UNL     1      34.968 -22.454 -17.707  0.00  0.00    -0.153 OA
ATOM      5  N   UNL     1      32.575 -22.713 -16.820  0.00  0.00    -0.163 NA
ATOM      6  N   UNL     1      32.353 -23.707 -14.612  0.00  0.00    -0.320 N 
ATOM      7  C   UNL     1      31.708 -23.474 -15.892  0.00  0.00    +0.147 C 
ATOM      8  C   UNL     1      33.710 -23.974 -14.500  0.00  0.00    +0.065 C 
ATOM      9  C   UNL     1      34.620 -23.900 -15.567  0.00  0.00    +0.136 C 
ATOM     10  C   UNL     1      34.235 -24.291 -13.237  0.00  0.00    +0.028 C 
ATOM     11  C   UNL     1      35.986 -24.141 -15.399  0.00  0.00    +0.042 C 
ATOM     12  C   UNL     1      36.473 -24.466 -14.136  0.00  0.00    +0.134 C 
ATOM     13  C   UNL     1      35.599 -24.540 -13.056  0.00  0.00    +0.078 C 
ATOM     14  H   UNL     1      32.064 -22.580 -17.693  0.00  0.00    +0.151 HD
ATOM     15  H   UNL     1      31.807 -23.675 -13.793  0.00  0.00    +0.148 HD
ENDROOT
BRANCH   7  16
ATOM     16  C   UNL     1      30.419 -22.689 -15.677  0.00  0.00    +0.035 C 
ATOM     17  C   UNL     1      29.315 -23.439 -14.885  0.00  0.00    +0.003 C 
ATOM     18  C   UNL     1      28.250 -22.833 -16.754  0.00  0.00    +0.000 C 
ATOM     19  C   UNL     1      29.686 -22.320 -17.004  0.00  0.00    +0.003 C 
ATOM     20  C   UNL     1      28.093 -22.587 -15.251  0.00  0.00    +0.000 C 
ATOM     21  C   UNL     1      28.933 -24.707 -15.614  0.00  0.00    +0.000 C 
ATOM     22  C   UNL     1      28.298 -24.342 -16.738  0.00  0.00    +0.000 C 
ENDBRANCH   7  16
BRANCH  12  23
ATOM     23  S   UNL     1      38.191 -24.764 -13.968  0.00  0.00    +0.058 S 
ATOM     24  O   UNL     1      38.660 -23.858 -12.924  0.00  0.00    -0.153 OA
ATOM     25  O   UNL     1      38.317 -26.207 -13.802  0.00  0.00    -0.153 OA
BRANCH  23  26
ATOM     26  N   UNL     1      38.978 -24.320 -15.431  0.00  0.00    -0.203 NA
ATOM     27  H   UNL     1      39.982 -24.467 -15.335  0.00  0.00    +0.144 HD
ATOM     28  H   UNL     1      38.794 -23.337 -15.632  0.00  0.00    +0.144 HD
ENDBRANCH  23  26
ENDBRANCH  12  23
TORSDOF 3
ENDMDL
MODEL 2
REMARK VINA RESULT:      -8.5      5.005      7.600
REMARK  Name = 2910
REMARK  3 active torsions:
REMARK  status: ('A' for Active; 'I' for Inactive)
REMARK    1  A    between atoms: C_7  and  C_16
REMARK    2  A    between atoms: C_12  and  S_23
REMARK    3  A    between atoms: S_23  and  N_26
REMARK                            x       y       z     vdW  Elec       q    Type
REMARK                         _______ _______ _______ _____ _____    ______ ____
ROOT
ATOM      1 CL   UNL     1      37.176 -19.165 -20.793  0.00  0.00    -0.081 Cl
ATOM      2  S   UNL     1      33.613 -23.126 -17.503  0.00  0.00    +0.063 S 
ATOM      3  O   UNL     1      33.642 -24.400 -18.193  0.00  0.00    -0.153 OA
ATOM      4  O   UNL     1      32.368 -22.434 -17.233  0.00  0.00    -0.153 OA
ATOM      5  N   UNL     1      34.493 -23.241 -16.043  0.00  0.00    -0.163 NA
ATOM      6  N   UNL     1      36.601 -22.481 -16.986  0.00  0.00    -0.320 N 
ATOM      7  C   UNL     1      35.939 -23.513 -16.209  0.00  0.00    +0.147 C 
ATOM      8  C   UNL     1      35.994 -21.857 -18.066  0.00  0.00    +0.065 C 
ATOM      9  C   UNL     1      34.649 -22.037 -18.428  0.00  0.00    +0.136 C 
ATOM     10  C   UNL     1      36.741 -20.945 -18.828  0.00  0.00    +0.028 C 
ATOM     11  C   UNL     1      34.069 -21.356 -19.502  0.00  0.00    +0.042 C 
ATOM     12  C   UNL     1      34.841 -20.469 -20.246  0.00  0.00    +0.134 C 
ATOM     13  C   UNL     1      36.176 -20.262 -19.909  0.00  0.00    +0.078 C 
ATOM     14  H   UNL     1      34.091 -23.996 -15.488  0.00  0.00    +0.151 HD
ATOM     15  H   UNL     1      37.516 -22.215 -16.738  0.00  0.00    +0.148 HD
ENDROOT
BRANCH   7  16
ATOM     16  C   UNL     1      36.578 -23.601 -14.829  0.00  0.00    +0.035 C 
ATOM     17  C   UNL     1      37.892 -24.425 -14.762  0.00  0.00    +0.003 C 
ATOM     18  C   UNL     1      36.630 -25.390 -13.190  0.00  0.00    +0.000 C 
ATOM     19  C   UNL     1      35.682 -24.316 -13.770  0.00  0.00    +0.003 C 
ATOM     20  C   UNL     1      37.981 -24.671 -13.250  0.00  0.00    +0.000 C 
ATOM     21  C   UNL     1      37.630 -25.844 -15.208  0.00  0.00    +0.000 C 
ATOM     22  C   UNL     1      36.868 -26.422 -14.267  0.00  0.00    +0.000 C 
ENDBRANCH   7  16
BRANCH  12  23
ATOM     23  S   UNL     1      34.078 -19.639 -21.587  0.00  0.00    +0.058 S 
ATOM     24  O   UNL     1      34.893 -19.933 -22.762  0.00  0.00    -0.153 OA
ATOM     25  O   UNL     1      32.677 -20.041 -21.543  0.00  0.00    -0.153 OA
BRANCH  23  26
ATOM     26  N   UNL     1      34.159 -17.943 -21.311  0.00  0.00    -0.203 NA
ATOM     27  H   UNL     1      33.700 -17.720 -20.428  0.00  0.00    +0.144 HD
ATOM     28  H   UNL     1      33.691 -17.452 -22.073  0.00  0.00    +0.144 HD
ENDBRANCH  23  26
ENDBRANCH  12  23
TORSDOF 3
ENDMDL
MODEL 3
REMARK VINA RESULT:      -8.4      3.118      7.349
REMARK  Name = 2910
REMARK  3 active torsions:
REMARK  status: ('A' for Active; 'I' for Inactive)
REMARK    1  A    between atoms: C_7  and  C_16
REMARK    2  A    between atoms: C_12  and  S_23
REMARK    3  A    between atoms: S_23  and  N_26
REMARK                            x       y       z     vdW  Elec       q    Type
REMARK                         _______ _______ _______ _____ _____    ______ ____
ROOT
ATOM      1 CL   UNL     1      28.969 -25.293 -13.877  0.00  0.00    -0.081 Cl
ATOM      2  S   UNL     1      34.307 -23.167 -16.367  0.00  0.00    +0.063 S 
ATOM      3  O   UNL     1      34.542 -21.850 -15.811  0.00  0.00    -0.153 OA
ATOM      4  O   UNL     1      34.211 -23.385 -17.797  0.00  0.00    -0.153 OA
ATOM      5  N   UNL     1      35.443 -24.273 -15.729  0.00  0.00    -0.163 NA
ATOM      6  N   UNL     1      34.042 -24.998 -13.878  0.00  0.00    -0.320 N 
ATOM      7  C   UNL     1      35.345 -24.490 -14.267  0.00  0.00    +0.147 C 
ATOM      8  C   UNL     1      32.868 -24.582 -14.490  0.00  0.00    +0.065 C 
ATOM      9  C   UNL     1      32.818 -23.760 -15.627  0.00  0.00    +0.136 C 
ATOM     10  C   UNL     1      31.642 -25.042 -13.984  0.00  0.00    +0.028 C 
ATOM     11  C   UNL     1      31.611 -23.397 -16.232  0.00  0.00    +0.042 C 
ATOM     12  C   UNL     1      30.413 -23.860 -15.698  0.00  0.00    +0.134 C 
ATOM     13  C   UNL     1      30.427 -24.683 -14.576  0.00  0.00    +0.078 C 
ATOM     14  H   UNL     1      36.378 -23.922 -15.934  0.00  0.00    +0.151 HD
ATOM     15  H   UNL     1      33.989 -25.661 -13.153  0.00  0.00    +0.148 HD
ENDROOT
BRANCH   7  16
ATOM     16  C   UNL     1      36.424 -25.482 -13.850  0.00  0.00    +0.035 C 
ATOM     17  C   UNL     1      36.673 -25.580 -12.321  0.00  0.00    +0.003 C 
ATOM     18  C   UNL     1      38.716 -25.156 -13.123  0.00  0.00    +0.000 C 
ATOM     19  C   UNL     1      37.842 -25.128 -14.397  0.00  0.00    +0.003 C 
ATOM     20  C   UNL     1      38.044 -26.269 -12.314  0.00  0.00    +0.000 C 
ATOM     21  C   UNL     1      37.094 -24.233 -11.783  0.00  0.00    +0.000 C 
ATOM     22  C   UNL     1      38.318 -23.976 -12.269  0.00  0.00    +0.000 C 
ENDBRANCH   7  16
BRANCH  12  23
ATOM     23  S   UNL     1      28.922 -23.380 -16.484  0.00  0.00    +0.058 S 
ATOM     24  O   UNL     1      29.238 -22.181 -17.255  0.00  0.00    -0.153 OA
ATOM     25  O   UNL     1      28.436 -24.580 -17.154  0.00  0.00    -0.153 OA
BRANCH  23  26
ATOM     26  N   UNL     1      27.777 -22.936 -15.280  0.00  0.00    -0.203 NA
ATOM     27  H   UNL     1      27.984 -21.996 -14.944  0.00  0.00    +0.144 HD
ATOM     28  H   UNL     1      27.829 -23.594 -14.502  0.00  0.00    +0.144 HD
ENDBRANCH  23  26
ENDBRANCH  12  23
TORSDOF 3
ENDMDL
MODEL 4
REMARK VINA RESULT:      -8.3     13.524     15.313
REMARK  Name = 2910
REMARK  3 active torsions:
REMARK  status: ('A' for Active; 'I' for Inactive)
REMARK    1  A    between atoms: C_7  and  C_16
REMARK    2  A    between atoms: C_12  and  S_23
REMARK    3  A    between atoms: S_23  and  N_26
REMARK                            x       y       z     vdW  Elec       q    Type
REMARK                         _______ _______ _______ _____ _____    ______ ____
ROOT
ATOM      1 CL   UNL     1      32.269 -15.433 -20.362  0.00  0.00    -0.081 Cl
ATOM      2  S   UNL     1      33.845 -10.957 -24.447  0.00  0.00    +0.063 S 
ATOM      3  O   UNL     1      33.043 -11.163 -25.636  0.00  0.00    -0.153 OA
ATOM      4  O   UNL     1      35.294 -10.937 -24.499  0.00  0.00    -0.153 OA
ATOM      5  N   UNL     1      33.317  -9.552 -23.631  0.00  0.00    -0.163 NA
ATOM      6  N   UNL     1      31.761 -10.710 -22.165  0.00  0.00    -0.320 N 
ATOM      7  C   UNL     1      31.933  -9.620 -23.109  0.00  0.00    +0.147 C 
ATOM      8  C   UNL     1      32.390 -11.936 -22.321  0.00  0.00    +0.065 C 
ATOM      9  C   UNL     1      33.361 -12.207 -23.298  0.00  0.00    +0.136 C 
ATOM     10  C   UNL     1      32.088 -12.971 -21.421  0.00  0.00    +0.028 C 
ATOM     11  C   UNL     1      33.997 -13.448 -23.394  0.00  0.00    +0.042 C 
ATOM     12  C   UNL     1      33.665 -14.457 -22.494  0.00  0.00    +0.134 C 
ATOM     13  C   UNL     1      32.712 -14.219 -21.508  0.00  0.00    +0.078 C 
ATOM     14  H   UNL     1      33.371  -8.768 -24.281  0.00  0.00    +0.151 HD
ATOM     15  H   UNL     1      31.174 -10.574 -21.386  0.00  0.00    +0.148 HD
ENDROOT
BRANCH   7  16
ATOM     16  C   UNL     1      31.606  -8.298 -22.425  0.00  0.00    +0.035 C 
ATOM     17  C   UNL     1      30.592  -7.398 -23.181  0.00  0.00    +0.003 C 
ATOM     18  C   UNL     1      32.331  -6.028 -22.882  0.00  0.00    +0.000 C 
ATOM     19  C   UNL     1      32.839  -7.354 -22.271  0.00  0.00    +0.003 C 
ATOM     20  C   UNL     1      30.852  -6.054 -22.488  0.00  0.00    +0.000 C 
ATOM     21  C   UNL     1      31.132  -7.055 -24.550  0.00  0.00    +0.000 C 
ATOM     22  C   UNL     1      32.179  -6.237 -24.370  0.00  0.00    +0.000 C 
ENDBRANCH   7  16
BRANCH  12  23
ATOM     23  S   UNL     1      34.482 -15.999 -22.649  0.00  0.00    +0.058 S 
ATOM     24  O   UNL     1      35.172 -16.222 -21.382  0.00  0.00    -0.153 OA
ATOM     25  O   UNL     1      33.459 -16.933 -23.105  0.00  0.00    -0.153 OA
BRANCH  23  26
ATOM     26  N   UNL     1      35.680 -15.873 -23.877  0.00  0.00    -0.203 NA
ATOM     27  H   UNL     1      36.423 -16.547 -23.698  0.00  0.00    +0.144 HD
ATOM     28  H   UNL     1      36.068 -14.929 -23.877  0.00  0.00    +0.144 HD
ENDBRANCH  23  26
ENDBRANCH  12  23
TORSDOF 3
ENDMDL
MODEL 5
REMARK VINA RESULT:      -8.1      5.692      6.922
REMARK  Name = 2910
REMARK  3 active torsions:
REMARK  status: ('A' for Active; 'I' for Inactive)
REMARK    1  A    between atoms: C_7  and  C_16
REMARK    2  A    between atoms: C_12  and  S_23
REMARK    3  A    between atoms: S_23  and  N_26
REMARK                            x       y       z     vdW  Elec       q    Type
REMARK                         _______ _______ _______ _____ _____    ______ ____
ROOT
ATOM      1 CL   UNL     1      31.661 -23.821 -16.357  0.00  0.00    -0.081 Cl
ATOM      2  S   UNL     1      36.520 -21.032 -19.151  0.00  0.00    +0.063 S 
ATOM      3  O   UNL     1      37.138 -22.016 -20.017  0.00  0.00    -0.153 OA
ATOM      4  O   UNL     1      37.268 -20.361 -18.106  0.00  0.00    -0.153 OA
ATOM      5  N   UNL     1      35.733 -19.846 -20.096  0.00  0.00    -0.163 NA
ATOM      6  N   UNL     1      33.566 -20.949 -20.090  0.00  0.00    -0.320 N 
ATOM      7  C   UNL     1      34.603 -20.350 -20.910  0.00  0.00    +0.147 C 
ATOM      8  C   UNL     1      33.853 -21.697 -18.957  0.00  0.00    +0.065 C 
ATOM      9  C   UNL     1      35.135 -21.828 -18.401  0.00  0.00    +0.136 C 
ATOM     10  C   UNL     1      32.798 -22.330 -18.280  0.00  0.00    +0.028 C 
ATOM     11  C   UNL     1      35.370 -22.562 -17.235  0.00  0.00    +0.042 C 
ATOM     12  C   UNL     1      34.305 -23.188 -16.595  0.00  0.00    +0.134 C 
ATOM     13  C   UNL     1      33.020 -23.072 -17.115  0.00  0.00    +0.078 C 
ATOM     14  H   UNL     1      36.420 -19.436 -20.729  0.00  0.00    +0.151 HD
ATOM     15  H   UNL     1      32.625 -20.822 -20.348  0.00  0.00    +0.148 HD
ENDROOT
BRANCH   7  16
ATOM     16  C   UNL     1      34.018 -19.186 -21.701  0.00  0.00    +0.035 C 
ATOM     17  C   UNL     1      34.488 -19.090 -23.178  0.00  0.00    +0.003 C 
ATOM     18  C   UNL     1      34.971 -17.060 -22.379  0.00  0.00    +0.000 C 
ATOM     19  C   UNL     1      34.411 -17.787 -21.135  0.00  0.00    +0.003 C 
ATOM     20  C   UNL     1      34.096 -17.641 -23.494  0.00  0.00    +0.000 C 
ATOM     21  C   UNL     1      35.990 -18.935 -23.229  0.00  0.00    +0.000 C 
ATOM     22  C   UNL     1      36.280 -17.718 -22.744  0.00  0.00    +0.000 C 
ENDBRANCH   7  16
BRANCH  12  23
ATOM     23  S   UNL     1      34.642 -24.101 -15.138  0.00  0.00    +0.058 S 
ATOM     24  O   UNL     1      33.345 -24.398 -14.536  0.00  0.00    -0.153 OA
ATOM     25  O   UNL     1      35.525 -25.184 -15.557  0.00  0.00    -0.153 OA
BRANCH  23  26
ATOM     26  N   UNL     1      35.506 -23.098 -14.040  0.00  0.00    -0.203 NA
ATOM     27  H   UNL     1      36.345 -22.740 -14.495  0.00  0.00    +0.144 HD
ATOM     28  H   UNL     1      35.769 -23.642 -13.217  0.00  0.00    +0.144 HD
ENDBRANCH  23  26
ENDBRANCH  12  23
TORSDOF 3
ENDMDL
MODEL 6
REMARK VINA RESULT:      -7.9     13.728     15.597
REMARK  Name = 2910
REMARK  3 active torsions:
REMARK  status: ('A' for Active; 'I' for Inactive)
REMARK    1  A    between atoms: C_7  and  C_16
REMARK    2  A    between atoms: C_12  and  S_23
REMARK    3  A    between atoms: S_23  and  N_26
REMARK                            x       y       z     vdW  Elec       q    Type
REMARK                         _______ _______ _______ _____ _____    ______ ____
ROOT
ATOM      1 CL   UNL     1      34.850 -15.047 -24.077  0.00  0.00    -0.081 Cl
ATOM      2  S   UNL     1      31.421 -10.753 -21.075  0.00  0.00    +0.063 S 
ATOM      3  O   UNL     1      32.257 -10.192 -20.032  0.00  0.00    -0.153 OA
ATOM      4  O   UNL     1      30.147 -11.377 -20.776  0.00  0.00    -0.153 OA
ATOM      5  N   UNL     1      31.177  -9.593 -22.305  0.00  0.00    -0.163 NA
ATOM      6  N   UNL     1      33.056 -10.310 -23.672  0.00  0.00    -0.320 N 
ATOM      7  C   UNL     1      32.405  -9.185 -23.026  0.00  0.00    +0.147 C 
ATOM      8  C   UNL     1      33.105 -11.572 -23.097  0.00  0.00    +0.065 C 
ATOM      9  C   UNL     1      32.417 -11.934 -21.928  0.00  0.00    +0.136 C 
ATOM     10  C   UNL     1      33.845 -12.579 -23.737  0.00  0.00    +0.028 C 
ATOM     11  C   UNL     1      32.466 -13.230 -21.406  0.00  0.00    +0.042 C 
ATOM     12  C   UNL     1      33.219 -14.202 -22.058  0.00  0.00    +0.134 C 
ATOM     13  C   UNL     1      33.907 -13.878 -23.223  0.00  0.00    +0.078 C 
ATOM     14  H   UNL     1      30.769  -8.761 -21.880  0.00  0.00    +0.151 HD
ATOM     15  H   UNL     1      33.480 -10.173 -24.550  0.00  0.00    +0.148 HD
ENDROOT
BRANCH   7  16
ATOM     16  C   UNL     1      32.029  -8.144 -24.074  0.00  0.00    +0.035 C 
ATOM     17  C   UNL     1      32.867  -6.838 -24.036  0.00  0.00    +0.003 C 
ATOM     18  C   UNL     1      30.770  -6.076 -23.908  0.00  0.00    +0.000 C 
ATOM     19  C   UNL     1      30.571  -7.609 -23.926  0.00  0.00    +0.003 C 
ATOM     20  C   UNL     1      31.961  -5.911 -24.856  0.00  0.00    +0.000 C 
ATOM     21  C   UNL     1      32.715  -6.170 -22.689  0.00  0.00    +0.000 C 
ATOM     22  C   UNL     1      31.454  -5.718 -22.611  0.00  0.00    +0.000 C 
ENDBRANCH   7  16
BRANCH  12  23
ATOM     23  S   UNL     1      33.257 -15.812 -21.369  0.00  0.00    +0.058 S 
ATOM     24  O   UNL     1      32.052 -15.934 -20.554  0.00  0.00    -0.153 OA
ATOM     25  O   UNL     1      33.476 -16.709 -22.498  0.00  0.00    -0.153 OA
BRANCH  23  26
ATOM     26  N   UNL     1      34.611 -15.935 -20.315  0.00  0.00    -0.203 NA
ATOM     27  H   UNL     1      35.155 -16.763 -20.555  0.00  0.00    +0.144 HD
ATOM     28  H   UNL     1      34.285 -16.008 -19.351  0.00  0.00    +0.144 HD
ENDBRANCH  23  26
ENDBRANCH  12  23
TORSDOF 3
ENDMDL
MODEL 7
REMARK VINA RESULT:      -7.8      3.271      6.934
REMARK  Name = 2910
REMARK  3 active torsions:
REMARK  status: ('A' for Active; 'I' for Inactive)
REMARK    1  A    between atoms: C_7  and  C_16
REMARK    2  A    between atoms: C_12  and  S_23
REMARK    3  A    between atoms: S_23  and  N_26
REMARK                            x       y       z     vdW  Elec       q    Type
REMARK                         _______ _______ _______ _____ _____    ______ ____
ROOT
ATOM      1 CL   UNL     1      29.936 -23.515 -12.955  0.00  0.00    -0.081 Cl
ATOM      2  S   UNL     1      34.063 -23.093 -17.643  0.00  0.00    +0.063 S 
ATOM      3  O   UNL     1      34.100 -21.704 -18.056  0.00  0.00    -0.153 OA
ATOM      4  O   UNL     1      33.741 -24.155 -18.575  0.00  0.00    -0.153 OA
ATOM      5  N   UNL     1      35.521 -23.496 -16.849  0.00  0.00    -0.163 NA
ATOM      6  N   UNL     1      34.710 -22.995 -14.613  0.00  0.00    -0.320 N 
ATOM      7  C   UNL     1      35.763 -22.765 -15.585  0.00  0.00    +0.147 C 
ATOM      8  C   UNL     1      33.376 -23.117 -14.975  0.00  0.00    +0.065 C 
ATOM      9  C   UNL     1      32.921 -23.182 -16.301  0.00  0.00    +0.136 C 
ATOM     10  C   UNL     1      32.409 -23.233 -13.964  0.00  0.00    +0.028 C 
ATOM     11  C   UNL     1      31.569 -23.342 -16.618  0.00  0.00    +0.042 C 
ATOM     12  C   UNL     1      30.634 -23.442 -15.592  0.00  0.00    +0.134 C 
ATOM     13  C   UNL     1      31.053 -23.389 -14.266  0.00  0.00    +0.078 C 
ATOM     14  H   UNL     1      36.294 -23.296 -17.483  0.00  0.00    +0.151 HD
ATOM     15  H   UNL     1      34.951 -23.067 -13.661  0.00  0.00    +0.148 HD
ENDROOT
BRANCH   7  16
ATOM     16  C   UNL     1      37.098 -23.220 -15.008  0.00  0.00    +0.035 C 
ATOM     17  C   UNL     1      37.456 -24.708 -15.270  0.00  0.00    +0.003 C 
ATOM     18  C   UNL     1      37.635 -24.548 -13.049  0.00  0.00    +0.000 C 
ATOM     19  C   UNL     1      37.168 -23.131 -13.452  0.00  0.00    +0.003 C 
ATOM     20  C   UNL     1      38.554 -24.912 -14.218  0.00  0.00    +0.000 C 
ATOM     21  C   UNL     1      36.398 -25.604 -14.670  0.00  0.00    +0.000 C 
ATOM     22  C   UNL     1      36.502 -25.503 -13.337  0.00  0.00    +0.000 C 
ENDBRANCH   7  16
BRANCH  12  23
ATOM     23  S   UNL     1      28.949 -23.639 -16.031  0.00  0.00    +0.058 S 
ATOM     24  O   UNL     1      28.911 -23.670 -17.490  0.00  0.00    -0.153 OA
ATOM     25  O   UNL     1      28.481 -24.783 -15.258  0.00  0.00    -0.153 OA
BRANCH  23  26
ATOM     26  N   UNL     1      28.075 -22.250 -15.518  0.00  0.00    -0.203 NA
ATOM     27  H   UNL     1      27.988 -21.597 -16.296  0.00  0.00    +0.144 HD
ATOM     28  H   UNL     1      28.572 -21.800 -14.749  0.00  0.00    +0.144 HD
ENDBRANCH  23  26
ENDBRANCH  12  23
TORSDOF 3
ENDMDL
MODEL 8
REMARK VINA RESULT:      -7.5      2.451      3.039
REMARK  Name = 2910
REMARK  3 active torsions:
REMARK  status: ('A' for Active; 'I' for Inactive)
REMARK    1  A    between atoms: C_7  and  C_16
REMARK    2  A    between atoms: C_12  and  S_23
REMARK    3  A    between atoms: S_23  and  N_26
REMARK                            x       y       z     vdW  Elec       q    Type
REMARK                         _______ _______ _______ _____ _____    ______ ____
ROOT
ATOM      1 CL   UNL     1      37.795 -22.871 -16.182  0.00  0.00    -0.081 Cl
ATOM      2  S   UNL     1      32.359 -24.091 -13.325  0.00  0.00    +0.063 S 
ATOM      3  O   UNL     1      32.035 -22.935 -12.513  0.00  0.00    -0.153 OA
ATOM      4  O   UNL     1      32.484 -25.415 -12.749  0.00  0.00    -0.153 OA
ATOM      5  N   UNL     1      31.290 -24.181 -14.655  0.00  0.00    -0.163 NA
ATOM      6  N   UNL     1      32.715 -22.932 -16.179  0.00  0.00    -0.320 N 
ATOM      7  C   UNL     1      31.386 -23.050 -15.606  0.00  0.00    +0.147 C 
ATOM      8  C   UNL     1      33.866 -23.182 -15.446  0.00  0.00    +0.065 C 
ATOM      9  C   UNL     1      33.875 -23.712 -14.146  0.00  0.00    +0.136 C 
ATOM     10  C   UNL     1      35.114 -22.943 -16.044  0.00  0.00    +0.028 C 
ATOM     11  C   UNL     1      35.062 -23.983 -13.460  0.00  0.00    +0.042 C 
ATOM     12  C   UNL     1      36.283 -23.723 -14.076  0.00  0.00    +0.134 C 
ATOM     13  C   UNL     1      36.309 -23.204 -15.367  0.00  0.00    +0.078 C 
ATOM     14  H   UNL     1      30.337 -24.210 -14.294  0.00  0.00    +0.151 HD
ATOM     15  H   UNL     1      32.802 -22.664 -17.122  0.00  0.00    +0.148 HD
ENDROOT
BRANCH   7  16
ATOM     16  C   UNL     1      30.369 -23.265 -16.720  0.00  0.00    +0.035 C 
ATOM     17  C   UNL     1      29.186 -22.260 -16.736  0.00  0.00    +0.003 C 
ATOM     18  C   UNL     1      28.145 -24.236 -16.702  0.00  0.00    +0.000 C 
ATOM     19  C   UNL     1      29.635 -24.640 -16.638  0.00  0.00    +0.003 C 
ATOM     20  C   UNL     1      28.196 -23.019 -17.629  0.00  0.00    +0.000 C 
ATOM     21  C   UNL     1      28.425 -22.342 -15.434  0.00  0.00    +0.000 C 
ATOM     22  C   UNL     1      27.804 -23.531 -15.411  0.00  0.00    +0.000 C 
ENDBRANCH   7  16
BRANCH  12  23
ATOM     23  S   UNL     1      37.747 -24.073 -13.181  0.00  0.00    +0.058 S 
ATOM     24  O   UNL     1      38.675 -24.668 -14.139  0.00  0.00    -0.153 OA
ATOM     25  O   UNL     1      38.090 -22.829 -12.500  0.00  0.00    -0.153 OA
BRANCH  23  26
ATOM     26  N   UNL     1      37.400 -25.261 -11.988  0.00  0.00    -0.203 NA
ATOM     27  H   UNL     1      36.958 -26.067 -12.429  0.00  0.00    +0.144 HD
ATOM     28  H   UNL     1      36.769 -24.867 -11.289  0.00  0.00    +0.144 HD
ENDBRANCH  23  26
ENDBRANCH  12  23
TORSDOF 3
ENDMDL
MODEL 9
REMARK VINA RESULT:      -7.5      5.084      6.384
REMARK  Name = 2910
REMARK  3 active torsions:
REMARK  status: ('A' for Active; 'I' for Inactive)
REMARK    1  A    between atoms: C_7  and  C_16
REMARK    2  A    between atoms: C_12  and  S_23
REMARK    3  A    between atoms: S_23  and  N_26
REMARK                            x       y       z     vdW  Elec       q    Type
REMARK                         _______ _______ _______ _____ _____    ______ ____
ROOT
ATOM      1 CL   UNL     1      38.076 -22.551 -14.480  0.00  0.00    -0.081 Cl
ATOM      2  S   UNL     1      33.699 -22.670 -18.955  0.00  0.00    +0.063 S 
ATOM      3  O   UNL     1      32.620 -21.805 -18.521  0.00  0.00    -0.153 OA
ATOM      4  O   UNL     1      33.474 -24.065 -19.276  0.00  0.00    -0.153 OA
ATOM      5  N   UNL     1      34.529 -21.944 -20.261  0.00  0.00    -0.163 NA
ATOM      6  N   UNL     1      36.203 -20.844 -18.884  0.00  0.00    -0.320 N 
ATOM      7  C   UNL     1      35.213 -20.673 -19.932  0.00  0.00    +0.147 C 
ATOM      8  C   UNL     1      36.011 -21.702 -17.811  0.00  0.00    +0.065 C 
ATOM      9  C   UNL     1      34.934 -22.594 -17.697  0.00  0.00    +0.136 C 
ATOM     10  C   UNL     1      36.971 -21.729 -16.786  0.00  0.00    +0.028 C 
ATOM     11  C   UNL     1      34.801 -23.468 -16.614  0.00  0.00    +0.042 C 
ATOM     12  C   UNL     1      35.764 -23.462 -15.609  0.00  0.00    +0.134 C 
ATOM     13  C   UNL     1      36.849 -22.594 -15.695  0.00  0.00    +0.078 C 
ATOM     14  H   UNL     1      33.854 -21.757 -21.002  0.00  0.00    +0.151 HD
ATOM     15  H   UNL     1      37.042 -20.330 -18.936  0.00  0.00    +0.148 HD
ENDROOT
BRANCH   7  16
ATOM     16  C   UNL     1      35.890 -20.146 -21.191  0.00  0.00    +0.035 C 
ATOM     17  C   UNL     1      36.423 -18.692 -21.094  0.00  0.00    +0.003 C 
ATOM     18  C   UNL     1      35.123 -18.615 -22.910  0.00  0.00    +0.000 C 
ATOM     19  C   UNL     1      34.939 -20.071 -22.426  0.00  0.00    +0.003 C 
ATOM     20  C   UNL     1      36.598 -18.367 -22.583  0.00  0.00    +0.000 C 
ATOM     21  C   UNL     1      35.284 -17.748 -20.789  0.00  0.00    +0.000 C 
ATOM     22  C   UNL     1      34.501 -17.706 -21.877  0.00  0.00    +0.000 C 
ENDBRANCH   7  16
BRANCH  12  23
ATOM     23  S   UNL     1      35.560 -24.569 -14.267  0.00  0.00    +0.058 S 
ATOM     24  O   UNL     1      36.390 -25.732 -14.570  0.00  0.00    -0.153 OA
ATOM     25  O   UNL     1      35.813 -23.776 -13.070  0.00  0.00    -0.153 OA
BRANCH  23  26
ATOM     26  N   UNL     1      33.923 -25.097 -14.226  0.00  0.00    -0.203 NA
ATOM     27  H   UNL     1      33.653 -25.440 -15.147  0.00  0.00    +0.144 HD
ATOM     28  H   UNL     1      33.321 -24.317 -13.962  0.00  0.00    +0.144 HD
ENDBRANCH  23  26
ENDBRANCH  12  23
TORSDOF 3
ENDMDL
