MODEL 1
REMARK VINA RESULT:     -10.2      0.000      0.000
REMARK  Name = 6479523
REMARK  6 active torsions:
REMARK  status: ('A' for Active; 'I' for Inactive)
REMARK    1  A    between atoms: N_2  and  CA_11
REMARK    2  A    between atoms: C_3  and  CA_19
REMARK    3  A    between atoms: CA_10  and  C_16
REMARK    4  A    between atoms: C_16  and  O_17
REMARK    5  A    between atoms: CA_19  and  N_22
REMARK    6  A    between atoms: CA_19  and  C_31
REMARK                            x       y       z     vdW  Elec       q    Type
REMARK                         _______ _______ _______ _____ _____    ______ ____
ROOT
ATOM      1  O   UNL     1      33.056 -22.803 -14.596  0.00  0.00    -0.273 OA
ATOM      2  N   UNL     1      34.853 -22.945 -16.057  0.00  0.00    -0.295 N 
ATOM      3  C   UNL     1      33.497 -22.993 -15.728  0.00  0.00    +0.245 C 
ATOM      4  H   UNL     1      35.117 -23.109 -16.991  0.00  0.00    +0.150 HD
ENDROOT
BRANCH   2  11
ATOM      5  S   UNL     1      35.520 -25.406 -14.329  0.00  0.00    -0.118 S 
ATOM      6  O   UNL     1      37.985 -22.497 -16.536  0.00  0.00    -0.273 OA
ATOM      7  N   UNL     1      37.558 -23.830 -14.636  0.00  0.00    -0.260 N 
ATOM      8  C   UNL     1      36.223 -23.742 -14.036  0.00  0.00    +0.151 C 
ATOM      9  C   UNL     1      37.210 -26.181 -14.217  0.00  0.00    +0.068 C 
ATOM     10  CA  UNL     1      38.136 -25.137 -14.877  0.00  0.00    +0.184 C 
ATOM     11  CA  UNL     1      35.898 -22.661 -15.076  0.00  0.00    +0.178 C 
ATOM     12  C   UNL     1      37.334 -22.880 -15.591  0.00  0.00    +0.247 C 
ATOM     13  C   UNL     1      37.508 -26.450 -12.735  0.00  0.00    +0.013 C 
ATOM     14  C   UNL     1      37.207 -27.497 -14.997  0.00  0.00    +0.013 C 
BRANCH  10  16
ATOM     15  OXT UNL     1      39.888 -24.551 -13.324  0.00  0.00    -0.248 OA
ATOM     16  C   UNL     1      39.537 -25.103 -14.355  0.00  0.00    +0.333 C 
BRANCH  16  17
ATOM     17  O   UNL     1      40.374 -25.770 -15.187  0.00  0.00    -0.479 OA
ATOM     18  H   UNL     1      40.908 -26.465 -14.855  0.00  0.00    +0.295 HD
ENDBRANCH  16  17
ENDBRANCH  10  16
ENDBRANCH   2  11
BRANCH   3  19
ATOM     19  CA  UNL     1      32.614 -23.356 -16.916  0.00  0.00    +0.173 C 
BRANCH  19  22
ATOM     20  O   UNL     1      34.940 -23.108 -18.539  0.00  0.00    -0.252 OA
ATOM     21  O   UNL     1      31.918 -20.161 -19.486  0.00  0.00    -0.252 OA
ATOM     22  N   UNL     1      32.829 -22.374 -17.953  0.00  0.00    -0.279 N 
ATOM     23  N   UNL     1      34.015 -21.294 -19.669  0.00  0.00    -0.197 N 
ATOM     24  N   UNL     1      33.559 -19.509 -21.018  0.00  0.00    -0.287 N 
ATOM     25  C   UNL     1      34.000 -22.325 -18.700  0.00  0.00    +0.312 C 
ATOM     26  C   UNL     1      35.136 -21.170 -20.588  0.00  0.00    +0.125 C 
ATOM     27  C   UNL     1      34.918 -19.860 -21.316  0.00  0.00    +0.113 C 
ATOM     28  C   UNL     1      33.024 -20.304 -19.991  0.00  0.00    +0.311 C 
ATOM     29  H   UNL     1      32.121 -21.715 -18.138  0.00  0.00    +0.152 HD
ATOM     30  H   UNL     1      33.060 -18.795 -21.478  0.00  0.00    +0.151 HD
ENDBRANCH  19  22
BRANCH  19  31
ATOM     31  C   UNL     1      31.158 -23.451 -16.524  0.00  0.00    +0.004 C 
ATOM     32  C   UNL     1      30.701 -24.556 -15.805  0.00  0.00    -0.002 C 
ATOM     33  C   UNL     1      30.270 -22.437 -16.881  0.00  0.00    -0.002 C 
ATOM     34  C   UNL     1      29.357 -24.645 -15.443  0.00  0.00    -0.000 C 
ATOM     35  C   UNL     1      28.927 -22.525 -16.519  0.00  0.00    -0.000 C 
ATOM     36  C   UNL     1      28.469 -23.629 -15.800  0.00  0.00    -0.000 C 
ENDBRANCH  19  31
ENDBRANCH   3  19
TORSDOF 6
ENDMDL
MODEL 2
REMARK VINA RESULT:      -9.2      2.838      7.026
REMARK  Name = 6479523
REMARK  6 active torsions:
REMARK  status: ('A' for Active; 'I' for Inactive)
REMARK    1  A    between atoms: N_2  and  CA_11
REMARK    2  A    between atoms: C_3  and  CA_19
REMARK    3  A    between atoms: CA_10  and  C_16
REMARK    4  A    between atoms: C_16  and  O_17
REMARK    5  A    between atoms: CA_19  and  N_22
REMARK    6  A    between atoms: CA_19  and  C_31
REMARK                            x       y       z     vdW  Elec       q    Type
REMARK                         _______ _______ _______ _____ _____    ______ ____
ROOT
ATOM      1  O   UNL     1      33.643 -24.300 -17.844  0.00  0.00    -0.273 OA
ATOM      2  N   UNL     1      34.226 -22.065 -18.069  0.00  0.00    -0.295 N 
ATOM      3  C   UNL     1      33.624 -23.146 -17.420  0.00  0.00    +0.245 C 
ATOM      4  H   UNL     1      34.162 -21.173 -17.656  0.00  0.00    +0.150 HD
ENDROOT
BRANCH   2  11
ATOM      5  S   UNL     1      33.082 -20.230 -20.262  0.00  0.00    -0.118 S 
ATOM      6  O   UNL     1      37.164 -21.040 -18.815  0.00  0.00    -0.273 OA
ATOM      7  N   UNL     1      35.622 -20.668 -20.562  0.00  0.00    -0.260 N 
ATOM      8  C   UNL     1      34.395 -21.470 -20.562  0.00  0.00    +0.151 C 
ATOM      9  C   UNL     1      34.065 -18.921 -21.151  0.00  0.00    +0.068 C 
ATOM     10  CA  UNL     1      35.526 -19.236 -20.767  0.00  0.00    +0.184 C 
ATOM     11  CA  UNL     1      34.950 -22.200 -19.330  0.00  0.00    +0.178 C 
ATOM     12  C   UNL     1      36.172 -21.272 -19.468  0.00  0.00    +0.247 C 
ATOM     13  C   UNL     1      33.760 -19.039 -22.651  0.00  0.00    +0.013 C 
ATOM     14  C   UNL     1      33.638 -17.544 -20.637  0.00  0.00    +0.013 C 
BRANCH  10  16
ATOM     15  OXT UNL     1      36.305 -18.420 -22.901  0.00  0.00    -0.248 OA
ATOM     16  C   UNL     1      36.551 -18.868 -21.792  0.00  0.00    +0.333 C 
BRANCH  16  17
ATOM     17  O   UNL     1      37.802 -19.101 -21.323  0.00  0.00    -0.479 OA
ATOM     18  H   UNL     1      38.078 -18.714 -20.516  0.00  0.00    +0.295 HD
ENDBRANCH  16  17
ENDBRANCH  10  16
ENDBRANCH   2  11
BRANCH   3  19
ATOM     19  CA  UNL     1      32.890 -22.737 -16.149  0.00  0.00    +0.173 C 
BRANCH  19  22
ATOM     20  O   UNL     1      35.669 -22.327 -15.683  0.00  0.00    -0.252 OA
ATOM     21  O   UNL     1      33.771 -24.631 -12.552  0.00  0.00    -0.252 OA
ATOM     22  N   UNL     1      33.646 -23.222 -15.017  0.00  0.00    -0.279 N 
ATOM     23  N   UNL     1      35.561 -23.531 -13.694  0.00  0.00    -0.197 N 
ATOM     24  N   UNL     1      35.959 -24.623 -11.728  0.00  0.00    -0.287 N 
ATOM     25  C   UNL     1      35.006 -22.974 -14.869  0.00  0.00    +0.312 C 
ATOM     26  C   UNL     1      36.953 -23.283 -13.354  0.00  0.00    +0.125 C 
ATOM     27  C   UNL     1      37.251 -24.190 -12.178  0.00  0.00    +0.113 C 
ATOM     28  C   UNL     1      34.947 -24.303 -12.648  0.00  0.00    +0.311 C 
ATOM     29  H   UNL     1      33.182 -23.748 -14.327  0.00  0.00    +0.152 HD
ATOM     30  H   UNL     1      35.800 -25.090 -10.876  0.00  0.00    +0.151 HD
ENDBRANCH  19  22
BRANCH  19  31
ATOM     31  C   UNL     1      31.467 -23.244 -16.135  0.00  0.00    +0.004 C 
ATOM     32  C   UNL     1      31.157 -24.431 -15.470  0.00  0.00    -0.002 C 
ATOM     33  C   UNL     1      30.463 -22.527 -16.785  0.00  0.00    -0.002 C 
ATOM     34  C   UNL     1      29.843 -24.899 -15.457  0.00  0.00    -0.000 C 
ATOM     35  C   UNL     1      29.150 -22.995 -16.771  0.00  0.00    -0.000 C 
ATOM     36  C   UNL     1      28.839 -24.181 -16.107  0.00  0.00    -0.000 C 
ENDBRANCH  19  31
ENDBRANCH   3  19
TORSDOF 6
ENDMDL
MODEL 3
REMARK VINA RESULT:      -9.1     10.366     14.405
REMARK  Name = 6479523
REMARK  6 active torsions:
REMARK  status: ('A' for Active; 'I' for Inactive)
REMARK    1  A    between atoms: N_2  and  CA_11
REMARK    2  A    between atoms: C_3  and  CA_19
REMARK    3  A    between atoms: CA_10  and  C_16
REMARK    4  A    between atoms: C_16  and  O_17
REMARK    5  A    between atoms: CA_19  and  N_22
REMARK    6  A    between atoms: CA_19  and  C_31
REMARK                            x       y       z     vdW  Elec       q    Type
REMARK                         _______ _______ _______ _____ _____    ______ ____
ROOT
ATOM      1  O   UNL     1      34.478 -10.211 -23.985  0.00  0.00    -0.273 OA
ATOM      2  N   UNL     1      33.137 -12.098 -23.821  0.00  0.00    -0.295 N 
ATOM      3  C   UNL     1      33.379 -10.723 -23.780  0.00  0.00    +0.245 C 
ATOM      4  H   UNL     1      32.224 -12.421 -23.646  0.00  0.00    +0.150 HD
ENDROOT
BRANCH   2  11
ATOM      5  S   UNL     1      33.759 -13.891 -21.395  0.00  0.00    -0.118 S 
ATOM      6  O   UNL     1      32.966 -14.719 -25.649  0.00  0.00    -0.273 OA
ATOM      7  N   UNL     1      34.164 -15.104 -23.652  0.00  0.00    -0.260 N 
ATOM      8  C   UNL     1      34.711 -13.934 -22.957  0.00  0.00    +0.151 C 
ATOM      9  C   UNL     1      33.601 -15.747 -21.396  0.00  0.00    +0.068 C 
ATOM     10  CA  UNL     1      33.439 -16.100 -22.890  0.00  0.00    +0.184 C 
ATOM     11  CA  UNL     1      34.179 -13.078 -24.115  0.00  0.00    +0.178 C 
ATOM     12  C   UNL     1      33.661 -14.402 -24.710  0.00  0.00    +0.247 C 
ATOM     13  C   UNL     1      34.860 -16.328 -20.737  0.00  0.00    +0.013 C 
ATOM     14  C   UNL     1      32.361 -16.141 -20.591  0.00  0.00    +0.013 C 
BRANCH  10  16
ATOM     15  OXT UNL     1      34.120 -18.389 -22.542  0.00  0.00    -0.248 OA
ATOM     16  C   UNL     1      33.971 -17.438 -23.293  0.00  0.00    +0.333 C 
BRANCH  16  17
ATOM     17  O   UNL     1      34.268 -17.455 -24.615  0.00  0.00    -0.479 OA
ATOM     18  H   UNL     1      33.634 -17.760 -25.234  0.00  0.00    +0.295 HD
ENDBRANCH  16  17
ENDBRANCH  10  16
ENDBRANCH   2  11
BRANCH   3  19
ATOM     19  CA  UNL     1      32.142  -9.917 -23.404  0.00  0.00    +0.173 C 
BRANCH  19  22
ATOM     20  O   UNL     1      30.111  -7.938 -23.664  0.00  0.00    -0.252 OA
ATOM     21  O   UNL     1      34.016  -6.492 -24.839  0.00  0.00    -0.252 OA
ATOM     22  N   UNL     1      32.325  -8.564 -23.876  0.00  0.00    -0.279 N 
ATOM     23  N   UNL     1      31.659  -6.387 -24.450  0.00  0.00    -0.197 N 
ATOM     24  N   UNL     1      32.766  -4.564 -25.267  0.00  0.00    -0.287 N 
ATOM     25  C   UNL     1      31.273  -7.660 -23.971  0.00  0.00    +0.312 C 
ATOM     26  C   UNL     1      30.687  -5.307 -24.523  0.00  0.00    +0.125 C 
ATOM     27  C   UNL     1      31.381  -4.186 -25.268  0.00  0.00    +0.113 C 
ATOM     28  C   UNL     1      32.948  -5.893 -24.851  0.00  0.00    +0.311 C 
ATOM     29  H   UNL     1      33.227  -8.271 -24.140  0.00  0.00    +0.152 HD
ATOM     30  H   UNL     1      33.501  -3.963 -25.528  0.00  0.00    +0.151 HD
ENDBRANCH  19  22
BRANCH  19  31
ATOM     31  C   UNL     1      31.872  -9.964 -21.919  0.00  0.00    +0.004 C 
ATOM     32  C   UNL     1      31.123 -11.010 -21.379  0.00  0.00    -0.002 C 
ATOM     33  C   UNL     1      32.370  -8.962 -21.086  0.00  0.00    -0.002 C 
ATOM     34  C   UNL     1      30.874 -11.054 -20.007  0.00  0.00    -0.000 C 
ATOM     35  C   UNL     1      32.121  -9.005 -19.715  0.00  0.00    -0.000 C 
ATOM     36  C   UNL     1      31.373 -10.051 -19.175  0.00  0.00    -0.000 C 
ENDBRANCH  19  31
ENDBRANCH   3  19
TORSDOF 6
ENDMDL
MODEL 4
REMARK VINA RESULT:      -8.1      9.604     14.043
REMARK  Name = 6479523
REMARK  6 active torsions:
REMARK  status: ('A' for Active; 'I' for Inactive)
REMARK    1  A    between atoms: N_2  and  CA_11
REMARK    2  A    between atoms: C_3  and  CA_19
REMARK    3  A    between atoms: CA_10  and  C_16
REMARK    4  A    between atoms: C_16  and  O_17
REMARK    5  A    between atoms: CA_19  and  N_22
REMARK    6  A    between atoms: CA_19  and  C_31
REMARK                            x       y       z     vdW  Elec       q    Type
REMARK                         _______ _______ _______ _____ _____    ______ ____
ROOT
ATOM      1  O   UNL     1      31.151 -11.264 -22.495  0.00  0.00    -0.273 OA
ATOM      2  N   UNL     1      33.000 -12.666 -22.458  0.00  0.00    -0.295 N 
ATOM      3  C   UNL     1      32.362 -11.434 -22.623  0.00  0.00    +0.245 C 
ATOM      4  H   UNL     1      33.976 -12.710 -22.578  0.00  0.00    +0.150 HD
ENDROOT
BRANCH   2  11
ATOM      5  S   UNL     1      33.983 -15.083 -24.094  0.00  0.00    -0.118 S 
ATOM      6  O   UNL     1      33.221 -14.438 -19.803  0.00  0.00    -0.273 OA
ATOM      7  N   UNL     1      33.103 -15.765 -21.751  0.00  0.00    -0.260 N 
ATOM      8  C   UNL     1      32.549 -15.144 -22.958  0.00  0.00    +0.151 C 
ATOM      9  C   UNL     1      34.689 -16.637 -23.347  0.00  0.00    +0.068 C 
ATOM     10  CA  UNL     1      34.340 -16.514 -21.849  0.00  0.00    +0.184 C 
ATOM     11  CA  UNL     1      32.284 -13.891 -22.113  0.00  0.00    +0.178 C 
ATOM     12  C   UNL     1      32.899 -14.683 -20.943  0.00  0.00    +0.247 C 
ATOM     13  C   UNL     1      34.042 -17.836 -24.055  0.00  0.00    +0.013 C 
ATOM     14  C   UNL     1      36.203 -16.652 -23.569  0.00  0.00    +0.013 C 
BRANCH  10  16
ATOM     15  OXT UNL     1      33.044 -18.331 -20.928  0.00  0.00    -0.248 OA
ATOM     16  C   UNL     1      34.130 -17.809 -21.131  0.00  0.00    +0.333 C 
BRANCH  16  17
ATOM     17  O   UNL     1      35.314 -18.333 -20.732  0.00  0.00    -0.479 OA
ATOM     18  H   UNL     1      35.959 -17.783 -20.333  0.00  0.00    +0.295 HD
ENDBRANCH  16  17
ENDBRANCH  10  16
ENDBRANCH   2  11
BRANCH   3  19
ATOM     19  CA  UNL     1      33.322 -10.322 -23.029  0.00  0.00    +0.173 C 
BRANCH  19  22
ATOM     20  O   UNL     1      32.954  -8.510 -20.864  0.00  0.00    -0.252 OA
ATOM     21  O   UNL     1      31.032  -7.179 -24.504  0.00  0.00    -0.252 OA
ATOM     22  N   UNL     1      32.581  -9.083 -23.071  0.00  0.00    -0.279 N 
ATOM     23  N   UNL     1      31.693  -7.087 -22.208  0.00  0.00    -0.197 N 
ATOM     24  N   UNL     1      30.409  -5.421 -23.095  0.00  0.00    -0.287 N 
ATOM     25  C   UNL     1      32.452  -8.255 -21.962  0.00  0.00    +0.312 C 
ATOM     26  C   UNL     1      31.543  -6.080 -21.169  0.00  0.00    +0.125 C 
ATOM     27  C   UNL     1      30.514  -5.103 -21.699  0.00  0.00    +0.113 C 
ATOM     28  C   UNL     1      31.044  -6.634 -23.407  0.00  0.00    +0.311 C 
ATOM     29  H   UNL     1      32.153  -8.814 -23.915  0.00  0.00    +0.152 HD
ATOM     30  H   UNL     1      29.945  -4.856 -23.755  0.00  0.00    +0.151 HD
ENDBRANCH  19  22
BRANCH  19  31
ATOM     31  C   UNL     1      33.998 -10.619 -24.346  0.00  0.00    +0.004 C 
ATOM     32  C   UNL     1      35.133  -9.901 -24.724  0.00  0.00    -0.002 C 
ATOM     33  C   UNL     1      33.490 -11.610 -25.186  0.00  0.00    -0.002 C 
ATOM     34  C   UNL     1      35.759 -10.174 -25.941  0.00  0.00    -0.000 C 
ATOM     35  C   UNL     1      34.115 -11.883 -26.402  0.00  0.00    -0.000 C 
ATOM     36  C   UNL     1      35.250 -11.166 -26.780  0.00  0.00    -0.000 C 
ENDBRANCH  19  31
ENDBRANCH   3  19
TORSDOF 6
ENDMDL
MODEL 5
REMARK VINA RESULT:      -8.1      8.520     12.750
REMARK  Name = 6479523
REMARK  6 active torsions:
REMARK  status: ('A' for Active; 'I' for Inactive)
REMARK    1  A    between atoms: N_2  and  CA_11
REMARK    2  A    between atoms: C_3  and  CA_19
REMARK    3  A    between atoms: CA_10  and  C_16
REMARK    4  A    between atoms: C_16  and  O_17
REMARK    5  A    between atoms: CA_19  and  N_22
REMARK    6  A    between atoms: CA_19  and  C_31
REMARK                            x       y       z     vdW  Elec       q    Type
REMARK                         _______ _______ _______ _____ _____    ______ ____
ROOT
ATOM      1  O   UNL     1      31.847 -12.623 -22.032  0.00  0.00    -0.273 OA
ATOM      2  N   UNL     1      33.677 -14.013 -22.356  0.00  0.00    -0.295 N 
ATOM      3  C   UNL     1      32.940 -12.842 -22.551  0.00  0.00    +0.245 C 
ATOM      4  H   UNL     1      34.545 -14.104 -22.811  0.00  0.00    +0.150 HD
ENDROOT
BRANCH   2  11
ATOM      5  S   UNL     1      33.912 -16.745 -23.759  0.00  0.00    -0.118 S 
ATOM      6  O   UNL     1      35.082 -15.275 -19.773  0.00  0.00    -0.273 OA
ATOM      7  N   UNL     1      34.162 -16.929 -21.183  0.00  0.00    -0.260 N 
ATOM      8  C   UNL     1      33.120 -16.510 -22.125  0.00  0.00    +0.151 C 
ATOM      9  C   UNL     1      34.915 -18.174 -23.109  0.00  0.00    +0.068 C 
ATOM     10  CA  UNL     1      35.252 -17.756 -21.661  0.00  0.00    +0.184 C 
ATOM     11  CA  UNL     1      33.216 -15.108 -21.506  0.00  0.00    +0.178 C 
ATOM     12  C   UNL     1      34.302 -15.707 -20.591  0.00  0.00    +0.247 C 
ATOM     13  C   UNL     1      34.057 -19.442 -23.222  0.00  0.00    +0.013 C 
ATOM     14  C   UNL     1      36.180 -18.320 -23.956  0.00  0.00    +0.013 C 
BRANCH  10  16
ATOM     15  OXT UNL     1      34.493 -19.519 -20.197  0.00  0.00    -0.248 OA
ATOM     16  C   UNL     1      35.411 -18.881 -20.690  0.00  0.00    +0.333 C 
BRANCH  16  17
ATOM     17  O   UNL     1      36.722 -19.104 -20.425  0.00  0.00    -0.479 OA
ATOM     18  H   UNL     1      37.374 -18.527 -20.772  0.00  0.00    +0.295 HD
ENDBRANCH  16  17
ENDBRANCH  10  16
ENDBRANCH   2  11
BRANCH   3  19
ATOM     19  CA  UNL     1      33.612 -11.876 -23.518  0.00  0.00    +0.173 C 
BRANCH  19  22
ATOM     20  O   UNL     1      34.843  -9.314 -23.675  0.00  0.00    -0.252 OA
ATOM     21  O   UNL     1      30.561  -9.080 -23.104  0.00  0.00    -0.252 OA
ATOM     22  N   UNL     1      32.942 -10.600 -23.419  0.00  0.00    -0.279 N 
ATOM     23  N   UNL     1      32.788  -8.257 -23.390  0.00  0.00    -0.197 N 
ATOM     24  N   UNL     1      31.055  -6.795 -23.124  0.00  0.00    -0.287 N 
ATOM     25  C   UNL     1      33.624  -9.392 -23.507  0.00  0.00    +0.312 C 
ATOM     26  C   UNL     1      33.342  -6.922 -23.549  0.00  0.00    +0.125 C 
ATOM     27  C   UNL     1      32.231  -5.972 -23.151  0.00  0.00    +0.113 C 
ATOM     28  C   UNL     1      31.367  -8.162 -23.194  0.00  0.00    +0.311 C 
ATOM     29  H   UNL     1      31.967 -10.586 -23.284  0.00  0.00    +0.152 HD
ATOM     30  H   UNL     1      30.137  -6.442 -23.062  0.00  0.00    +0.151 HD
ENDBRANCH  19  22
BRANCH  19  31
ATOM     31  C   UNL     1      33.609 -12.406 -24.933  0.00  0.00    +0.004 C 
ATOM     32  C   UNL     1      34.280 -11.711 -25.939  0.00  0.00    -0.002 C 
ATOM     33  C   UNL     1      32.934 -13.588 -25.235  0.00  0.00    -0.002 C 
ATOM     34  C   UNL     1      34.277 -12.199 -27.246  0.00  0.00    -0.000 C 
ATOM     35  C   UNL     1      32.931 -14.077 -26.540  0.00  0.00    -0.000 C 
ATOM     36  C   UNL     1      33.602 -13.383 -27.546  0.00  0.00    -0.000 C 
ENDBRANCH  19  31
ENDBRANCH   3  19
TORSDOF 6
ENDMDL
MODEL 6
REMARK VINA RESULT:      -7.7     10.830     14.981
REMARK  Name = 6479523
REMARK  6 active torsions:
REMARK  status: ('A' for Active; 'I' for Inactive)
REMARK    1  A    between atoms: N_2  and  CA_11
REMARK    2  A    between atoms: C_3  and  CA_19
REMARK    3  A    between atoms: CA_10  and  C_16
REMARK    4  A    between atoms: C_16  and  O_17
REMARK    5  A    between atoms: CA_19  and  N_22
REMARK    6  A    between atoms: CA_19  and  C_31
REMARK                            x       y       z     vdW  Elec       q    Type
REMARK                         _______ _______ _______ _____ _____    ______ ____
ROOT
ATOM      1  O   UNL     1      34.545  -9.822 -23.955  0.00  0.00    -0.273 OA
ATOM      2  N   UNL     1      33.075 -11.596 -24.232  0.00  0.00    -0.295 N 
ATOM      3  C   UNL     1      33.401 -10.273 -23.925  0.00  0.00    +0.245 C 
ATOM      4  H   UNL     1      32.132 -11.872 -24.182  0.00  0.00    +0.150 HD
ENDROOT
BRANCH   2  11
ATOM      5  S   UNL     1      33.856 -13.444 -21.893  0.00  0.00    -0.118 S 
ATOM      6  O   UNL     1      32.712 -14.180 -26.084  0.00  0.00    -0.273 OA
ATOM      7  N   UNL     1      34.057 -14.622 -24.196  0.00  0.00    -0.260 N 
ATOM      8  C   UNL     1      34.680 -13.475 -23.527  0.00  0.00    +0.151 C 
ATOM      9  C   UNL     1      33.665 -15.296 -21.912  0.00  0.00    +0.068 C 
ATOM     10  CA  UNL     1      33.378 -15.619 -23.395  0.00  0.00    +0.184 C 
ATOM     11  CA  UNL     1      34.073 -12.589 -24.624  0.00  0.00    +0.178 C 
ATOM     12  C   UNL     1      33.485 -13.893 -25.198  0.00  0.00    +0.247 C 
ATOM     13  C   UNL     1      34.962 -15.910 -21.367  0.00  0.00    +0.013 C 
ATOM     14  C   UNL     1      32.486 -15.684 -21.018  0.00  0.00    +0.013 C 
BRANCH  10  16
ATOM     15  OXT UNL     1      34.206 -17.871 -23.132  0.00  0.00    -0.248 OA
ATOM     16  C   UNL     1      33.851 -16.958 -23.862  0.00  0.00    +0.333 C 
BRANCH  16  17
ATOM     17  O   UNL     1      33.835 -17.026 -25.216  0.00  0.00    -0.479 OA
ATOM     18  H   UNL     1      34.293 -17.715 -25.655  0.00  0.00    +0.295 HD
ENDBRANCH  16  17
ENDBRANCH  10  16
ENDBRANCH   2  11
BRANCH   3  19
ATOM     19  CA  UNL     1      32.192  -9.452 -23.497  0.00  0.00    +0.173 C 
BRANCH  19  22
ATOM     20  O   UNL     1      30.101  -7.607 -24.073  0.00  0.00    -0.252 OA
ATOM     21  O   UNL     1      34.030  -5.985 -24.875  0.00  0.00    -0.252 OA
ATOM     22  N   UNL     1      32.355  -8.111 -24.008  0.00  0.00    -0.279 N 
ATOM     23  N   UNL     1      31.642  -6.002 -24.756  0.00  0.00    -0.197 N 
ATOM     24  N   UNL     1      32.735  -4.152 -25.530  0.00  0.00    -0.287 N 
ATOM     25  C   UNL     1      31.274  -7.275 -24.262  0.00  0.00    +0.312 C 
ATOM     26  C   UNL     1      30.628  -4.984 -24.986  0.00  0.00    +0.125 C 
ATOM     27  C   UNL     1      31.341  -3.857 -25.703  0.00  0.00    +0.113 C 
ATOM     28  C   UNL     1      32.940  -5.450 -25.034  0.00  0.00    +0.311 C 
ATOM     29  H   UNL     1      33.264  -7.777 -24.184  0.00  0.00    +0.152 HD
ATOM     30  H   UNL     1      33.462  -3.520 -25.737  0.00  0.00    +0.151 HD
ENDBRANCH  19  22
BRANCH  19  31
ATOM     31  C   UNL     1      32.008  -9.463 -21.997  0.00  0.00    +0.004 C 
ATOM     32  C   UNL     1      32.486  -8.402 -21.228  0.00  0.00    -0.002 C 
ATOM     33  C   UNL     1      31.361 -10.535 -21.381  0.00  0.00    -0.002 C 
ATOM     34  C   UNL     1      32.316  -8.412 -19.843  0.00  0.00    -0.000 C 
ATOM     35  C   UNL     1      31.191 -10.545 -19.997  0.00  0.00    -0.000 C 
ATOM     36  C   UNL     1      31.668  -9.484 -19.228  0.00  0.00    -0.000 C 
ENDBRANCH  19  31
ENDBRANCH   3  19
TORSDOF 6
ENDMDL
MODEL 7
REMARK VINA RESULT:      -7.7      2.570      7.129
REMARK  Name = 6479523
REMARK  6 active torsions:
REMARK  status: ('A' for Active; 'I' for Inactive)
REMARK    1  A    between atoms: N_2  and  CA_11
REMARK    2  A    between atoms: C_3  and  CA_19
REMARK    3  A    between atoms: CA_10  and  C_16
REMARK    4  A    between atoms: C_16  and  O_17
REMARK    5  A    between atoms: CA_19  and  N_22
REMARK    6  A    between atoms: CA_19  and  C_31
REMARK                            x       y       z     vdW  Elec       q    Type
REMARK                         _______ _______ _______ _____ _____    ______ ____
ROOT
ATOM      1  O   UNL     1      34.945 -24.695 -12.184  0.00  0.00    -0.273 OA
ATOM      2  N   UNL     1      33.602 -23.573 -13.707  0.00  0.00    -0.295 N 
ATOM      3  C   UNL     1      34.828 -23.996 -13.188  0.00  0.00    +0.245 C 
ATOM      4  H   UNL     1      33.602 -23.015 -14.519  0.00  0.00    +0.150 HD
ENDROOT
BRANCH   2  11
ATOM      5  S   UNL     1      31.278 -21.926 -14.879  0.00  0.00    -0.118 S 
ATOM      6  O   UNL     1      31.855 -26.224 -14.101  0.00  0.00    -0.273 OA
ATOM      7  N   UNL     1      30.523 -24.276 -14.081  0.00  0.00    -0.260 N 
ATOM      8  C   UNL     1      31.094 -23.074 -13.466  0.00  0.00    +0.151 C 
ATOM      9  C   UNL     1      29.790 -22.665 -15.721  0.00  0.00    +0.068 C 
ATOM     10  CA  UNL     1      29.882 -24.167 -15.376  0.00  0.00    +0.184 C 
ATOM     11  CA  UNL     1      32.320 -23.923 -13.101  0.00  0.00    +0.178 C 
ATOM     12  C   UNL     1      31.583 -25.086 -13.792  0.00  0.00    +0.247 C 
ATOM     13  C   UNL     1      28.540 -21.962 -15.174  0.00  0.00    +0.013 C 
ATOM     14  C   UNL     1      29.904 -22.431 -17.229  0.00  0.00    +0.013 C 
BRANCH  10  16
ATOM     15  OXT UNL     1      27.713 -24.890 -16.150  0.00  0.00    -0.248 OA
ATOM     16  C   UNL     1      28.574 -24.885 -15.283  0.00  0.00    +0.333 C 
BRANCH  16  17
ATOM     17  O   UNL     1      28.468 -25.535 -14.098  0.00  0.00    -0.479 OA
ATOM     18  H   UNL     1      29.218 -25.959 -13.729  0.00  0.00    +0.295 HD
ENDBRANCH  16  17
ENDBRANCH  10  16
ENDBRANCH   2  11
BRANCH   3  19
ATOM     19  CA  UNL     1      36.019 -23.458 -13.972  0.00  0.00    +0.173 C 
BRANCH  19  22
ATOM     20  O   UNL     1      37.485 -21.999 -15.928  0.00  0.00    -0.252 OA
ATOM     21  O   UNL     1      33.589 -23.239 -17.341  0.00  0.00    -0.252 OA
ATOM     22  N   UNL     1      35.568 -23.128 -15.305  0.00  0.00    -0.279 N 
ATOM     23  N   UNL     1      35.735 -22.191 -17.452  0.00  0.00    -0.197 N 
ATOM     24  N   UNL     1      34.322 -22.095 -19.243  0.00  0.00    -0.287 N 
ATOM     25  C   UNL     1      36.353 -22.408 -16.198  0.00  0.00    +0.312 C 
ATOM     26  C   UNL     1      36.464 -21.530 -18.523  0.00  0.00    +0.125 C 
ATOM     27  C   UNL     1      35.444 -21.280 -19.613  0.00  0.00    +0.113 C 
ATOM     28  C   UNL     1      34.441 -22.590 -17.934  0.00  0.00    +0.311 C 
ATOM     29  H   UNL     1      34.673 -23.422 -15.590  0.00  0.00    +0.152 HD
ATOM     30  H   UNL     1      33.558 -22.283 -19.836  0.00  0.00    +0.151 HD
ENDBRANCH  19  22
BRANCH  19  31
ATOM     31  C   UNL     1      37.166 -24.439 -13.993  0.00  0.00    +0.004 C 
ATOM     32  C   UNL     1      37.096 -25.577 -14.797  0.00  0.00    -0.002 C 
ATOM     33  C   UNL     1      38.297 -24.210 -13.209  0.00  0.00    -0.002 C 
ATOM     34  C   UNL     1      38.156 -26.484 -14.817  0.00  0.00    -0.000 C 
ATOM     35  C   UNL     1      39.356 -25.116 -13.229  0.00  0.00    -0.000 C 
ATOM     36  C   UNL     1      39.286 -26.253 -14.033  0.00  0.00    -0.000 C 
ENDBRANCH  19  31
ENDBRANCH   3  19
TORSDOF 6
ENDMDL
MODEL 8
REMARK VINA RESULT:      -7.7      1.460      2.106
REMARK  Name = 6479523
REMARK  6 active torsions:
REMARK  status: ('A' for Active; 'I' for Inactive)
REMARK    1  A    between atoms: N_2  and  CA_11
REMARK    2  A    between atoms: C_3  and  CA_19
REMARK    3  A    between atoms: CA_10  and  C_16
REMARK    4  A    between atoms: C_16  and  O_17
REMARK    5  A    between atoms: CA_19  and  N_22
REMARK    6  A    between atoms: CA_19  and  C_31
REMARK                            x       y       z     vdW  Elec       q    Type
REMARK                         _______ _______ _______ _____ _____    ______ ____
ROOT
ATOM      1  O   UNL     1      36.470 -21.278 -17.841  0.00  0.00    -0.273 OA
ATOM      2  N   UNL     1      35.616 -22.788 -16.300  0.00  0.00    -0.295 N 
ATOM      3  C   UNL     1      35.622 -22.108 -17.520  0.00  0.00    +0.245 C 
ATOM      4  H   UNL     1      34.897 -23.438 -16.126  0.00  0.00    +0.150 HD
ENDROOT
BRANCH   2  11
ATOM      5  S   UNL     1      35.742 -25.131 -14.304  0.00  0.00    -0.118 S 
ATOM      6  O   UNL     1      38.802 -22.913 -16.568  0.00  0.00    -0.273 OA
ATOM      7  N   UNL     1      38.035 -23.952 -14.593  0.00  0.00    -0.260 N 
ATOM      8  C   UNL     1      36.700 -23.584 -14.111  0.00  0.00    +0.151 C 
ATOM      9  C   UNL     1      37.264 -26.157 -13.987  0.00  0.00    +0.068 C 
ATOM     10  CA  UNL     1      38.394 -25.354 -14.665  0.00  0.00    +0.184 C 
ATOM     11  CA  UNL     1      36.630 -22.579 -15.270  0.00  0.00    +0.178 C 
ATOM     12  C   UNL     1      38.037 -23.083 -15.647  0.00  0.00    +0.247 C 
ATOM     13  C   UNL     1      37.418 -26.315 -12.468  0.00  0.00    +0.013 C 
ATOM     14  C   UNL     1      37.084 -27.529 -14.640  0.00  0.00    +0.013 C 
BRANCH  10  16
ATOM     15  OXT UNL     1      40.243 -24.700 -13.257  0.00  0.00    -0.248 OA
ATOM     16  C   UNL     1      39.745 -25.496 -14.040  0.00  0.00    +0.333 C 
BRANCH  16  17
ATOM     17  O   UNL     1      40.350 -26.634 -14.460  0.00  0.00    -0.479 OA
ATOM     18  H   UNL     1      40.174 -26.968 -15.317  0.00  0.00    +0.295 HD
ENDBRANCH  16  17
ENDBRANCH  10  16
ENDBRANCH   2  11
BRANCH   3  19
ATOM     19  CA  UNL     1      34.431 -22.466 -18.400  0.00  0.00    +0.173 C 
BRANCH  19  22
ATOM     20  O   UNL     1      36.189 -21.674 -20.495  0.00  0.00    -0.252 OA
ATOM     21  O   UNL     1      32.610 -19.251 -20.310  0.00  0.00    -0.252 OA
ATOM     22  N   UNL     1      34.216 -21.381 -19.329  0.00  0.00    -0.279 N 
ATOM     23  N   UNL     1      34.736 -19.971 -21.134  0.00  0.00    -0.197 N 
ATOM     24  N   UNL     1      33.677 -18.194 -22.101  0.00  0.00    -0.287 N 
ATOM     25  C   UNL     1      35.131 -21.062 -20.326  0.00  0.00    +0.312 C 
ATOM     26  C   UNL     1      35.546 -19.573 -22.274  0.00  0.00    +0.125 C 
ATOM     27  C   UNL     1      34.949 -18.269 -22.760  0.00  0.00    +0.113 C 
ATOM     28  C   UNL     1      33.555 -19.152 -21.082  0.00  0.00    +0.311 C 
ATOM     29  H   UNL     1      33.392 -20.847 -19.254  0.00  0.00    +0.152 HD
ATOM     30  H   UNL     1      32.972 -17.546 -22.335  0.00  0.00    +0.151 HD
ENDBRANCH  19  22
BRANCH  19  31
ATOM     31  C   UNL     1      33.196 -22.759 -17.582  0.00  0.00    +0.004 C 
ATOM     32  C   UNL     1      31.981 -22.158 -17.913  0.00  0.00    -0.002 C 
ATOM     33  C   UNL     1      33.268 -23.631 -16.495  0.00  0.00    -0.002 C 
ATOM     34  C   UNL     1      30.840 -22.428 -17.157  0.00  0.00    -0.000 C 
ATOM     35  C   UNL     1      32.128 -23.901 -15.740  0.00  0.00    -0.000 C 
ATOM     36  C   UNL     1      30.913 -23.300 -16.071  0.00  0.00    -0.000 C 
ENDBRANCH  19  31
ENDBRANCH   3  19
TORSDOF 6
ENDMDL
MODEL 9
REMARK VINA RESULT:      -7.5      1.958      2.730
REMARK  Name = 6479523
REMARK  6 active torsions:
REMARK  status: ('A' for Active; 'I' for Inactive)
REMARK    1  A    between atoms: N_2  and  CA_11
REMARK    2  A    between atoms: C_3  and  CA_19
REMARK    3  A    between atoms: CA_10  and  C_16
REMARK    4  A    between atoms: C_16  and  O_17
REMARK    5  A    between atoms: CA_19  and  N_22
REMARK    6  A    between atoms: CA_19  and  C_31
REMARK                            x       y       z     vdW  Elec       q    Type
REMARK                         _______ _______ _______ _____ _____    ______ ____
ROOT
ATOM      1  O   UNL     1      32.884 -22.580 -14.777  0.00  0.00    -0.273 OA
ATOM      2  N   UNL     1      32.724 -24.892 -14.873  0.00  0.00    -0.295 N 
ATOM      3  C   UNL     1      32.482 -23.597 -15.337  0.00  0.00    +0.245 C 
ATOM      4  H   UNL     1      32.364 -25.651 -15.386  0.00  0.00    +0.150 HD
ENDROOT
BRANCH   2  11
ATOM      5  S   UNL     1      35.754 -25.011 -15.416  0.00  0.00    -0.118 S 
ATOM      6  O   UNL     1      33.299 -22.972 -12.379  0.00  0.00    -0.273 OA
ATOM      7  N   UNL     1      35.210 -24.204 -13.012  0.00  0.00    -0.260 N 
ATOM      8  C   UNL     1      34.998 -25.421 -13.801  0.00  0.00    +0.151 C 
ATOM      9  C   UNL     1      37.011 -23.911 -14.591  0.00  0.00    +0.068 C 
ATOM     10  CA  UNL     1      36.222 -23.258 -13.436  0.00  0.00    +0.184 C 
ATOM     11  CA  UNL     1      33.490 -25.171 -13.661  0.00  0.00    +0.178 C 
ATOM     12  C   UNL     1      33.884 -23.920 -12.852  0.00  0.00    +0.247 C 
ATOM     13  C   UNL     1      38.186 -24.791 -14.143  0.00  0.00    +0.013 C 
ATOM     14  C   UNL     1      37.494 -22.865 -15.598  0.00  0.00    +0.013 C 
BRANCH  10  16
ATOM     15  OXT UNL     1      37.872 -22.022 -12.180  0.00  0.00    -0.248 OA
ATOM     16  C   UNL     1      37.030 -22.906 -12.228  0.00  0.00    +0.333 C 
BRANCH  16  17
ATOM     17  O   UNL     1      36.702 -23.704 -11.183  0.00  0.00    -0.479 OA
ATOM     18  H   UNL     1      35.858 -24.110 -11.151  0.00  0.00    +0.295 HD
ENDBRANCH  16  17
ENDBRANCH  10  16
ENDBRANCH   2  11
BRANCH   3  19
ATOM     19  CA  UNL     1      31.619 -23.572 -16.592  0.00  0.00    +0.173 C 
BRANCH  19  22
ATOM     20  O   UNL     1      34.279 -23.844 -17.569  0.00  0.00    -0.252 OA
ATOM     21  O   UNL     1      32.185 -20.496 -19.334  0.00  0.00    -0.252 OA
ATOM     22  N   UNL     1      32.262 -22.718 -17.564  0.00  0.00    -0.279 N 
ATOM     23  N   UNL     1      34.015 -21.984 -18.943  0.00  0.00    -0.197 N 
ATOM     24  N   UNL     1      34.246 -20.248 -20.408  0.00  0.00    -0.287 N 
ATOM     25  C   UNL     1      33.570 -22.925 -17.986  0.00  0.00    +0.312 C 
ATOM     26  C   UNL     1      35.332 -22.120 -19.546  0.00  0.00    +0.125 C 
ATOM     27  C   UNL     1      35.548 -20.847 -20.338  0.00  0.00    +0.113 C 
ATOM     28  C   UNL     1      33.335 -20.863 -19.534  0.00  0.00    +0.311 C 
ATOM     29  H   UNL     1      31.756 -21.962 -17.940  0.00  0.00    +0.152 HD
ATOM     30  H   UNL     1      34.018 -19.493 -20.999  0.00  0.00    +0.151 HD
ENDBRANCH  19  22
BRANCH  19  31
ATOM     31  C   UNL     1      30.208 -23.122 -16.294  0.00  0.00    +0.004 C 
ATOM     32  C   UNL     1      29.206 -23.287 -17.251  0.00  0.00    -0.002 C 
ATOM     33  C   UNL     1      29.906 -22.539 -15.063  0.00  0.00    -0.002 C 
ATOM     34  C   UNL     1      27.903 -22.872 -16.975  0.00  0.00    -0.000 C 
ATOM     35  C   UNL     1      28.604 -22.124 -14.788  0.00  0.00    -0.000 C 
ATOM     36  C   UNL     1      27.602 -22.290 -15.744  0.00  0.00    -0.000 C 
ENDBRANCH  19  31
ENDBRANCH   3  19
TORSDOF 6
ENDMDL
