MODEL 1
REMARK VINA RESULT:     -10.6      0.000      0.000
REMARK  Name = 447076
REMARK  8 active torsions:
REMARK  status: ('A' for Active; 'I' for Inactive)
REMARK    1  A    between atoms: N_3  and  C_14
REMARK    2  A    between atoms: N_4  and  C_30
REMARK    3  A    between atoms: C_10  and  C_18
REMARK    4  A    between atoms: C_14  and  C_15
REMARK    5  A    between atoms: C_15  and  C_16
REMARK    6  A    between atoms: C_18  and  C_19
REMARK    7  A    between atoms: C_24  and  N_26
REMARK    8  A    between atoms: C_30  and  C_31
REMARK                            x       y       z     vdW  Elec       q    Type
REMARK                         _______ _______ _______ _____ _____    ______ ____
ROOT
ATOM      1  O   UNL     1      32.969 -23.769 -13.167  0.00  0.00    -0.246 OA
ATOM      2  O   UNL     1      30.331 -22.749 -16.914  0.00  0.00    -0.265 OA
ATOM      3  N   UNL     1      34.043 -23.360 -15.190  0.00  0.00    -0.269 N 
ATOM      4  N   UNL     1      31.629 -23.263 -15.021  0.00  0.00    -0.243 N 
ATOM      5  N   UNL     1      32.909 -22.550 -18.404  0.00  0.00    -0.313 N 
ATOM      6  N   UNL     1      34.896 -22.884 -17.450  0.00  0.00    -0.304 N 
ATOM      7  C   UNL     1      33.891 -23.040 -16.533  0.00  0.00    +0.132 A 
ATOM      8  C   UNL     1      32.659 -22.841 -17.094  0.00  0.00    +0.133 A 
ATOM      9  C   UNL     1      32.895 -23.486 -14.369  0.00  0.00    +0.335 A 
ATOM     10  C   UNL     1      34.270 -22.589 -18.569  0.00  0.00    +0.149 C 
ATOM     11  C   UNL     1      31.424 -22.935 -16.387  0.00  0.00    +0.280 A 
ATOM     12  H   UNL     1      32.240 -22.351 -19.098  0.00  0.00    +0.148 HD
ATOM     13  H   UNL     1      35.866 -22.972 -17.304  0.00  0.00    +0.150 HD
ENDROOT
BRANCH   3  14
ATOM     14  C   UNL     1      35.377 -23.564 -14.639  0.00  0.00    +0.112 C 
BRANCH  14  15
ATOM     15  C   UNL     1      35.861 -25.000 -14.799  0.00  0.00    +0.025 C 
BRANCH  15  16
ATOM     16  C   UNL     1      37.365 -25.146 -14.560  0.00  0.00    +0.002 C 
ATOM     17  C   UNL     1      37.655 -25.782 -13.209  0.00  0.00    +0.000 C 
ENDBRANCH  15  16
ENDBRANCH  14  15
ENDBRANCH   3  14
BRANCH  10  18
ATOM     18  C   UNL     1      34.889 -22.318 -19.881  0.00  0.00    +0.067 C 
BRANCH  18  19
ATOM     19  C   UNL     1      34.720 -20.882 -20.361  0.00  0.00    -0.019 C 
ATOM     20  C   UNL     1      35.846 -20.129 -20.617  0.00  0.00    -0.003 C 
ATOM     21  C   UNL     1      33.446 -20.381 -20.526  0.00  0.00    -0.003 C 
ATOM     22  C   UNL     1      35.691 -18.814 -21.058  0.00  0.00    +0.014 C 
ATOM     23  C   UNL     1      33.291 -19.067 -20.967  0.00  0.00    +0.014 C 
ATOM     24  C   UNL     1      34.413 -18.283 -21.233  0.00  0.00    +0.050 C 
BRANCH  24  26
ATOM     25  O   UNL     1      34.986 -15.675 -19.844  0.00  0.00    -0.275 OA
ATOM     26  N   UNL     1      34.258 -16.969 -21.674  0.00  0.00    -0.284 N 
ATOM     27  C   UNL     1      34.541 -15.784 -20.981  0.00  0.00    +0.227 C 
ATOM     28  C   UNL     1      34.233 -14.564 -21.811  0.00  0.00    +0.095 C 
ATOM     29  H   UNL     1      33.906 -16.860 -22.588  0.00  0.00    +0.155 HD
ENDBRANCH  24  26
ENDBRANCH  18  19
ENDBRANCH  10  18
BRANCH   4  30
ATOM     30  C   UNL     1      30.436 -23.387 -14.190  0.00  0.00    +0.140 C 
BRANCH  30  31
ATOM     31  C   UNL     1      29.975 -24.807 -14.207  0.00  0.00    -0.002 C 
ATOM     32  C   UNL     1      28.903 -25.235 -14.883  0.00  0.00    -0.003 C 
ENDBRANCH  30  31
ENDBRANCH   4  30
TORSDOF 8
ENDMDL
MODEL 2
REMARK VINA RESULT:     -10.6      6.108     13.021
REMARK  Name = 447076
REMARK  8 active torsions:
REMARK  status: ('A' for Active; 'I' for Inactive)
REMARK    1  A    between atoms: N_3  and  C_14
REMARK    2  A    between atoms: N_4  and  C_30
REMARK    3  A    between atoms: C_10  and  C_18
REMARK    4  A    between atoms: C_14  and  C_15
REMARK    5  A    between atoms: C_15  and  C_16
REMARK    6  A    between atoms: C_18  and  C_19
REMARK    7  A    between atoms: C_24  and  N_26
REMARK    8  A    between atoms: C_30  and  C_31
REMARK                            x       y       z     vdW  Elec       q    Type
REMARK                         _______ _______ _______ _____ _____    ______ ____
ROOT
ATOM      1  O   UNL     1      32.017  -8.526 -21.732  0.00  0.00    -0.246 OA
ATOM      2  O   UNL     1      35.449  -9.687 -24.718  0.00  0.00    -0.265 OA
ATOM      3  N   UNL     1      32.078 -10.705 -22.545  0.00  0.00    -0.269 N 
ATOM      4  N   UNL     1      33.739  -9.078 -23.220  0.00  0.00    -0.243 N 
ATOM      5  N   UNL     1      34.210 -12.401 -24.746  0.00  0.00    -0.313 N 
ATOM      6  N   UNL     1      32.393 -12.924 -23.563  0.00  0.00    -0.304 N 
ATOM      7  C   UNL     1      32.738 -11.614 -23.361  0.00  0.00    +0.132 A 
ATOM      8  C   UNL     1      33.851 -11.267 -24.077  0.00  0.00    +0.133 A 
ATOM      9  C   UNL     1      32.563  -9.378 -22.443  0.00  0.00    +0.335 A 
ATOM     10  C   UNL     1      33.302 -13.371 -24.405  0.00  0.00    +0.149 C 
ATOM     11  C   UNL     1      34.447  -9.971 -24.067  0.00  0.00    +0.280 A 
ATOM     12  H   UNL     1      34.975 -12.504 -25.357  0.00  0.00    +0.148 HD
ATOM     13  H   UNL     1      31.638 -13.418 -23.170  0.00  0.00    +0.150 HD
ENDROOT
BRANCH   3  14
ATOM     14  C   UNL     1      30.894 -11.122 -21.802  0.00  0.00    +0.112 C 
BRANCH  14  15
ATOM     15  C   UNL     1      31.239 -11.718 -20.442  0.00  0.00    +0.025 C 
BRANCH  15  16
ATOM     16  C   UNL     1      30.956 -10.754 -19.288  0.00  0.00    +0.002 C 
ATOM     17  C   UNL     1      32.232 -10.097 -18.785  0.00  0.00    +0.000 C 
ENDBRANCH  15  16
ENDBRANCH  14  15
ENDBRANCH   3  14
BRANCH  10  18
ATOM     18  C   UNL     1      33.397 -14.736 -24.955  0.00  0.00    +0.067 C 
BRANCH  18  19
ATOM     19  C   UNL     1      34.096 -15.729 -24.034  0.00  0.00    -0.019 C 
ATOM     20  C   UNL     1      34.265 -15.398 -22.706  0.00  0.00    -0.003 C 
ATOM     21  C   UNL     1      34.535 -16.926 -24.557  0.00  0.00    -0.003 C 
ATOM     22  C   UNL     1      34.904 -16.307 -21.863  0.00  0.00    +0.014 C 
ATOM     23  C   UNL     1      35.174 -17.836 -23.714  0.00  0.00    +0.014 C 
ATOM     24  C   UNL     1      35.358 -17.526 -22.367  0.00  0.00    +0.050 C 
BRANCH  24  26
ATOM     25  O   UNL     1      34.339 -20.052 -21.083  0.00  0.00    -0.275 OA
ATOM     26  N   UNL     1      35.997 -18.435 -21.523  0.00  0.00    -0.284 N 
ATOM     27  C   UNL     1      35.471 -19.601 -20.949  0.00  0.00    +0.227 C 
ATOM     28  C   UNL     1      36.489 -20.311 -20.094  0.00  0.00    +0.095 C 
ATOM     29  H   UNL     1      36.935 -18.232 -21.303  0.00  0.00    +0.155 HD
ENDBRANCH  24  26
ENDBRANCH  18  19
ENDBRANCH  10  18
BRANCH   4  30
ATOM     30  C   UNL     1      34.255  -7.717 -23.126  0.00  0.00    +0.140 C 
BRANCH  30  31
ATOM     31  C   UNL     1      33.655  -6.891 -24.216  0.00  0.00    -0.002 C 
ATOM     32  C   UNL     1      34.359  -6.349 -25.216  0.00  0.00    -0.003 C 
ENDBRANCH  30  31
ENDBRANCH   4  30
TORSDOF 8
ENDMDL
MODEL 3
REMARK VINA RESULT:     -10.4      3.102     10.810
REMARK  Name = 447076
REMARK  8 active torsions:
REMARK  status: ('A' for Active; 'I' for Inactive)
REMARK    1  A    between atoms: N_3  and  C_14
REMARK    2  A    between atoms: N_4  and  C_30
REMARK    3  A    between atoms: C_10  and  C_18
REMARK    4  A    between atoms: C_14  and  C_15
REMARK    5  A    between atoms: C_15  and  C_16
REMARK    6  A    between atoms: C_18  and  C_19
REMARK    7  A    between atoms: C_24  and  N_26
REMARK    8  A    between atoms: C_30  and  C_31
REMARK                            x       y       z     vdW  Elec       q    Type
REMARK                         _______ _______ _______ _____ _____    ______ ____
ROOT
ATOM      1  O   UNL     1      32.566 -12.756 -23.645  0.00  0.00    -0.246 OA
ATOM      2  O   UNL     1      33.862 -16.425 -26.271  0.00  0.00    -0.265 OA
ATOM      3  N   UNL     1      33.752 -14.476 -22.622  0.00  0.00    -0.269 N 
ATOM      4  N   UNL     1      33.199 -14.574 -24.978  0.00  0.00    -0.243 N 
ATOM      5  N   UNL     1      35.083 -17.505 -23.772  0.00  0.00    -0.313 N 
ATOM      6  N   UNL     1      35.010 -16.433 -21.818  0.00  0.00    -0.304 N 
ATOM      7  C   UNL     1      34.371 -15.708 -22.788  0.00  0.00    +0.132 A 
ATOM      8  C   UNL     1      34.401 -16.345 -23.999  0.00  0.00    +0.133 A 
ATOM      9  C   UNL     1      33.131 -13.852 -23.733  0.00  0.00    +0.335 A 
ATOM     10  C   UNL     1      35.428 -17.513 -22.445  0.00  0.00    +0.149 C 
ATOM     11  C   UNL     1      33.819 -15.833 -25.197  0.00  0.00    +0.280 A 
ATOM     12  H   UNL     1      35.288 -18.204 -24.434  0.00  0.00    +0.148 HD
ATOM     13  H   UNL     1      35.129 -16.200 -20.869  0.00  0.00    +0.150 HD
ENDROOT
BRANCH   3  14
ATOM     14  C   UNL     1      33.746 -13.836 -21.312  0.00  0.00    +0.112 C 
BRANCH  14  15
ATOM     15  C   UNL     1      32.350 -13.771 -20.703  0.00  0.00    +0.025 C 
BRANCH  15  16
ATOM     16  C   UNL     1      32.050 -12.413 -20.063  0.00  0.00    +0.002 C 
ATOM     17  C   UNL     1      31.136 -11.574 -20.941  0.00  0.00    +0.000 C 
ENDBRANCH  15  16
ENDBRANCH  14  15
ENDBRANCH   3  14
BRANCH  10  18
ATOM     18  C   UNL     1      36.184 -18.635 -21.857  0.00  0.00    +0.067 C 
BRANCH  18  19
ATOM     19  C   UNL     1      35.335 -19.583 -21.018  0.00  0.00    -0.019 C 
ATOM     20  C   UNL     1      35.965 -20.562 -20.278  0.00  0.00    -0.003 C 
ATOM     21  C   UNL     1      33.965 -19.431 -21.023  0.00  0.00    -0.003 C 
ATOM     22  C   UNL     1      35.188 -21.428 -19.509  0.00  0.00    +0.014 C 
ATOM     23  C   UNL     1      33.188 -20.297 -20.254  0.00  0.00    +0.014 C 
ATOM     24  C   UNL     1      33.800 -21.296 -19.498  0.00  0.00    +0.050 C 
BRANCH  24  26
ATOM     25  O   UNL     1      34.532 -22.988 -17.117  0.00  0.00    -0.275 OA
ATOM     26  N   UNL     1      33.023 -22.163 -18.729  0.00  0.00    -0.284 N 
ATOM     27  C   UNL     1      33.418 -22.932 -17.625  0.00  0.00    +0.227 C 
ATOM     28  C   UNL     1      32.274 -23.742 -17.070  0.00  0.00    +0.095 C 
ATOM     29  H   UNL     1      32.078 -22.245 -18.995  0.00  0.00    +0.155 HD
ENDBRANCH  24  26
ENDBRANCH  18  19
ENDBRANCH  10  18
BRANCH   4  30
ATOM     30  C   UNL     1      32.567 -13.947 -26.133  0.00  0.00    +0.140 C 
BRANCH  30  31
ATOM     31  C   UNL     1      33.603 -13.205 -26.913  0.00  0.00    -0.002 C 
ATOM     32  C   UNL     1      34.055 -11.990 -26.586  0.00  0.00    -0.003 C 
ENDBRANCH  30  31
ENDBRANCH   4  30
TORSDOF 8
ENDMDL
MODEL 4
REMARK VINA RESULT:     -10.3      1.954      4.287
REMARK  Name = 447076
REMARK  8 active torsions:
REMARK  status: ('A' for Active; 'I' for Inactive)
REMARK    1  A    between atoms: N_3  and  C_14
REMARK    2  A    between atoms: N_4  and  C_30
REMARK    3  A    between atoms: C_10  and  C_18
REMARK    4  A    between atoms: C_14  and  C_15
REMARK    5  A    between atoms: C_15  and  C_16
REMARK    6  A    between atoms: C_18  and  C_19
REMARK    7  A    between atoms: C_24  and  N_26
REMARK    8  A    between atoms: C_30  and  C_31
REMARK                            x       y       z     vdW  Elec       q    Type
REMARK                         _______ _______ _______ _____ _____    ______ ____
ROOT
ATOM      1  O   UNL     1      34.509 -23.992 -12.289  0.00  0.00    -0.246 OA
ATOM      2  O   UNL     1      37.598 -22.430 -15.461  0.00  0.00    -0.265 OA
ATOM      3  N   UNL     1      33.809 -23.787 -14.498  0.00  0.00    -0.269 N 
ATOM      4  N   UNL     1      36.069 -23.210 -13.851  0.00  0.00    -0.243 N 
ATOM      5  N   UNL     1      35.387 -22.734 -17.443  0.00  0.00    -0.313 N 
ATOM      6  N   UNL     1      33.354 -23.469 -16.897  0.00  0.00    -0.304 N 
ATOM      7  C   UNL     1      34.163 -23.430 -15.792  0.00  0.00    +0.132 A 
ATOM      8  C   UNL     1      35.418 -22.981 -16.100  0.00  0.00    +0.133 A 
ATOM      9  C   UNL     1      34.767 -23.688 -13.460  0.00  0.00    +0.335 A 
ATOM     10  C   UNL     1      34.124 -23.043 -17.876  0.00  0.00    +0.149 C 
ATOM     11  C   UNL     1      36.479 -22.833 -15.157  0.00  0.00    +0.280 A 
ATOM     12  H   UNL     1      36.130 -22.398 -17.994  0.00  0.00    +0.148 HD
ATOM     13  H   UNL     1      32.412 -23.752 -16.946  0.00  0.00    +0.150 HD
ENDROOT
BRANCH   3  14
ATOM     14  C   UNL     1      32.457 -24.259 -14.219  0.00  0.00    +0.112 C 
BRANCH  14  15
ATOM     15  C   UNL     1      31.510 -23.125 -13.845  0.00  0.00    +0.025 C 
BRANCH  15  16
ATOM     16  C   UNL     1      30.400 -22.919 -14.878  0.00  0.00    +0.002 C 
ATOM     17  C   UNL     1      29.610 -24.198 -15.107  0.00  0.00    +0.000 C 
ENDBRANCH  15  16
ENDBRANCH  14  15
ENDBRANCH   3  14
BRANCH  10  18
ATOM     18  C   UNL     1      33.743 -22.892 -19.294  0.00  0.00    +0.067 C 
BRANCH  18  19
ATOM     19  C   UNL     1      33.997 -21.500 -19.859  0.00  0.00    -0.019 C 
ATOM     20  C   UNL     1      35.296 -21.110 -20.107  0.00  0.00    -0.003 C 
ATOM     21  C   UNL     1      32.920 -20.675 -20.106  0.00  0.00    -0.003 C 
ATOM     22  C   UNL     1      35.529 -19.836 -20.625  0.00  0.00    +0.014 C 
ATOM     23  C   UNL     1      33.153 -19.401 -20.624  0.00  0.00    +0.014 C 
ATOM     24  C   UNL     1      34.457 -18.981 -20.884  0.00  0.00    +0.050 C 
BRANCH  24  26
ATOM     25  O   UNL     1      34.633 -18.033 -23.736  0.00  0.00    -0.275 OA
ATOM     26  N   UNL     1      34.689 -17.707 -21.402  0.00  0.00    -0.284 N 
ATOM     27  C   UNL     1      34.763 -17.320 -22.747  0.00  0.00    +0.227 C 
ATOM     28  C   UNL     1      35.032 -15.843 -22.889  0.00  0.00    +0.095 C 
ATOM     29  H   UNL     1      34.818 -16.990 -20.739  0.00  0.00    +0.155 HD
ENDBRANCH  24  26
ENDBRANCH  18  19
ENDBRANCH  10  18
BRANCH   4  30
ATOM     30  C   UNL     1      37.071 -23.104 -12.795  0.00  0.00    +0.140 C 
BRANCH  30  31
ATOM     31  C   UNL     1      37.651 -24.455 -12.534  0.00  0.00    -0.002 C 
ATOM     32  C   UNL     1      38.685 -24.966 -13.211  0.00  0.00    -0.003 C 
ENDBRANCH  30  31
ENDBRANCH   4  30
TORSDOF 8
ENDMDL
MODEL 5
REMARK VINA RESULT:     -10.2      7.057     11.918
REMARK  Name = 447076
REMARK  8 active torsions:
REMARK  status: ('A' for Active; 'I' for Inactive)
REMARK    1  A    between atoms: N_3  and  C_14
REMARK    2  A    between atoms: N_4  and  C_30
REMARK    3  A    between atoms: C_10  and  C_18
REMARK    4  A    between atoms: C_14  and  C_15
REMARK    5  A    between atoms: C_15  and  C_16
REMARK    6  A    between atoms: C_18  and  C_19
REMARK    7  A    between atoms: C_24  and  N_26
REMARK    8  A    between atoms: C_30  and  C_31
REMARK                            x       y       z     vdW  Elec       q    Type
REMARK                         _______ _______ _______ _____ _____    ______ ____
ROOT
ATOM      1  O   UNL     1      34.613 -16.473 -24.974  0.00  0.00    -0.246 OA
ATOM      2  O   UNL     1      34.841 -16.098 -20.300  0.00  0.00    -0.265 OA
ATOM      3  N   UNL     1      33.368 -14.799 -23.942  0.00  0.00    -0.269 N 
ATOM      4  N   UNL     1      34.744 -16.309 -22.641  0.00  0.00    -0.243 N 
ATOM      5  N   UNL     1      32.945 -13.815 -20.607  0.00  0.00    -0.313 N 
ATOM      6  N   UNL     1      32.167 -13.135 -22.583  0.00  0.00    -0.304 N 
ATOM      7  C   UNL     1      33.015 -14.198 -22.741  0.00  0.00    +0.132 A 
ATOM      8  C   UNL     1      33.507 -14.636 -21.542  0.00  0.00    +0.133 A 
ATOM      9  C   UNL     1      34.263 -15.898 -23.936  0.00  0.00    +0.335 A 
ATOM     10  C   UNL     1      32.147 -12.929 -21.283  0.00  0.00    +0.149 C 
ATOM     11  C   UNL     1      34.413 -15.727 -21.389  0.00  0.00    +0.280 A 
ATOM     12  H   UNL     1      33.086 -13.852 -19.634  0.00  0.00    +0.148 HD
ATOM     13  H   UNL     1      31.684 -12.638 -23.283  0.00  0.00    +0.150 HD
ENDROOT
BRANCH   3  14
ATOM     14  C   UNL     1      32.817 -14.297 -25.195  0.00  0.00    +0.112 C 
BRANCH  14  15
ATOM     15  C   UNL     1      33.797 -13.404 -25.946  0.00  0.00    +0.025 C 
BRANCH  15  16
ATOM     16  C   UNL     1      33.421 -11.922 -25.870  0.00  0.00    +0.002 C 
ATOM     17  C   UNL     1      34.196 -11.208 -24.774  0.00  0.00    +0.000 C 
ENDBRANCH  15  16
ENDBRANCH  14  15
ENDBRANCH   3  14
BRANCH  10  18
ATOM     18  C   UNL     1      31.383 -11.888 -20.568  0.00  0.00    +0.067 C 
BRANCH  18  19
ATOM     19  C   UNL     1      31.545 -10.490 -21.151  0.00  0.00    -0.019 C 
ATOM     20  C   UNL     1      31.953  -9.467 -20.321  0.00  0.00    -0.003 C 
ATOM     21  C   UNL     1      31.280 -10.291 -22.489  0.00  0.00    -0.003 C 
ATOM     22  C   UNL     1      32.102  -8.186 -20.854  0.00  0.00    +0.014 C 
ATOM     23  C   UNL     1      31.429  -9.011 -23.022  0.00  0.00    +0.014 C 
ATOM     24  C   UNL     1      31.840  -7.958 -22.205  0.00  0.00    +0.050 C 
BRANCH  24  26
ATOM     25  O   UNL     1      30.029  -5.558 -22.062  0.00  0.00    -0.275 OA
ATOM     26  N   UNL     1      31.989  -6.678 -22.739  0.00  0.00    -0.284 N 
ATOM     27  C   UNL     1      31.108  -5.592 -22.642  0.00  0.00    +0.227 C 
ATOM     28  C   UNL     1      31.638  -4.377 -23.361  0.00  0.00    +0.095 C 
ATOM     29  H   UNL     1      32.817  -6.517 -23.247  0.00  0.00    +0.155 HD
ENDBRANCH  24  26
ENDBRANCH  18  19
ENDBRANCH  10  18
BRANCH   4  30
ATOM     30  C   UNL     1      35.668 -17.437 -22.615  0.00  0.00    +0.140 C 
BRANCH  30  31
ATOM     31  C   UNL     1      34.887 -18.709 -22.660  0.00  0.00    -0.002 C 
ATOM     32  C   UNL     1      34.492 -19.380 -21.572  0.00  0.00    -0.003 C 
ENDBRANCH  30  31
ENDBRANCH   4  30
TORSDOF 8
ENDMDL
MODEL 6
REMARK VINA RESULT:     -10.0      4.475     11.790
REMARK  Name = 447076
REMARK  8 active torsions:
REMARK  status: ('A' for Active; 'I' for Inactive)
REMARK    1  A    between atoms: N_3  and  C_14
REMARK    2  A    between atoms: N_4  and  C_30
REMARK    3  A    between atoms: C_10  and  C_18
REMARK    4  A    between atoms: C_14  and  C_15
REMARK    5  A    between atoms: C_15  and  C_16
REMARK    6  A    between atoms: C_18  and  C_19
REMARK    7  A    between atoms: C_24  and  N_26
REMARK    8  A    between atoms: C_30  and  C_31
REMARK                            x       y       z     vdW  Elec       q    Type
REMARK                         _______ _______ _______ _____ _____    ______ ____
ROOT
ATOM      1  O   UNL     1      31.867  -9.740 -22.745  0.00  0.00    -0.246 OA
ATOM      2  O   UNL     1      31.690 -13.815 -20.421  0.00  0.00    -0.265 OA
ATOM      3  N   UNL     1      33.096 -11.533 -23.574  0.00  0.00    -0.269 N 
ATOM      4  N   UNL     1      31.761 -11.761 -21.566  0.00  0.00    -0.243 N 
ATOM      5  N   UNL     1      33.544 -14.844 -22.521  0.00  0.00    -0.313 N 
ATOM      6  N   UNL     1      34.285 -13.592 -24.211  0.00  0.00    -0.304 N 
ATOM      7  C   UNL     1      33.454 -12.864 -23.403  0.00  0.00    +0.132 A 
ATOM      8  C   UNL     1      32.984 -13.610 -22.356  0.00  0.00    +0.133 A 
ATOM      9  C   UNL     1      32.220 -10.921 -22.643  0.00  0.00    +0.335 A 
ATOM     10  C   UNL     1      34.319 -14.783 -23.651  0.00  0.00    +0.149 C 
ATOM     11  C   UNL     1      32.098 -13.123 -21.349  0.00  0.00    +0.280 A 
ATOM     12  H   UNL     1      33.416 -15.628 -21.940  0.00  0.00    +0.148 HD
ATOM     13  H   UNL     1      34.752 -13.293 -25.024  0.00  0.00    +0.150 HD
ENDROOT
BRANCH   3  14
ATOM     14  C   UNL     1      33.623 -10.779 -24.705  0.00  0.00    +0.112 C 
BRANCH  14  15
ATOM     15  C   UNL     1      34.884 -10.001 -24.349  0.00  0.00    +0.025 C 
BRANCH  15  16
ATOM     16  C   UNL     1      34.725  -8.493 -24.557  0.00  0.00    +0.002 C 
ATOM     17  C   UNL     1      34.690  -7.749 -23.232  0.00  0.00    +0.000 C 
ENDBRANCH  15  16
ENDBRANCH  14  15
ENDBRANCH   3  14
BRANCH  10  18
ATOM     18  C   UNL     1      35.073 -15.959 -24.125  0.00  0.00    +0.067 C 
BRANCH  18  19
ATOM     19  C   UNL     1      35.031 -17.148 -23.173  0.00  0.00    -0.019 C 
ATOM     20  C   UNL     1      35.352 -16.950 -21.846  0.00  0.00    -0.003 C 
ATOM     21  C   UNL     1      34.672 -18.384 -23.668  0.00  0.00    -0.003 C 
ATOM     22  C   UNL     1      35.312 -18.038 -20.975  0.00  0.00    +0.014 C 
ATOM     23  C   UNL     1      34.633 -19.472 -22.796  0.00  0.00    +0.014 C 
ATOM     24  C   UNL     1      34.953 -19.300 -21.450  0.00  0.00    +0.050 C 
BRANCH  24  26
ATOM     25  O   UNL     1      32.637 -20.551 -19.989  0.00  0.00    -0.275 OA
ATOM     26  N   UNL     1      34.913 -20.388 -20.578  0.00  0.00    -0.284 N 
ATOM     27  C   UNL     1      33.801 -20.931 -19.921  0.00  0.00    +0.227 C 
ATOM     28  C   UNL     1      34.180 -22.111 -19.061  0.00  0.00    +0.095 C 
ATOM     29  H   UNL     1      35.775 -20.831 -20.403  0.00  0.00    +0.155 HD
ENDBRANCH  24  26
ENDBRANCH  18  19
ENDBRANCH  10  18
BRANCH   4  30
ATOM     30  C   UNL     1      30.857 -11.148 -20.599  0.00  0.00    +0.140 C 
BRANCH  30  31
ATOM     31  C   UNL     1      31.645 -10.689 -19.417  0.00  0.00    -0.002 C 
ATOM     32  C   UNL     1      32.114  -9.445 -19.271  0.00  0.00    -0.003 C 
ENDBRANCH  30  31
ENDBRANCH   4  30
TORSDOF 8
ENDMDL
MODEL 7
REMARK VINA RESULT:      -9.5      5.195     11.796
REMARK  Name = 447076
REMARK  8 active torsions:
REMARK  status: ('A' for Active; 'I' for Inactive)
REMARK    1  A    between atoms: N_3  and  C_14
REMARK    2  A    between atoms: N_4  and  C_30
REMARK    3  A    between atoms: C_10  and  C_18
REMARK    4  A    between atoms: C_14  and  C_15
REMARK    5  A    between atoms: C_15  and  C_16
REMARK    6  A    between atoms: C_18  and  C_19
REMARK    7  A    between atoms: C_24  and  N_26
REMARK    8  A    between atoms: C_30  and  C_31
REMARK                            x       y       z     vdW  Elec       q    Type
REMARK                         _______ _______ _______ _____ _____    ______ ____
ROOT
ATOM      1  O   UNL     1      31.779 -10.359 -21.766  0.00  0.00    -0.246 OA
ATOM      2  O   UNL     1      34.274 -10.683 -25.730  0.00  0.00    -0.265 OA
ATOM      3  N   UNL     1      32.347 -12.479 -22.538  0.00  0.00    -0.269 N 
ATOM      4  N   UNL     1      33.023 -10.492 -23.746  0.00  0.00    -0.243 N 
ATOM      5  N   UNL     1      34.133 -13.636 -25.320  0.00  0.00    -0.313 N 
ATOM      6  N   UNL     1      33.088 -14.577 -23.590  0.00  0.00    -0.304 N 
ATOM      7  C   UNL     1      32.992 -13.213 -23.524  0.00  0.00    +0.132 A 
ATOM      8  C   UNL     1      33.626 -12.610 -24.576  0.00  0.00    +0.133 A 
ATOM      9  C   UNL     1      32.337 -11.064 -22.614  0.00  0.00    +0.335 A 
ATOM     10  C   UNL     1      33.782 -14.800 -24.686  0.00  0.00    +0.149 C 
ATOM     11  C   UNL     1      33.696 -11.199 -24.777  0.00  0.00    +0.280 A 
ATOM     12  H   UNL     1      34.651 -13.556 -26.154  0.00  0.00    +0.148 HD
ATOM     13  H   UNL     1      32.721 -15.240 -22.961  0.00  0.00    +0.150 HD
ENDROOT
BRANCH   3  14
ATOM     14  C   UNL     1      31.684 -13.167 -21.436  0.00  0.00    +0.112 C 
BRANCH  14  15
ATOM     15  C   UNL     1      32.628 -13.444 -20.272  0.00  0.00    +0.025 C 
BRANCH  15  16
ATOM     16  C   UNL     1      33.204 -14.861 -20.304  0.00  0.00    +0.002 C 
ATOM     17  C   UNL     1      32.132 -15.891 -20.625  0.00  0.00    +0.000 C 
ENDBRANCH  15  16
ENDBRANCH  14  15
ENDBRANCH   3  14
BRANCH  10  18
ATOM     18  C   UNL     1      34.176 -16.115 -25.228  0.00  0.00    +0.067 C 
BRANCH  18  19
ATOM     19  C   UNL     1      34.582 -17.127 -24.165  0.00  0.00    -0.019 C 
ATOM     20  C   UNL     1      35.074 -16.667 -22.961  0.00  0.00    -0.003 C 
ATOM     21  C   UNL     1      34.443 -18.471 -24.438  0.00  0.00    -0.003 C 
ATOM     22  C   UNL     1      35.445 -17.595 -21.987  0.00  0.00    +0.014 C 
ATOM     23  C   UNL     1      34.814 -19.399 -23.464  0.00  0.00    +0.014 C 
ATOM     24  C   UNL     1      35.315 -18.961 -22.239  0.00  0.00    +0.050 C 
BRANCH  24  26
ATOM     25  O   UNL     1      33.675 -20.332 -20.119  0.00  0.00    -0.275 OA
ATOM     26  N   UNL     1      35.686 -19.888 -21.265  0.00  0.00    -0.284 N 
ATOM     27  C   UNL     1      34.877 -20.496 -20.296  0.00  0.00    +0.227 C 
ATOM     28  C   UNL     1      35.663 -21.445 -19.427  0.00  0.00    +0.095 C 
ATOM     29  H   UNL     1      36.636 -20.147 -21.258  0.00  0.00    +0.155 HD
ENDBRANCH  24  26
ENDBRANCH  18  19
ENDBRANCH  10  18
BRANCH   4  30
ATOM     30  C   UNL     1      33.026  -9.036 -23.841  0.00  0.00    +0.140 C 
BRANCH  30  31
ATOM     31  C   UNL     1      34.296  -8.512 -23.254  0.00  0.00    -0.002 C 
ATOM     32  C   UNL     1      34.893  -7.384 -23.655  0.00  0.00    -0.003 C 
ENDBRANCH  30  31
ENDBRANCH   4  30
TORSDOF 8
ENDMDL
MODEL 8
REMARK VINA RESULT:      -9.3      3.424     11.006
REMARK  Name = 447076
REMARK  8 active torsions:
REMARK  status: ('A' for Active; 'I' for Inactive)
REMARK    1  A    between atoms: N_3  and  C_14
REMARK    2  A    between atoms: N_4  and  C_30
REMARK    3  A    between atoms: C_10  and  C_18
REMARK    4  A    between atoms: C_14  and  C_15
REMARK    5  A    between atoms: C_15  and  C_16
REMARK    6  A    between atoms: C_18  and  C_19
REMARK    7  A    between atoms: C_24  and  N_26
REMARK    8  A    between atoms: C_30  and  C_31
REMARK                            x       y       z     vdW  Elec       q    Type
REMARK                         _______ _______ _______ _____ _____    ______ ____
ROOT
ATOM      1  O   UNL     1      31.928 -11.493 -23.160  0.00  0.00    -0.246 OA
ATOM      2  O   UNL     1      32.446 -14.674 -19.745  0.00  0.00    -0.265 OA
ATOM      3  N   UNL     1      33.272 -13.346 -23.577  0.00  0.00    -0.269 N 
ATOM      4  N   UNL     1      32.170 -13.064 -21.439  0.00  0.00    -0.243 N 
ATOM      5  N   UNL     1      34.199 -16.134 -21.669  0.00  0.00    -0.313 N 
ATOM      6  N   UNL     1      34.626 -15.396 -23.730  0.00  0.00    -0.304 N 
ATOM      7  C   UNL     1      33.796 -14.528 -23.071  0.00  0.00    +0.132 A 
ATOM      8  C   UNL     1      33.518 -14.958 -21.803  0.00  0.00    +0.133 A 
ATOM      9  C   UNL     1      32.423 -12.555 -22.764  0.00  0.00    +0.335 A 
ATOM     10  C   UNL     1      34.850 -16.354 -22.855  0.00  0.00    +0.149 C 
ATOM     11  C   UNL     1      32.681 -14.264 -20.878  0.00  0.00    +0.280 A 
ATOM     12  H   UNL     1      34.218 -16.713 -20.873  0.00  0.00    +0.148 HD
ATOM     13  H   UNL     1      34.975 -15.320 -24.647  0.00  0.00    +0.150 HD
ENDROOT
BRANCH   3  14
ATOM     14  C   UNL     1      33.598 -12.929 -24.936  0.00  0.00    +0.112 C 
BRANCH  14  15
ATOM     15  C   UNL     1      34.183 -11.523 -24.989  0.00  0.00    +0.025 C 
BRANCH  15  16
ATOM     16  C   UNL     1      34.874 -11.221 -26.321  0.00  0.00    +0.002 C 
ATOM     17  C   UNL     1      35.873 -10.084 -26.184  0.00  0.00    +0.000 C 
ENDBRANCH  15  16
ENDBRANCH  14  15
ENDBRANCH   3  14
BRANCH  10  18
ATOM     18  C   UNL     1      35.688 -17.552 -23.057  0.00  0.00    +0.067 C 
BRANCH  18  19
ATOM     19  C   UNL     1      35.495 -18.629 -21.996  0.00  0.00    -0.019 C 
ATOM     20  C   UNL     1      36.571 -18.991 -21.213  0.00  0.00    -0.003 C 
ATOM     21  C   UNL     1      34.252 -19.206 -21.852  0.00  0.00    -0.003 C 
ATOM     22  C   UNL     1      36.395 -19.976 -20.241  0.00  0.00    +0.014 C 
ATOM     23  C   UNL     1      34.075 -20.192 -20.880  0.00  0.00    +0.014 C 
ATOM     24  C   UNL     1      35.146 -20.577 -20.075  0.00  0.00    +0.050 C 
BRANCH  24  26
ATOM     25  O   UNL     1      32.705 -22.174 -19.331  0.00  0.00    -0.275 OA
ATOM     26  N   UNL     1      34.970 -21.562 -19.103  0.00  0.00    -0.284 N 
ATOM     27  C   UNL     1      33.804 -22.277 -18.796  0.00  0.00    +0.227 C 
ATOM     28  C   UNL     1      34.029 -23.258 -17.674  0.00  0.00    +0.095 C 
ATOM     29  H   UNL     1      35.765 -21.783 -18.565  0.00  0.00    +0.155 HD
ENDBRANCH  24  26
ENDBRANCH  18  19
ENDBRANCH  10  18
BRANCH   4  30
ATOM     30  C   UNL     1      31.296 -12.264 -20.588  0.00  0.00    +0.140 C 
BRANCH  30  31
ATOM     31  C   UNL     1      32.123 -11.276 -19.833  0.00  0.00    -0.002 C 
ATOM     32  C   UNL     1      31.615 -10.356 -19.005  0.00  0.00    -0.003 C 
ENDBRANCH  30  31
ENDBRANCH   4  30
TORSDOF 8
ENDMDL
MODEL 9
REMARK VINA RESULT:      -9.1      2.903     10.559
REMARK  Name = 447076
REMARK  8 active torsions:
REMARK  status: ('A' for Active; 'I' for Inactive)
REMARK    1  A    between atoms: N_3  and  C_14
REMARK    2  A    between atoms: N_4  and  C_30
REMARK    3  A    between atoms: C_10  and  C_18
REMARK    4  A    between atoms: C_14  and  C_15
REMARK    5  A    between atoms: C_15  and  C_16
REMARK    6  A    between atoms: C_18  and  C_19
REMARK    7  A    between atoms: C_24  and  N_26
REMARK    8  A    between atoms: C_30  and  C_31
REMARK                            x       y       z     vdW  Elec       q    Type
REMARK                         _______ _______ _______ _____ _____    ______ ____
ROOT
ATOM      1  O   UNL     1      32.581 -12.435 -23.701  0.00  0.00    -0.246 OA
ATOM      2  O   UNL     1      32.245 -14.924 -19.735  0.00  0.00    -0.265 OA
ATOM      3  N   UNL     1      33.807 -14.405 -23.532  0.00  0.00    -0.269 N 
ATOM      4  N   UNL     1      32.396 -13.657 -21.712  0.00  0.00    -0.243 N 
ATOM      5  N   UNL     1      34.156 -16.821 -21.020  0.00  0.00    -0.313 N 
ATOM      6  N   UNL     1      34.982 -16.518 -23.069  0.00  0.00    -0.304 N 
ATOM      7  C   UNL     1      34.135 -15.495 -22.737  0.00  0.00    +0.132 A 
ATOM      8  C   UNL     1      33.613 -15.657 -21.482  0.00  0.00    +0.133 A 
ATOM      9  C   UNL     1      32.909 -13.426 -23.039  0.00  0.00    +0.335 A 
ATOM     10  C   UNL     1      34.973 -17.302 -22.011  0.00  0.00    +0.149 C 
ATOM     11  C   UNL     1      32.699 -14.753 -20.862  0.00  0.00    +0.280 A 
ATOM     12  H   UNL     1      33.993 -17.237 -20.143  0.00  0.00    +0.148 HD
ATOM     13  H   UNL     1      35.484 -16.639 -23.908  0.00  0.00    +0.150 HD
ENDROOT
BRANCH   3  14
ATOM     14  C   UNL     1      34.390 -14.275 -24.862  0.00  0.00    +0.112 C 
BRANCH  14  15
ATOM     15  C   UNL     1      33.629 -15.077 -25.911  0.00  0.00    +0.025 C 
BRANCH  15  16
ATOM     16  C   UNL     1      32.571 -14.243 -26.638  0.00  0.00    +0.002 C 
ATOM     17  C   UNL     1      33.198 -13.072 -27.378  0.00  0.00    +0.000 C 
ENDBRANCH  15  16
ENDBRANCH  14  15
ENDBRANCH   3  14
BRANCH  10  18
ATOM     18  C   UNL     1      35.724 -18.560 -21.841  0.00  0.00    +0.067 C 
BRANCH  18  19
ATOM     19  C   UNL     1      35.021 -19.587 -20.962  0.00  0.00    -0.019 C 
ATOM     20  C   UNL     1      33.642 -19.592 -20.917  0.00  0.00    -0.003 C 
ATOM     21  C   UNL     1      35.784 -20.481 -20.241  0.00  0.00    -0.003 C 
ATOM     22  C   UNL     1      32.999 -20.533 -20.113  0.00  0.00    +0.014 C 
ATOM     23  C   UNL     1      35.140 -21.422 -19.437  0.00  0.00    +0.014 C 
ATOM     24  C   UNL     1      33.748 -21.448 -19.373  0.00  0.00    +0.050 C 
BRANCH  24  26
ATOM     25  O   UNL     1      34.740 -22.978 -16.977  0.00  0.00    -0.275 OA
ATOM     26  N   UNL     1      33.104 -22.388 -18.569  0.00  0.00    -0.284 N 
ATOM     27  C   UNL     1      33.617 -23.076 -17.460  0.00  0.00    +0.227 C 
ATOM     28  C   UNL     1      32.597 -24.012 -16.862  0.00  0.00    +0.095 C 
ATOM     29  H   UNL     1      32.172 -22.596 -18.811  0.00  0.00    +0.155 HD
ENDBRANCH  24  26
ENDBRANCH  18  19
ENDBRANCH  10  18
BRANCH   4  30
ATOM     30  C   UNL     1      31.467 -12.661 -21.188  0.00  0.00    +0.140 C 
BRANCH  30  31
ATOM     31  C   UNL     1      32.225 -11.675 -20.360  0.00  0.00    -0.002 C 
ATOM     32  C   UNL     1      31.758 -11.138 -19.228  0.00  0.00    -0.003 C 
ENDBRANCH  30  31
ENDBRANCH   4  30
TORSDOF 8
ENDMDL
