MODEL 1
REMARK VINA RESULT:     -10.9      0.000      0.000
REMARK  Name = 1715
REMARK  6 active torsions:
REMARK  status: ('A' for Active; 'I' for Inactive)
REMARK    1  A    between atoms: C_1  and  C_5
REMARK    2  A    between atoms: C_1  and  C_17
REMARK    3  A    between atoms: C_13  and  O_15
REMARK    4  A    between atoms: C_17  and  N_18
REMARK    5  A    between atoms: C_19  and  C_25
REMARK    6  A    between atoms: C_25  and  C_26
REMARK                            x       y       z     vdW  Elec       q    Type
REMARK                         _______ _______ _______ _____ _____    ______ ____
ROOT
ATOM      1  C   UNL     1      31.941 -13.280 -21.698  0.00  0.00    +0.063 C 
ENDROOT
BRANCH   1   5
ATOM      2  S   UNL     1      34.747 -16.237 -25.048  0.00  0.00    -0.112 S 
ATOM      3  O   UNL     1      33.136 -14.676 -20.201  0.00  0.00    -0.275 OA
ATOM      4  N   UNL     1      34.059 -14.406 -22.319  0.00  0.00    -0.275 N 
ATOM      5  C   UNL     1      33.093 -14.183 -21.331  0.00  0.00    +0.224 C 
ATOM      6  C   UNL     1      35.196 -15.274 -22.011  0.00  0.00    +0.121 C 
ATOM      7  C   UNL     1      33.966 -13.918 -23.701  0.00  0.00    +0.106 C 
ATOM      8  C   UNL     1      34.885 -16.730 -22.272  0.00  0.00    +0.006 C 
ATOM      9  C   UNL     1      33.471 -14.989 -24.667  0.00  0.00    +0.084 C 
ATOM     10  C   UNL     1      34.671 -17.241 -23.567  0.00  0.00    +0.023 C 
ATOM     11  C   UNL     1      34.813 -17.609 -21.176  0.00  0.00    +0.035 C 
ATOM     12  C   UNL     1      34.416 -18.611 -23.738  0.00  0.00    +0.009 C 
ATOM     13  C   UNL     1      34.545 -18.965 -21.358  0.00  0.00    +0.139 C 
ATOM     14  C   UNL     1      34.349 -19.467 -22.639  0.00  0.00    +0.037 C 
BRANCH  13  15
ATOM     15  O   UNL     1      34.480 -19.797 -20.283  0.00  0.00    -0.471 OA
ATOM     16  C   UNL     1      33.281 -20.551 -20.116  0.00  0.00    +0.252 C 
ENDBRANCH  13  15
ENDBRANCH   1   5
BRANCH   1  17
ATOM     17  C   UNL     1      31.552 -12.459 -20.485  0.00  0.00    -0.068 C 
BRANCH  17  18
ATOM     18  N   UNL     1      31.407 -11.054 -20.864  0.00  0.00    +0.387 N 
ATOM     19  C   UNL     1      32.377  -8.428 -21.732  0.00  0.00    +0.000 C 
ATOM     20  C   UNL     1      31.655  -9.391 -22.679  0.00  0.00    -0.023 C 
ATOM     21  C   UNL     1      31.959  -8.713 -20.286  0.00  0.00    -0.023 C 
ATOM     22  C   UNL     1      31.851 -10.847 -22.249  0.00  0.00    -0.077 C 
ATOM     23  C   UNL     1      32.146 -10.191 -19.934  0.00  0.00    -0.077 C 
ATOM     24  H   UNL     1      30.419 -10.802 -20.810  0.00  0.00    -0.080 HD
BRANCH  19  25
ATOM     25  C   UNL     1      32.095  -6.976 -22.108  0.00  0.00    +0.026 C 
BRANCH  25  26
ATOM     26  C   UNL     1      32.779  -6.592 -23.393  0.00  0.00    -0.022 C 
ATOM     27  C   UNL     1      34.043  -7.094 -23.672  0.00  0.00    -0.004 C 
ATOM     28  C   UNL     1      32.136  -5.741 -24.283  0.00  0.00    -0.004 C 
ATOM     29  C   UNL     1      34.676  -6.739 -24.863  0.00  0.00    -0.000 C 
ATOM     30  C   UNL     1      32.771  -5.386 -25.473  0.00  0.00    -0.000 C 
ATOM     31  C   UNL     1      34.039  -5.886 -25.763  0.00  0.00    -0.000 C 
ENDBRANCH  25  26
ENDBRANCH  19  25
ENDBRANCH  17  18
ENDBRANCH   1  17
TORSDOF 6
ENDMDL
MODEL 2
REMARK VINA RESULT:     -10.7      2.923     10.176
REMARK  Name = 1715
REMARK  6 active torsions:
REMARK  status: ('A' for Active; 'I' for Inactive)
REMARK    1  A    between atoms: C_1  and  C_5
REMARK    2  A    between atoms: C_1  and  C_17
REMARK    3  A    between atoms: C_13  and  O_15
REMARK    4  A    between atoms: C_17  and  N_18
REMARK    5  A    between atoms: C_19  and  C_25
REMARK    6  A    between atoms: C_25  and  C_26
REMARK                            x       y       z     vdW  Elec       q    Type
REMARK                         _______ _______ _______ _____ _____    ______ ____
ROOT
ATOM      1  C   UNL     1      34.271 -13.252 -23.956  0.00  0.00    +0.063 C 
ENDROOT
BRANCH   1   5
ATOM      2  S   UNL     1      34.429  -7.981 -24.131  0.00  0.00    -0.112 S 
ATOM      3  O   UNL     1      32.371 -12.684 -22.658  0.00  0.00    -0.275 OA
ATOM      4  N   UNL     1      33.114 -11.071 -24.158  0.00  0.00    -0.275 N 
ATOM      5  C   UNL     1      33.166 -12.318 -23.527  0.00  0.00    +0.224 C 
ATOM      6  C   UNL     1      32.061 -10.130 -23.777  0.00  0.00    +0.121 C 
ATOM      7  C   UNL     1      34.115 -10.577 -25.114  0.00  0.00    +0.106 C 
ATOM      8  C   UNL     1      32.457  -9.285 -22.588  0.00  0.00    +0.006 C 
ATOM      9  C   UNL     1      35.125  -9.634 -24.467  0.00  0.00    +0.084 C 
ATOM     10  C   UNL     1      33.484  -8.322 -22.649  0.00  0.00    +0.023 C 
ATOM     11  C   UNL     1      31.769  -9.466 -21.375  0.00  0.00    +0.035 C 
ATOM     12  C   UNL     1      33.779  -7.552 -21.512  0.00  0.00    +0.009 C 
ATOM     13  C   UNL     1      32.081  -8.704 -20.250  0.00  0.00    +0.139 C 
ATOM     14  C   UNL     1      33.084  -7.746 -20.319  0.00  0.00    +0.037 C 
BRANCH  13  15
ATOM     15  O   UNL     1      31.401  -8.897 -19.087  0.00  0.00    -0.471 OA
ATOM     16  C   UNL     1      31.218 -10.245 -18.657  0.00  0.00    +0.252 C 
ENDBRANCH  13  15
ENDBRANCH   1   5
BRANCH   1  17
ATOM     17  C   UNL     1      33.691 -14.637 -24.169  0.00  0.00    -0.068 C 
BRANCH  17  18
ATOM     18  N   UNL     1      34.509 -15.628 -23.471  0.00  0.00    +0.387 N 
ATOM     19  C   UNL     1      34.979 -18.134 -22.026  0.00  0.00    +0.000 C 
ATOM     20  C   UNL     1      35.375 -17.945 -23.494  0.00  0.00    -0.023 C 
ATOM     21  C   UNL     1      34.938 -16.774 -21.321  0.00  0.00    -0.023 C 
ATOM     22  C   UNL     1      34.480 -16.912 -24.183  0.00  0.00    -0.077 C 
ATOM     23  C   UNL     1      34.057 -15.780 -22.082  0.00  0.00    -0.077 C 
ATOM     24  H   UNL     1      35.475 -15.300 -23.454  0.00  0.00    -0.080 HD
BRANCH  19  25
ATOM     25  C   UNL     1      35.936 -19.090 -21.319  0.00  0.00    +0.026 C 
BRANCH  25  26
ATOM     26  C   UNL     1      35.195 -20.135 -20.530  0.00  0.00    -0.022 C 
ATOM     27  C   UNL     1      35.909 -21.056 -19.775  0.00  0.00    -0.004 C 
ATOM     28  C   UNL     1      33.807 -20.166 -20.568  0.00  0.00    -0.004 C 
ATOM     29  C   UNL     1      35.222 -22.025 -19.043  0.00  0.00    -0.000 C 
ATOM     30  C   UNL     1      33.121 -21.135 -19.837  0.00  0.00    -0.000 C 
ATOM     31  C   UNL     1      33.828 -22.064 -19.075  0.00  0.00    -0.000 C 
ENDBRANCH  25  26
ENDBRANCH  19  25
ENDBRANCH  17  18
ENDBRANCH   1  17
TORSDOF 6
ENDMDL
MODEL 3
REMARK VINA RESULT:     -10.7      3.482     10.731
REMARK  Name = 1715
REMARK  6 active torsions:
REMARK  status: ('A' for Active; 'I' for Inactive)
REMARK    1  A    between atoms: C_1  and  C_5
REMARK    2  A    between atoms: C_1  and  C_17
REMARK    3  A    between atoms: C_13  and  O_15
REMARK    4  A    between atoms: C_17  and  N_18
REMARK    5  A    between atoms: C_19  and  C_25
REMARK    6  A    between atoms: C_25  and  C_26
REMARK                            x       y       z     vdW  Elec       q    Type
REMARK                         _______ _______ _______ _____ _____    ______ ____
ROOT
ATOM      1  C   UNL     1      33.456 -11.574 -24.541  0.00  0.00    +0.063 C 
ENDROOT
BRANCH   1   5
ATOM      2  S   UNL     1      31.363  -7.009 -22.924  0.00  0.00    -0.112 S 
ATOM      3  O   UNL     1      35.188 -10.050 -25.080  0.00  0.00    -0.275 OA
ATOM      4  N   UNL     1      33.694  -9.372 -23.432  0.00  0.00    -0.275 N 
ATOM      5  C   UNL     1      34.195 -10.269 -24.382  0.00  0.00    +0.224 C 
ATOM      6  C   UNL     1      34.376  -8.092 -23.241  0.00  0.00    +0.121 C 
ATOM      7  C   UNL     1      32.452  -9.569 -22.673  0.00  0.00    +0.106 C 
ATOM      8  C   UNL     1      33.881  -7.036 -24.202  0.00  0.00    +0.006 C 
ATOM      9  C   UNL     1      31.276  -8.800 -23.266  0.00  0.00    +0.084 C 
ATOM     10  C   UNL     1      32.577  -6.505 -24.141  0.00  0.00    +0.023 C 
ATOM     11  C   UNL     1      34.760  -6.561 -25.192  0.00  0.00    +0.035 C 
ATOM     12  C   UNL     1      32.194  -5.504 -25.048  0.00  0.00    +0.009 C 
ATOM     13  C   UNL     1      34.362  -5.577 -26.095  0.00  0.00    +0.139 C 
ATOM     14  C   UNL     1      33.081  -5.047 -26.022  0.00  0.00    +0.037 C 
BRANCH  13  15
ATOM     15  O   UNL     1      35.231  -5.133 -27.045  0.00  0.00    -0.471 OA
ATOM     16  C   UNL     1      34.834  -3.995 -27.807  0.00  0.00    +0.252 C 
ENDBRANCH  13  15
ENDBRANCH   1   5
BRANCH   1  17
ATOM     17  C   UNL     1      33.534 -12.347 -23.238  0.00  0.00    -0.068 C 
BRANCH  17  18
ATOM     18  N   UNL     1      34.160 -13.648 -23.472  0.00  0.00    +0.387 N 
ATOM     19  C   UNL     1      34.248 -16.577 -23.520  0.00  0.00    +0.000 C 
ATOM     20  C   UNL     1      34.097 -15.739 -24.793  0.00  0.00    -0.023 C 
ATOM     21  C   UNL     1      34.949 -15.751 -22.435  0.00  0.00    -0.023 C 
ATOM     22  C   UNL     1      33.423 -14.397 -24.498  0.00  0.00    -0.077 C 
ATOM     23  C   UNL     1      34.246 -14.409 -22.219  0.00  0.00    -0.077 C 
ATOM     24  H   UNL     1      35.109 -13.496 -23.814  0.00  0.00    -0.080 HD
BRANCH  19  25
ATOM     25  C   UNL     1      35.010 -17.869 -23.802  0.00  0.00    +0.026 C 
BRANCH  25  26
ATOM     26  C   UNL     1      35.228 -18.671 -22.547  0.00  0.00    -0.022 C 
ATOM     27  C   UNL     1      34.172 -19.387 -22.001  0.00  0.00    -0.004 C 
ATOM     28  C   UNL     1      36.482 -18.683 -21.951  0.00  0.00    -0.004 C 
ATOM     29  C   UNL     1      34.374 -20.131 -20.838  0.00  0.00    -0.000 C 
ATOM     30  C   UNL     1      36.683 -19.426 -20.788  0.00  0.00    -0.000 C 
ATOM     31  C   UNL     1      35.629 -20.150 -20.232  0.00  0.00    -0.000 C 
ENDBRANCH  25  26
ENDBRANCH  19  25
ENDBRANCH  17  18
ENDBRANCH   1  17
TORSDOF 6
ENDMDL
MODEL 4
REMARK VINA RESULT:      -9.9      6.649     10.860
REMARK  Name = 1715
REMARK  6 active torsions:
REMARK  status: ('A' for Active; 'I' for Inactive)
REMARK    1  A    between atoms: C_1  and  C_5
REMARK    2  A    between atoms: C_1  and  C_17
REMARK    3  A    between atoms: C_13  and  O_15
REMARK    4  A    between atoms: C_17  and  N_18
REMARK    5  A    between atoms: C_19  and  C_25
REMARK    6  A    between atoms: C_25  and  C_26
REMARK                            x       y       z     vdW  Elec       q    Type
REMARK                         _______ _______ _______ _____ _____    ______ ____
ROOT
ATOM      1  C   UNL     1      34.345 -23.173 -18.021  0.00  0.00    +0.063 C 
ENDROOT
BRANCH   1   5
ATOM      2  S   UNL     1      32.498 -24.970 -13.417  0.00  0.00    -0.112 S 
ATOM      3  O   UNL     1      32.228 -22.112 -17.920  0.00  0.00    -0.275 OA
ATOM      4  N   UNL     1      33.138 -22.793 -15.892  0.00  0.00    -0.275 N 
ATOM      5  C   UNL     1      33.141 -22.643 -17.283  0.00  0.00    +0.224 C 
ATOM      6  C   UNL     1      31.991 -22.295 -15.130  0.00  0.00    +0.121 C 
ATOM      7  C   UNL     1      34.162 -23.519 -15.129  0.00  0.00    +0.106 C 
ATOM      8  C   UNL     1      30.883 -23.318 -15.039  0.00  0.00    +0.006 C 
ATOM      9  C   UNL     1      33.726 -24.935 -14.767  0.00  0.00    +0.084 C 
ATOM     10  C   UNL     1      31.016 -24.519 -14.314  0.00  0.00    +0.023 C 
ATOM     11  C   UNL     1      29.670 -23.056 -15.700  0.00  0.00    +0.035 C 
ATOM     12  C   UNL     1      29.934 -25.411 -14.249  0.00  0.00    +0.009 C 
ATOM     13  C   UNL     1      28.607 -23.957 -15.638  0.00  0.00    +0.139 C 
ATOM     14  C   UNL     1      28.738 -25.133 -14.911  0.00  0.00    +0.037 C 
BRANCH  13  15
ATOM     15  O   UNL     1      27.443 -23.681 -16.286  0.00  0.00    -0.471 OA
ATOM     16  C   UNL     1      27.446 -22.575 -17.187  0.00  0.00    +0.252 C 
ENDBRANCH  13  15
ENDBRANCH   1   5
BRANCH   1  17
ATOM     17  C   UNL     1      34.199 -22.854 -19.496  0.00  0.00    -0.068 C 
BRANCH  17  18
ATOM     18  N   UNL     1      34.498 -21.441 -19.729  0.00  0.00    +0.387 N 
ATOM     19  C   UNL     1      35.147 -19.105 -21.374  0.00  0.00    +0.000 C 
ATOM     20  C   UNL     1      33.746 -19.344 -20.804  0.00  0.00    -0.023 C 
ATOM     21  C   UNL     1      36.190 -19.810 -20.501  0.00  0.00    -0.023 C 
ATOM     22  C   UNL     1      33.477 -20.836 -20.594  0.00  0.00    -0.077 C 
ATOM     23  C   UNL     1      35.841 -21.287 -20.303  0.00  0.00    -0.077 C 
ATOM     24  H   UNL     1      34.480 -20.953 -18.833  0.00  0.00    -0.080 HD
BRANCH  19  25
ATOM     25  C   UNL     1      35.446 -17.612 -21.487  0.00  0.00    +0.026 C 
BRANCH  25  26
ATOM     26  C   UNL     1      34.950 -17.043 -22.789  0.00  0.00    -0.022 C 
ATOM     27  C   UNL     1      35.027 -17.809 -23.944  0.00  0.00    -0.004 C 
ATOM     28  C   UNL     1      34.422 -15.759 -22.818  0.00  0.00    -0.004 C 
ATOM     29  C   UNL     1      34.567 -17.282 -25.151  0.00  0.00    -0.000 C 
ATOM     30  C   UNL     1      33.963 -15.232 -24.025  0.00  0.00    -0.000 C 
ATOM     31  C   UNL     1      34.035 -15.994 -25.191  0.00  0.00    -0.000 C 
ENDBRANCH  25  26
ENDBRANCH  19  25
ENDBRANCH  17  18
ENDBRANCH   1  17
TORSDOF 6
ENDMDL
MODEL 5
REMARK VINA RESULT:      -9.8      2.657     10.502
REMARK  Name = 1715
REMARK  6 active torsions:
REMARK  status: ('A' for Active; 'I' for Inactive)
REMARK    1  A    between atoms: C_1  and  C_5
REMARK    2  A    between atoms: C_1  and  C_17
REMARK    3  A    between atoms: C_13  and  O_15
REMARK    4  A    between atoms: C_17  and  N_18
REMARK    5  A    between atoms: C_19  and  C_25
REMARK    6  A    between atoms: C_25  and  C_26
REMARK                            x       y       z     vdW  Elec       q    Type
REMARK                         _______ _______ _______ _____ _____    ______ ____
ROOT
ATOM      1  C   UNL     1      34.550 -14.519 -22.812  0.00  0.00    +0.063 C 
ENDROOT
BRANCH   1   5
ATOM      2  S   UNL     1      33.296  -9.665 -24.455  0.00  0.00    -0.112 S 
ATOM      3  O   UNL     1      32.801 -13.957 -21.315  0.00  0.00    -0.275 OA
ATOM      4  N   UNL     1      32.848 -12.797 -23.330  0.00  0.00    -0.275 N 
ATOM      5  C   UNL     1      33.323 -13.739 -22.411  0.00  0.00    +0.224 C 
ATOM      6  C   UNL     1      31.659 -12.014 -22.987  0.00  0.00    +0.121 C 
ATOM      7  C   UNL     1      33.519 -12.446 -24.588  0.00  0.00    +0.106 C 
ATOM      8  C   UNL     1      32.006 -10.771 -22.201  0.00  0.00    +0.006 C 
ATOM      9  C   UNL     1      34.337 -11.164 -24.476  0.00  0.00    +0.084 C 
ATOM     10  C   UNL     1      32.722  -9.694 -22.759  0.00  0.00    +0.023 C 
ATOM     11  C   UNL     1      31.591 -10.687 -20.859  0.00  0.00    +0.035 C 
ATOM     12  C   UNL     1      32.983  -8.557 -21.977  0.00  0.00    +0.009 C 
ATOM     13  C   UNL     1      31.869  -9.558 -20.090  0.00  0.00    +0.139 C 
ATOM     14  C   UNL     1      32.563  -8.493 -20.649  0.00  0.00    +0.037 C 
BRANCH  13  15
ATOM     15  O   UNL     1      31.458  -9.499 -18.794  0.00  0.00    -0.471 OA
ATOM     16  C   UNL     1      31.247 -10.740 -18.122  0.00  0.00    +0.252 C 
ENDBRANCH  13  15
ENDBRANCH   1   5
BRANCH   1  17
ATOM     17  C   UNL     1      34.118 -15.821 -23.458  0.00  0.00    -0.068 C 
BRANCH  17  18
ATOM     18  N   UNL     1      34.861 -16.936 -22.871  0.00  0.00    +0.387 N 
ATOM     19  C   UNL     1      35.155 -19.381 -21.283  0.00  0.00    +0.000 C 
ATOM     20  C   UNL     1      35.154 -19.391 -22.815  0.00  0.00    -0.023 C 
ATOM     21  C   UNL     1      35.613 -18.011 -20.774  0.00  0.00    -0.023 C 
ATOM     22  C   UNL     1      34.352 -18.217 -23.379  0.00  0.00    -0.077 C 
ATOM     23  C   UNL     1      34.795 -16.882 -21.405  0.00  0.00    -0.077 C 
ATOM     24  H   UNL     1      35.840 -16.855 -23.145  0.00  0.00    -0.080 HD
BRANCH  19  25
ATOM     25  C   UNL     1      36.038 -20.495 -20.728  0.00  0.00    +0.026 C 
BRANCH  25  26
ATOM     26  C   UNL     1      35.338 -21.271 -19.645  0.00  0.00    -0.022 C 
ATOM     27  C   UNL     1      33.978 -21.525 -19.755  0.00  0.00    -0.004 C 
ATOM     28  C   UNL     1      36.062 -21.723 -18.549  0.00  0.00    -0.004 C 
ATOM     29  C   UNL     1      33.329 -22.245 -18.751  0.00  0.00    -0.000 C 
ATOM     30  C   UNL     1      35.413 -22.442 -17.546  0.00  0.00    -0.000 C 
ATOM     31  C   UNL     1      34.047 -22.703 -17.647  0.00  0.00    -0.000 C 
ENDBRANCH  25  26
ENDBRANCH  19  25
ENDBRANCH  17  18
ENDBRANCH   1  17
TORSDOF 6
ENDMDL
MODEL 6
REMARK VINA RESULT:      -9.6      2.491     10.215
REMARK  Name = 1715
REMARK  6 active torsions:
REMARK  status: ('A' for Active; 'I' for Inactive)
REMARK    1  A    between atoms: C_1  and  C_5
REMARK    2  A    between atoms: C_1  and  C_17
REMARK    3  A    between atoms: C_13  and  O_15
REMARK    4  A    between atoms: C_17  and  N_18
REMARK    5  A    between atoms: C_19  and  C_25
REMARK    6  A    between atoms: C_25  and  C_26
REMARK                            x       y       z     vdW  Elec       q    Type
REMARK                         _______ _______ _______ _____ _____    ______ ____
ROOT
ATOM      1  C   UNL     1      32.883 -14.114 -20.961  0.00  0.00    +0.063 C 
ENDROOT
BRANCH   1   5
ATOM      2  S   UNL     1      33.617 -10.986 -25.145  0.00  0.00    -0.112 S 
ATOM      3  O   UNL     1      31.808 -12.125 -20.251  0.00  0.00    -0.275 OA
ATOM      4  N   UNL     1      32.037 -12.411 -22.547  0.00  0.00    -0.275 N 
ATOM      5  C   UNL     1      32.195 -12.796 -21.211  0.00  0.00    +0.224 C 
ATOM      6  C   UNL     1      31.375 -11.139 -22.842  0.00  0.00    +0.121 C 
ATOM      7  C   UNL     1      32.588 -13.142 -23.696  0.00  0.00    +0.106 C 
ATOM      8  C   UNL     1      32.345  -9.980 -22.835  0.00  0.00    +0.006 C 
ATOM      9  C   UNL     1      33.888 -12.529 -24.209  0.00  0.00    +0.084 C 
ATOM     10  C   UNL     1      33.360  -9.832 -23.801  0.00  0.00    +0.023 C 
ATOM     11  C   UNL     1      32.223  -9.008 -21.825  0.00  0.00    +0.035 C 
ATOM     12  C   UNL     1      34.207  -8.714 -23.749  0.00  0.00    +0.009 C 
ATOM     13  C   UNL     1      33.080  -7.909 -21.777  0.00  0.00    +0.139 C 
ATOM     14  C   UNL     1      34.070  -7.761 -22.740  0.00  0.00    +0.037 C 
BRANCH  13  15
ATOM     15  O   UNL     1      32.943  -6.982 -20.791  0.00  0.00    -0.471 OA
ATOM     16  C   UNL     1      31.821  -6.104 -20.875  0.00  0.00    +0.252 C 
ENDBRANCH  13  15
ENDBRANCH   1   5
BRANCH   1  17
ATOM     17  C   UNL     1      34.273 -14.068 -21.563  0.00  0.00    -0.068 C 
BRANCH  17  18
ATOM     18  N   UNL     1      34.796 -15.427 -21.708  0.00  0.00    +0.387 N 
ATOM     19  C   UNL     1      34.587 -18.347 -21.837  0.00  0.00    +0.000 C 
ATOM     20  C   UNL     1      34.791 -17.482 -23.085  0.00  0.00    -0.023 C 
ATOM     21  C   UNL     1      35.130 -17.616 -20.605  0.00  0.00    -0.023 C 
ATOM     22  C   UNL     1      34.214 -16.078 -22.889  0.00  0.00    -0.077 C 
ATOM     23  C   UNL     1      34.541 -16.208 -20.490  0.00  0.00    -0.077 C 
ATOM     24  H   UNL     1      35.805 -15.375 -21.843  0.00  0.00    -0.080 HD
BRANCH  19  25
ATOM     25  C   UNL     1      35.252 -19.711 -22.002  0.00  0.00    +0.026 C 
BRANCH  25  26
ATOM     26  C   UNL     1      35.093 -20.559 -20.769  0.00  0.00    -0.022 C 
ATOM     27  C   UNL     1      36.220 -20.967 -20.069  0.00  0.00    -0.004 C 
ATOM     28  C   UNL     1      33.820 -20.923 -20.347  0.00  0.00    -0.004 C 
ATOM     29  C   UNL     1      36.073 -21.753 -18.925  0.00  0.00    -0.000 C 
ATOM     30  C   UNL     1      33.674 -21.709 -19.205  0.00  0.00    -0.000 C 
ATOM     31  C   UNL     1      34.799 -22.123 -18.494  0.00  0.00    -0.000 C 
ENDBRANCH  25  26
ENDBRANCH  19  25
ENDBRANCH  17  18
ENDBRANCH   1  17
TORSDOF 6
ENDMDL
MODEL 7
REMARK VINA RESULT:      -9.6      4.936     12.537
REMARK  Name = 1715
REMARK  6 active torsions:
REMARK  status: ('A' for Active; 'I' for Inactive)
REMARK    1  A    between atoms: C_1  and  C_5
REMARK    2  A    between atoms: C_1  and  C_17
REMARK    3  A    between atoms: C_13  and  O_15
REMARK    4  A    between atoms: C_17  and  N_18
REMARK    5  A    between atoms: C_19  and  C_25
REMARK    6  A    between atoms: C_25  and  C_26
REMARK                            x       y       z     vdW  Elec       q    Type
REMARK                         _______ _______ _______ _____ _____    ______ ____
ROOT
ATOM      1  C   UNL     1      34.043 -19.802 -21.380  0.00  0.00    +0.063 C 
ENDROOT
BRANCH   1   5
ATOM      2  S   UNL     1      34.653 -14.572 -21.061  0.00  0.00    -0.112 S 
ATOM      3  O   UNL     1      34.437 -19.239 -23.647  0.00  0.00    -0.275 OA
ATOM      4  N   UNL     1      35.213 -17.728 -22.060  0.00  0.00    -0.275 N 
ATOM      5  C   UNL     1      34.578 -18.906 -22.468  0.00  0.00    +0.224 C 
ATOM      6  C   UNL     1      35.749 -16.825 -23.079  0.00  0.00    +0.121 C 
ATOM      7  C   UNL     1      35.292 -17.262 -20.669  0.00  0.00    +0.106 C 
ATOM      8  C   UNL     1      34.708 -15.850 -23.577  0.00  0.00    +0.006 C 
ATOM      9  C   UNL     1      34.244 -16.201 -20.348  0.00  0.00    +0.084 C 
ATOM     10  C   UNL     1      34.169 -14.833 -22.765  0.00  0.00    +0.023 C 
ATOM     11  C   UNL     1      34.265 -15.961 -24.908  0.00  0.00    +0.035 C 
ATOM     12  C   UNL     1      33.225 -13.944 -23.304  0.00  0.00    +0.009 C 
ATOM     13  C   UNL     1      33.318 -15.080 -25.427  0.00  0.00    +0.139 C 
ATOM     14  C   UNL     1      32.799 -14.070 -24.626  0.00  0.00    +0.037 C 
BRANCH  13  15
ATOM     15  O   UNL     1      32.905 -15.207 -26.718  0.00  0.00    -0.471 OA
ATOM     16  C   UNL     1      32.835 -14.014 -27.498  0.00  0.00    +0.252 C 
ENDBRANCH  13  15
ENDBRANCH   1   5
BRANCH   1  17
ATOM     17  C   UNL     1      35.094 -20.839 -21.033  0.00  0.00    -0.068 C 
BRANCH  17  18
ATOM     18  N   UNL     1      35.033 -21.147 -19.605  0.00  0.00    +0.387 N 
ATOM     19  C   UNL     1      35.383 -22.845 -17.241  0.00  0.00    +0.000 C 
ATOM     20  C   UNL     1      36.336 -21.694 -17.575  0.00  0.00    -0.023 C 
ATOM     21  C   UNL     1      34.009 -22.577 -17.864  0.00  0.00    -0.023 C 
ATOM     22  C   UNL     1      36.377 -21.422 -19.080  0.00  0.00    -0.077 C 
ATOM     23  C   UNL     1      34.126 -22.277 -19.361  0.00  0.00    -0.077 C 
ATOM     24  H   UNL     1      34.663 -20.334 -19.112  0.00  0.00    -0.080 HD
BRANCH  19  25
ATOM     25  C   UNL     1      35.271 -23.045 -15.732  0.00  0.00    +0.026 C 
BRANCH  25  26
ATOM     26  C   UNL     1      36.217 -24.107 -15.241  0.00  0.00    -0.022 C 
ATOM     27  C   UNL     1      37.464 -23.741 -14.755  0.00  0.00    -0.004 C 
ATOM     28  C   UNL     1      35.829 -25.441 -15.282  0.00  0.00    -0.004 C 
ATOM     29  C   UNL     1      38.341 -24.726 -14.299  0.00  0.00    -0.000 C 
ATOM     30  C   UNL     1      36.707 -26.425 -14.826  0.00  0.00    -0.000 C 
ATOM     31  C   UNL     1      37.961 -26.067 -14.335  0.00  0.00    -0.000 C 
ENDBRANCH  25  26
ENDBRANCH  19  25
ENDBRANCH  17  18
ENDBRANCH   1  17
TORSDOF 6
ENDMDL
MODEL 8
REMARK VINA RESULT:      -9.6      3.201     10.983
REMARK  Name = 1715
REMARK  6 active torsions:
REMARK  status: ('A' for Active; 'I' for Inactive)
REMARK    1  A    between atoms: C_1  and  C_5
REMARK    2  A    between atoms: C_1  and  C_17
REMARK    3  A    between atoms: C_13  and  O_15
REMARK    4  A    between atoms: C_17  and  N_18
REMARK    5  A    between atoms: C_19  and  C_25
REMARK    6  A    between atoms: C_25  and  C_26
REMARK                            x       y       z     vdW  Elec       q    Type
REMARK                         _______ _______ _______ _____ _____    ______ ____
ROOT
ATOM      1  C   UNL     1      34.777 -16.003 -22.608  0.00  0.00    +0.063 C 
ENDROOT
BRANCH   1   5
ATOM      2  S   UNL     1      33.378 -13.505 -27.039  0.00  0.00    -0.112 S 
ATOM      3  O   UNL     1      34.382 -13.810 -21.802  0.00  0.00    -0.275 OA
ATOM      4  N   UNL     1      33.333 -14.380 -23.798  0.00  0.00    -0.275 N 
ATOM      5  C   UNL     1      34.152 -14.633 -22.691  0.00  0.00    +0.224 C 
ATOM      6  C   UNL     1      32.703 -13.065 -23.924  0.00  0.00    +0.121 C 
ATOM      7  C   UNL     1      33.137 -15.308 -24.919  0.00  0.00    +0.106 C 
ATOM      8  C   UNL     1      33.603 -12.069 -24.619  0.00  0.00    +0.006 C 
ATOM      9  C   UNL     1      34.001 -14.957 -26.126  0.00  0.00    +0.084 C 
ATOM     10  C   UNL     1      33.955 -12.182 -25.978  0.00  0.00    +0.023 C 
ATOM     11  C   UNL     1      34.104 -10.984 -23.877  0.00  0.00    +0.035 C 
ATOM     12  C   UNL     1      34.773 -11.204 -26.565  0.00  0.00    +0.009 C 
ATOM     13  C   UNL     1      34.926 -10.026 -24.469  0.00  0.00    +0.139 C 
ATOM     14  C   UNL     1      35.258 -10.135 -25.813  0.00  0.00    +0.037 C 
BRANCH  13  15
ATOM     15  O   UNL     1      35.398  -8.985 -23.731  0.00  0.00    -0.471 OA
ATOM     16  C   UNL     1      34.596  -7.805 -23.684  0.00  0.00    +0.252 C 
ENDBRANCH  13  15
ENDBRANCH   1   5
BRANCH   1  17
ATOM     17  C   UNL     1      33.719 -17.003 -22.181  0.00  0.00    -0.068 C 
BRANCH  17  18
ATOM     18  N   UNL     1      34.354 -18.269 -21.816  0.00  0.00    +0.387 N 
ATOM     19  C   UNL     1      35.432 -20.252 -19.945  0.00  0.00    +0.000 C 
ATOM     20  C   UNL     1      34.079 -20.429 -20.641  0.00  0.00    -0.023 C 
ATOM     21  C   UNL     1      36.332 -19.341 -20.787  0.00  0.00    -0.023 C 
ATOM     22  C   UNL     1      33.450 -19.078 -20.988  0.00  0.00    -0.077 C 
ATOM     23  C   UNL     1      35.628 -18.025 -21.127  0.00  0.00    -0.077 C 
ATOM     24  H   UNL     1      34.552 -18.792 -22.669  0.00  0.00    -0.080 HD
BRANCH  19  25
ATOM     25  C   UNL     1      36.099 -21.601 -19.693  0.00  0.00    +0.026 C 
BRANCH  25  26
ATOM     26  C   UNL     1      35.952 -22.033 -18.259  0.00  0.00    -0.022 C 
ATOM     27  C   UNL     1      34.774 -22.638 -17.844  0.00  0.00    -0.004 C 
ATOM     28  C   UNL     1      36.997 -21.821 -17.369  0.00  0.00    -0.004 C 
ATOM     29  C   UNL     1      34.638 -23.040 -16.515  0.00  0.00    -0.000 C 
ATOM     30  C   UNL     1      36.860 -22.222 -16.041  0.00  0.00    -0.000 C 
ATOM     31  C   UNL     1      35.682 -22.831 -15.614  0.00  0.00    -0.000 C 
ENDBRANCH  25  26
ENDBRANCH  19  25
ENDBRANCH  17  18
ENDBRANCH   1  17
TORSDOF 6
ENDMDL
MODEL 9
REMARK VINA RESULT:      -9.6      6.354     10.705
REMARK  Name = 1715
REMARK  6 active torsions:
REMARK  status: ('A' for Active; 'I' for Inactive)
REMARK    1  A    between atoms: C_1  and  C_5
REMARK    2  A    between atoms: C_1  and  C_17
REMARK    3  A    between atoms: C_13  and  O_15
REMARK    4  A    between atoms: C_17  and  N_18
REMARK    5  A    between atoms: C_19  and  C_25
REMARK    6  A    between atoms: C_25  and  C_26
REMARK                            x       y       z     vdW  Elec       q    Type
REMARK                         _______ _______ _______ _____ _____    ______ ____
ROOT
ATOM      1  C   UNL     1      33.234 -21.922 -18.006  0.00  0.00    +0.063 C 
ENDROOT
BRANCH   1   5
ATOM      2  S   UNL     1      32.302 -24.327 -13.403  0.00  0.00    -0.112 S 
ATOM      3  O   UNL     1      35.324 -22.957 -17.588  0.00  0.00    -0.275 OA
ATOM      4  N   UNL     1      33.481 -23.885 -16.516  0.00  0.00    -0.275 N 
ATOM      5  C   UNL     1      34.113 -22.962 -17.357  0.00  0.00    +0.224 C 
ATOM      6  C   UNL     1      34.291 -24.914 -15.863  0.00  0.00    +0.121 C 
ATOM      7  C   UNL     1      32.061 -23.838 -16.143  0.00  0.00    +0.106 C 
ATOM      8  C   UNL     1      34.876 -24.431 -14.556  0.00  0.00    +0.006 C 
ATOM      9  C   UNL     1      31.838 -23.211 -14.771  0.00  0.00    +0.084 C 
ATOM     10  C   UNL     1      34.083 -24.146 -13.427  0.00  0.00    +0.023 C 
ATOM     11  C   UNL     1      36.270 -24.266 -14.464  0.00  0.00    +0.035 C 
ATOM     12  C   UNL     1      34.699 -23.729 -12.236  0.00  0.00    +0.009 C 
ATOM     13  C   UNL     1      36.868 -23.838 -13.279  0.00  0.00    +0.139 C 
ATOM     14  C   UNL     1      36.082 -23.572 -12.165  0.00  0.00    +0.037 C 
BRANCH  13  15
ATOM     15  O   UNL     1      38.218 -23.685 -13.215  0.00  0.00    -0.471 OA
ATOM     16  C   UNL     1      39.013 -24.860 -13.370  0.00  0.00    +0.252 C 
ENDBRANCH  13  15
ENDBRANCH   1   5
BRANCH   1  17
ATOM     17  C   UNL     1      33.483 -21.929 -19.501  0.00  0.00    -0.068 C 
BRANCH  17  18
ATOM     18  N   UNL     1      34.056 -20.648 -19.914  0.00  0.00    +0.387 N 
ATOM     19  C   UNL     1      35.148 -18.730 -21.842  0.00  0.00    +0.000 C 
ATOM     20  C   UNL     1      33.732 -18.606 -21.272  0.00  0.00    -0.023 C 
ATOM     21  C   UNL     1      36.035 -19.506 -20.863  0.00  0.00    -0.023 C 
ATOM     22  C   UNL     1      33.171 -19.973 -20.872  0.00  0.00    -0.077 C 
ATOM     23  C   UNL     1      35.398 -20.844 -20.477  0.00  0.00    -0.077 C 
ATOM     24  H   UNL     1      34.144 -20.051 -19.091  0.00  0.00    -0.080 HD
BRANCH  19  25
ATOM     25  C   UNL     1      35.739 -17.356 -22.146  0.00  0.00    +0.026 C 
BRANCH  25  26
ATOM     26  C   UNL     1      34.974 -16.651 -23.234  0.00  0.00    -0.022 C 
ATOM     27  C   UNL     1      34.450 -15.389 -22.994  0.00  0.00    -0.004 C 
ATOM     28  C   UNL     1      34.804 -17.273 -24.464  0.00  0.00    -0.004 C 
ATOM     29  C   UNL     1      33.741 -14.735 -24.003  0.00  0.00    -0.000 C 
ATOM     30  C   UNL     1      34.095 -16.619 -25.472  0.00  0.00    -0.000 C 
ATOM     31  C   UNL     1      33.565 -15.351 -25.241  0.00  0.00    -0.000 C 
ENDBRANCH  25  26
ENDBRANCH  19  25
ENDBRANCH  17  18
ENDBRANCH   1  17
TORSDOF 6
ENDMDL
