MODEL 1
REMARK VINA RESULT:      -7.8      0.000      0.000
REMARK  Name = 4171
REMARK  10 active torsions:
REMARK  status: ('A' for Active; 'I' for Inactive)
REMARK    1  A    between atoms: O_1  and  C_2
REMARK    2  A    between atoms: O_1  and  C_12
REMARK    3  A    between atoms: C_3  and  C_8
REMARK    4  A    between atoms: C_8  and  C_9
REMARK    5  A    between atoms: C_9  and  O_10
REMARK    6  A    between atoms: C_12  and  C_13
REMARK    7  A    between atoms: C_13  and  O_14
REMARK    8  A    between atoms: C_13  and  C_16
REMARK    9  A    between atoms: C_16  and  N_17
REMARK   10  A    between atoms: N_17  and  C_20
REMARK                            x       y       z     vdW  Elec       q    Type
REMARK                         _______ _______ _______ _____ _____    ______ ____
ROOT
ATOM      1  O   UNL     1      32.791 -22.287 -18.825  0.00  0.00    -0.473 OA
ENDROOT
BRANCH   1   2
ATOM      2  C   UNL     1      33.527 -21.384 -19.543  0.00  0.00    +0.139 C 
ATOM      3  C   UNL     1      35.023 -19.549 -21.004  0.00  0.00    -0.019 C 
ATOM      4  C   UNL     1      32.880 -20.404 -20.287  0.00  0.00    +0.037 C 
ATOM      5  C   UNL     1      34.916 -21.456 -19.523  0.00  0.00    +0.037 C 
ATOM      6  C   UNL     1      33.630 -19.484 -21.020  0.00  0.00    -0.001 C 
ATOM      7  C   UNL     1      35.666 -20.535 -20.256  0.00  0.00    -0.001 C 
BRANCH   3   8
ATOM      8  C   UNL     1      35.825 -18.565 -21.787  0.00  0.00    +0.058 C 
BRANCH   8   9
ATOM      9  C   UNL     1      35.193 -17.171 -21.821  0.00  0.00    +0.147 C 
BRANCH   9  10
ATOM     10  O   UNL     1      35.226 -16.600 -20.518  0.00  0.00    -0.351 OA
ATOM     11  C   UNL     1      34.477 -15.395 -20.458  0.00  0.00    +0.174 C 
ENDBRANCH   9  10
ENDBRANCH   8   9
ENDBRANCH   3   8
ENDBRANCH   1   2
BRANCH   1  12
ATOM     12  C   UNL     1      33.520 -23.236 -18.051  0.00  0.00    +0.232 C 
BRANCH  12  13
ATOM     13  C   UNL     1      33.141 -23.069 -16.581  0.00  0.00    +0.133 C 
BRANCH  13  14
ATOM     14  O   UNL     1      34.043 -23.845 -15.788  0.00  0.00    -0.383 OA
ATOM     15  H   UNL     1      33.726 -24.761 -15.740  0.00  0.00    +0.210 HD
ENDBRANCH  13  14
BRANCH  13  16
ATOM     16  C   UNL     1      31.715 -23.524 -16.268  0.00  0.00    -0.048 C 
BRANCH  16  17
ATOM     17  N   UNL     1      30.717 -22.719 -16.961  0.00  0.00    +0.387 N 
ATOM     18  H   UNL     1      30.578 -23.097 -17.898  0.00  0.00    -0.084 HD
ATOM     19  H   UNL     1      31.052 -21.757 -17.010  0.00  0.00    -0.084 HD
BRANCH  17  20
ATOM     20  C   UNL     1      29.448 -22.734 -16.247  0.00  0.00    -0.062 C 
ATOM     21  C   UNL     1      29.688 -22.741 -14.740  0.00  0.00    -0.023 C 
ATOM     22  C   UNL     1      28.638 -23.953 -16.679  0.00  0.00    -0.023 C 
ENDBRANCH  17  20
ENDBRANCH  16  17
ENDBRANCH  13  16
ENDBRANCH  12  13
ENDBRANCH   1  12
TORSDOF 10
ENDMDL
MODEL 2
REMARK VINA RESULT:      -7.8      1.543      1.874
REMARK  Name = 4171
REMARK  10 active torsions:
REMARK  status: ('A' for Active; 'I' for Inactive)
REMARK    1  A    between atoms: O_1  and  C_2
REMARK    2  A    between atoms: O_1  and  C_12
REMARK    3  A    between atoms: C_3  and  C_8
REMARK    4  A    between atoms: C_8  and  C_9
REMARK    5  A    between atoms: C_9  and  O_10
REMARK    6  A    between atoms: C_12  and  C_13
REMARK    7  A    between atoms: C_13  and  O_14
REMARK    8  A    between atoms: C_13  and  C_16
REMARK    9  A    between atoms: C_16  and  N_17
REMARK   10  A    between atoms: N_17  and  C_20
REMARK                            x       y       z     vdW  Elec       q    Type
REMARK                         _______ _______ _______ _____ _____    ______ ____
ROOT
ATOM      1  O   UNL     1      34.421 -23.332 -18.103  0.00  0.00    -0.473 OA
ENDROOT
BRANCH   1   2
ATOM      2  C   UNL     1      34.419 -22.243 -18.932  0.00  0.00    +0.139 C 
ATOM      3  C   UNL     1      34.414 -20.031 -20.619  0.00  0.00    -0.019 C 
ATOM      4  C   UNL     1      33.213 -21.651 -19.289  0.00  0.00    +0.037 C 
ATOM      5  C   UNL     1      35.624 -21.740 -19.413  0.00  0.00    +0.037 C 
ATOM      6  C   UNL     1      33.210 -20.541 -20.135  0.00  0.00    -0.001 C 
ATOM      7  C   UNL     1      35.621 -20.630 -20.259  0.00  0.00    -0.001 C 
BRANCH   3   8
ATOM      8  C   UNL     1      34.412 -18.845 -21.523  0.00  0.00    +0.058 C 
BRANCH   8   9
ATOM      9  C   UNL     1      35.609 -17.917 -21.295  0.00  0.00    +0.147 C 
BRANCH   9  10
ATOM     10  O   UNL     1      35.199 -16.788 -20.533  0.00  0.00    -0.351 OA
ATOM     11  C   UNL     1      34.056 -16.164 -21.100  0.00  0.00    +0.174 C 
ENDBRANCH   9  10
ENDBRANCH   8   9
ENDBRANCH   3   8
ENDBRANCH   1   2
BRANCH   1  12
ATOM     12  C   UNL     1      33.531 -23.292 -16.992  0.00  0.00    +0.232 C 
BRANCH  12  13
ATOM     13  C   UNL     1      34.341 -23.443 -15.706  0.00  0.00    +0.133 C 
BRANCH  13  14
ATOM     14  O   UNL     1      35.379 -24.401 -15.931  0.00  0.00    -0.383 OA
ATOM     15  H   UNL     1      35.490 -24.950 -15.140  0.00  0.00    +0.210 HD
ENDBRANCH  13  14
BRANCH  13  16
ATOM     16  C   UNL     1      33.505 -23.916 -14.515  0.00  0.00    -0.048 C 
BRANCH  16  17
ATOM     17  N   UNL     1      32.588 -22.885 -14.045  0.00  0.00    +0.387 N 
ATOM     18  H   UNL     1      32.492 -22.171 -14.767  0.00  0.00    -0.084 HD
ATOM     19  H   UNL     1      32.966 -22.479 -13.190  0.00  0.00    -0.084 HD
BRANCH  17  20
ATOM     20  C   UNL     1      31.277 -23.448 -13.754  0.00  0.00    -0.062 C 
ATOM     21  C   UNL     1      31.344 -24.973 -13.751  0.00  0.00    -0.023 C 
ATOM     22  C   UNL     1      30.269 -22.946 -14.783  0.00  0.00    -0.023 C 
ENDBRANCH  17  20
ENDBRANCH  16  17
ENDBRANCH  13  16
ENDBRANCH  12  13
ENDBRANCH   1  12
TORSDOF 10
ENDMDL
MODEL 3
REMARK VINA RESULT:      -7.8      1.878      2.628
REMARK  Name = 4171
REMARK  10 active torsions:
REMARK  status: ('A' for Active; 'I' for Inactive)
REMARK    1  A    between atoms: O_1  and  C_2
REMARK    2  A    between atoms: O_1  and  C_12
REMARK    3  A    between atoms: C_3  and  C_8
REMARK    4  A    between atoms: C_8  and  C_9
REMARK    5  A    between atoms: C_9  and  O_10
REMARK    6  A    between atoms: C_12  and  C_13
REMARK    7  A    between atoms: C_13  and  O_14
REMARK    8  A    between atoms: C_13  and  C_16
REMARK    9  A    between atoms: C_16  and  N_17
REMARK   10  A    between atoms: N_17  and  C_20
REMARK                            x       y       z     vdW  Elec       q    Type
REMARK                         _______ _______ _______ _____ _____    ______ ____
ROOT
ATOM      1  O   UNL     1      35.250 -22.848 -17.553  0.00  0.00    -0.473 OA
ENDROOT
BRANCH   1   2
ATOM      2  C   UNL     1      35.115 -21.982 -18.604  0.00  0.00    +0.139 C 
ATOM      3  C   UNL     1      34.842 -20.219 -20.738  0.00  0.00    -0.019 C 
ATOM      4  C   UNL     1      36.247 -21.423 -19.186  0.00  0.00    +0.037 C 
ATOM      5  C   UNL     1      33.846 -21.667 -19.079  0.00  0.00    +0.037 C 
ATOM      6  C   UNL     1      36.110 -20.539 -20.256  0.00  0.00    -0.001 C 
ATOM      7  C   UNL     1      33.709 -20.782 -20.150  0.00  0.00    -0.001 C 
BRANCH   3   8
ATOM      8  C   UNL     1      34.694 -19.274 -21.883  0.00  0.00    +0.058 C 
BRANCH   8   9
ATOM      9  C   UNL     1      35.600 -18.045 -21.763  0.00  0.00    +0.147 C 
BRANCH   9  10
ATOM     10  O   UNL     1      35.225 -17.286 -20.620  0.00  0.00    -0.351 OA
ATOM     11  C   UNL     1      34.716 -16.011 -20.986  0.00  0.00    +0.174 C 
ENDBRANCH   9  10
ENDBRANCH   8   9
ENDBRANCH   3   8
ENDBRANCH   1   2
BRANCH   1  12
ATOM     12  C   UNL     1      36.193 -22.491 -16.546  0.00  0.00    +0.232 C 
BRANCH  12  13
ATOM     13  C   UNL     1      36.100 -23.500 -15.403  0.00  0.00    +0.133 C 
BRANCH  13  14
ATOM     14  O   UNL     1      37.011 -24.570 -15.664  0.00  0.00    -0.383 OA
ATOM     15  H   UNL     1      37.047 -24.739 -16.619  0.00  0.00    +0.210 HD
ENDBRANCH  13  14
BRANCH  13  16
ATOM     16  C   UNL     1      34.700 -24.093 -15.232  0.00  0.00    -0.048 C 
BRANCH  16  17
ATOM     17  N   UNL     1      33.719 -23.086 -14.851  0.00  0.00    +0.387 N 
ATOM     18  H   UNL     1      33.856 -22.255 -15.426  0.00  0.00    -0.084 HD
ATOM     19  H   UNL     1      33.848 -22.863 -13.865  0.00  0.00    -0.084 HD
BRANCH  17  20
ATOM     20  C   UNL     1      32.363 -23.580 -15.044  0.00  0.00    -0.062 C 
ATOM     21  C   UNL     1      31.875 -23.252 -16.452  0.00  0.00    -0.023 C 
ATOM     22  C   UNL     1      31.446 -22.969 -13.989  0.00  0.00    -0.023 C 
ENDBRANCH  17  20
ENDBRANCH  16  17
ENDBRANCH  13  16
ENDBRANCH  12  13
ENDBRANCH   1  12
TORSDOF 10
ENDMDL
MODEL 4
REMARK VINA RESULT:      -7.8      2.900      7.892
REMARK  Name = 4171
REMARK  10 active torsions:
REMARK  status: ('A' for Active; 'I' for Inactive)
REMARK    1  A    between atoms: O_1  and  C_2
REMARK    2  A    between atoms: O_1  and  C_12
REMARK    3  A    between atoms: C_3  and  C_8
REMARK    4  A    between atoms: C_8  and  C_9
REMARK    5  A    between atoms: C_9  and  O_10
REMARK    6  A    between atoms: C_12  and  C_13
REMARK    7  A    between atoms: C_13  and  O_14
REMARK    8  A    between atoms: C_13  and  C_16
REMARK    9  A    between atoms: C_16  and  N_17
REMARK   10  A    between atoms: N_17  and  C_20
REMARK                            x       y       z     vdW  Elec       q    Type
REMARK                         _______ _______ _______ _____ _____    ______ ____
ROOT
ATOM      1  O   UNL     1      35.502 -18.118 -22.465  0.00  0.00    -0.473 OA
ENDROOT
BRANCH   1   2
ATOM      2  C   UNL     1      35.009 -19.063 -21.606  0.00  0.00    +0.139 C 
ATOM      3  C   UNL     1      34.009 -20.984 -19.861  0.00  0.00    -0.019 C 
ATOM      4  C   UNL     1      35.888 -19.872 -20.895  0.00  0.00    +0.037 C 
ATOM      5  C   UNL     1      33.634 -19.206 -21.453  0.00  0.00    +0.037 C 
ATOM      6  C   UNL     1      35.386 -20.836 -20.019  0.00  0.00    -0.001 C 
ATOM      7  C   UNL     1      33.132 -20.170 -20.578  0.00  0.00    -0.001 C 
BRANCH   3   8
ATOM      8  C   UNL     1      33.472 -22.014 -18.925  0.00  0.00    +0.058 C 
BRANCH   8   9
ATOM      9  C   UNL     1      34.558 -22.663 -18.063  0.00  0.00    +0.147 C 
BRANCH   9  10
ATOM     10  O   UNL     1      33.962 -23.587 -17.160  0.00  0.00    -0.351 OA
ATOM     11  C   UNL     1      32.601 -23.268 -16.911  0.00  0.00    +0.174 C 
ENDBRANCH   9  10
ENDBRANCH   8   9
ENDBRANCH   3   8
ENDBRANCH   1   2
BRANCH   1  12
ATOM     12  C   UNL     1      35.236 -18.314 -23.851  0.00  0.00    +0.232 C 
BRANCH  12  13
ATOM     13  C   UNL     1      34.496 -17.090 -24.389  0.00  0.00    +0.133 C 
BRANCH  13  14
ATOM     14  O   UNL     1      34.949 -16.834 -25.721  0.00  0.00    -0.383 OA
ATOM     15  H   UNL     1      35.641 -17.471 -25.956  0.00  0.00    +0.210 HD
ENDBRANCH  13  14
BRANCH  13  16
ATOM     16  C   UNL     1      34.726 -15.829 -23.554  0.00  0.00    -0.048 C 
BRANCH  16  17
ATOM     17  N   UNL     1      33.557 -15.476 -22.760  0.00  0.00    +0.387 N 
ATOM     18  H   UNL     1      33.129 -16.329 -22.401  0.00  0.00    -0.084 HD
ATOM     19  H   UNL     1      32.901 -14.970 -23.355  0.00  0.00    -0.084 HD
BRANCH  17  20
ATOM     20  C   UNL     1      33.926 -14.621 -21.641  0.00  0.00    -0.062 C 
ATOM     21  C   UNL     1      34.583 -15.446 -20.538  0.00  0.00    -0.023 C 
ATOM     22  C   UNL     1      32.686 -13.901 -21.121  0.00  0.00    -0.023 C 
ENDBRANCH  17  20
ENDBRANCH  16  17
ENDBRANCH  13  16
ENDBRANCH  12  13
ENDBRANCH   1  12
TORSDOF 10
ENDMDL
MODEL 5
REMARK VINA RESULT:      -7.7      3.156      7.958
REMARK  Name = 4171
REMARK  10 active torsions:
REMARK  status: ('A' for Active; 'I' for Inactive)
REMARK    1  A    between atoms: O_1  and  C_2
REMARK    2  A    between atoms: O_1  and  C_12
REMARK    3  A    between atoms: C_3  and  C_8
REMARK    4  A    between atoms: C_8  and  C_9
REMARK    5  A    between atoms: C_9  and  O_10
REMARK    6  A    between atoms: C_12  and  C_13
REMARK    7  A    between atoms: C_13  and  O_14
REMARK    8  A    between atoms: C_13  and  C_16
REMARK    9  A    between atoms: C_16  and  N_17
REMARK   10  A    between atoms: N_17  and  C_20
REMARK                            x       y       z     vdW  Elec       q    Type
REMARK                         _______ _______ _______ _____ _____    ______ ____
ROOT
ATOM      1  O   UNL     1      34.241 -18.064 -21.743  0.00  0.00    -0.473 OA
ENDROOT
BRANCH   1   2
ATOM      2  C   UNL     1      34.189 -19.220 -21.012  0.00  0.00    +0.139 C 
ATOM      3  C   UNL     1      34.082 -21.567 -19.523  0.00  0.00    -0.019 C 
ATOM      4  C   UNL     1      32.960 -19.708 -20.582  0.00  0.00    +0.037 C 
ATOM      5  C   UNL     1      35.365 -19.894 -20.703  0.00  0.00    +0.037 C 
ATOM      6  C   UNL     1      32.906 -20.885 -19.835  0.00  0.00    -0.001 C 
ATOM      7  C   UNL     1      35.311 -21.072 -19.956  0.00  0.00    -0.001 C 
BRANCH   3   8
ATOM      8  C   UNL     1      34.025 -22.826 -18.725  0.00  0.00    +0.058 C 
BRANCH   8   9
ATOM      9  C   UNL     1      32.898 -22.826 -17.688  0.00  0.00    +0.147 C 
BRANCH   9  10
ATOM     10  O   UNL     1      33.337 -23.486 -16.507  0.00  0.00    -0.351 OA
ATOM     11  C   UNL     1      34.675 -23.139 -16.183  0.00  0.00    +0.174 C 
ENDBRANCH   9  10
ENDBRANCH   8   9
ENDBRANCH   3   8
ENDBRANCH   1   2
BRANCH   1  12
ATOM     12  C   UNL     1      35.075 -17.025 -21.238  0.00  0.00    +0.232 C 
BRANCH  12  13
ATOM     13  C   UNL     1      34.487 -15.677 -21.652  0.00  0.00    +0.133 C 
BRANCH  13  14
ATOM     14  O   UNL     1      33.130 -15.615 -21.204  0.00  0.00    -0.383 OA
ATOM     15  H   UNL     1      32.628 -16.349 -21.591  0.00  0.00    +0.210 HD
ENDBRANCH  13  14
BRANCH  13  16
ATOM     16  C   UNL     1      34.502 -15.448 -23.164  0.00  0.00    -0.048 C 
BRANCH  16  17
ATOM     17  N   UNL     1      35.391 -16.376 -23.851  0.00  0.00    +0.387 N 
ATOM     18  H   UNL     1      35.515 -17.207 -23.273  0.00  0.00    -0.084 HD
ATOM     19  H   UNL     1      36.286 -15.914 -24.007  0.00  0.00    -0.084 HD
BRANCH  17  20
ATOM     20  C   UNL     1      34.839 -16.770 -25.139  0.00  0.00    -0.062 C 
ATOM     21  C   UNL     1      33.678 -15.856 -25.519  0.00  0.00    -0.023 C 
ATOM     22  C   UNL     1      34.392 -18.227 -25.076  0.00  0.00    -0.023 C 
ENDBRANCH  17  20
ENDBRANCH  16  17
ENDBRANCH  13  16
ENDBRANCH  12  13
ENDBRANCH   1  12
TORSDOF 10
ENDMDL
MODEL 6
REMARK VINA RESULT:      -7.7      1.801      2.462
REMARK  Name = 4171
REMARK  10 active torsions:
REMARK  status: ('A' for Active; 'I' for Inactive)
REMARK    1  A    between atoms: O_1  and  C_2
REMARK    2  A    between atoms: O_1  and  C_12
REMARK    3  A    between atoms: C_3  and  C_8
REMARK    4  A    between atoms: C_8  and  C_9
REMARK    5  A    between atoms: C_9  and  O_10
REMARK    6  A    between atoms: C_12  and  C_13
REMARK    7  A    between atoms: C_13  and  O_14
REMARK    8  A    between atoms: C_13  and  C_16
REMARK    9  A    between atoms: C_16  and  N_17
REMARK   10  A    between atoms: N_17  and  C_20
REMARK                            x       y       z     vdW  Elec       q    Type
REMARK                         _______ _______ _______ _____ _____    ______ ____
ROOT
ATOM      1  O   UNL     1      34.409 -23.207 -18.359  0.00  0.00    -0.473 OA
ENDROOT
BRANCH   1   2
ATOM      2  C   UNL     1      34.398 -22.086 -19.144  0.00  0.00    +0.139 C 
ATOM      3  C   UNL     1      34.378 -19.805 -20.737  0.00  0.00    -0.019 C 
ATOM      4  C   UNL     1      35.599 -21.553 -19.599  0.00  0.00    +0.037 C 
ATOM      5  C   UNL     1      33.187 -21.489 -19.478  0.00  0.00    +0.037 C 
ATOM      6  C   UNL     1      35.589 -20.409 -20.398  0.00  0.00    -0.001 C 
ATOM      7  C   UNL     1      33.177 -20.345 -20.277  0.00  0.00    -0.001 C 
BRANCH   3   8
ATOM      8  C   UNL     1      34.367 -18.583 -21.591  0.00  0.00    +0.058 C 
BRANCH   8   9
ATOM      9  C   UNL     1      35.761 -18.188 -22.088  0.00  0.00    +0.147 C 
BRANCH   9  10
ATOM     10  O   UNL     1      35.901 -18.557 -23.455  0.00  0.00    -0.351 OA
ATOM     11  C   UNL     1      34.771 -18.163 -24.220  0.00  0.00    +0.174 C 
ENDBRANCH   9  10
ENDBRANCH   8   9
ENDBRANCH   3   8
ENDBRANCH   1   2
BRANCH   1  12
ATOM     12  C   UNL     1      33.489 -23.236 -17.272  0.00  0.00    +0.232 C 
BRANCH  12  13
ATOM     13  C   UNL     1      34.274 -23.247 -15.962  0.00  0.00    +0.133 C 
BRANCH  13  14
ATOM     14  O   UNL     1      35.459 -24.027 -16.148  0.00  0.00    -0.383 OA
ATOM     15  H   UNL     1      35.813 -24.288 -15.284  0.00  0.00    +0.210 HD
ENDBRANCH  13  14
BRANCH  13  16
ATOM     16  C   UNL     1      33.489 -23.842 -14.791  0.00  0.00    -0.048 C 
BRANCH  16  17
ATOM     17  N   UNL     1      32.633 -22.855 -14.146  0.00  0.00    +0.387 N 
ATOM     18  H   UNL     1      32.494 -22.070 -14.782  0.00  0.00    -0.084 HD
ATOM     19  H   UNL     1      33.086 -22.543 -13.288  0.00  0.00    -0.084 HD
BRANCH  17  20
ATOM     20  C   UNL     1      31.338 -23.430 -13.808  0.00  0.00    -0.062 C 
ATOM     21  C   UNL     1      31.413 -24.954 -13.836  0.00  0.00    -0.023 C 
ATOM     22  C   UNL     1      30.284 -22.915 -14.783  0.00  0.00    -0.023 C 
ENDBRANCH  17  20
ENDBRANCH  16  17
ENDBRANCH  13  16
ENDBRANCH  12  13
ENDBRANCH   1  12
TORSDOF 10
ENDMDL
MODEL 7
REMARK VINA RESULT:      -7.7      3.229      7.814
REMARK  Name = 4171
REMARK  10 active torsions:
REMARK  status: ('A' for Active; 'I' for Inactive)
REMARK    1  A    between atoms: O_1  and  C_2
REMARK    2  A    between atoms: O_1  and  C_12
REMARK    3  A    between atoms: C_3  and  C_8
REMARK    4  A    between atoms: C_8  and  C_9
REMARK    5  A    between atoms: C_9  and  O_10
REMARK    6  A    between atoms: C_12  and  C_13
REMARK    7  A    between atoms: C_13  and  O_14
REMARK    8  A    between atoms: C_13  and  C_16
REMARK    9  A    between atoms: C_16  and  N_17
REMARK   10  A    between atoms: N_17  and  C_20
REMARK                            x       y       z     vdW  Elec       q    Type
REMARK                         _______ _______ _______ _____ _____    ______ ____
ROOT
ATOM      1  O   UNL     1      35.506 -17.882 -22.575  0.00  0.00    -0.473 OA
ENDROOT
BRANCH   1   2
ATOM      2  C   UNL     1      35.340 -18.891 -21.665  0.00  0.00    +0.139 C 
ATOM      3  C   UNL     1      35.003 -20.940 -19.814  0.00  0.00    -0.019 C 
ATOM      4  C   UNL     1      34.065 -19.374 -21.396  0.00  0.00    +0.037 C 
ATOM      5  C   UNL     1      36.450 -19.423 -21.016  0.00  0.00    +0.037 C 
ATOM      6  C   UNL     1      33.895 -20.401 -20.468  0.00  0.00    -0.001 C 
ATOM      7  C   UNL     1      36.280 -20.450 -20.087  0.00  0.00    -0.001 C 
BRANCH   3   8
ATOM      8  C   UNL     1      34.823 -22.039 -18.822  0.00  0.00    +0.058 C 
BRANCH   8   9
ATOM      9  C   UNL     1      33.355 -22.424 -18.617  0.00  0.00    +0.147 C 
BRANCH   9  10
ATOM     10  O   UNL     1      33.197 -23.043 -17.346  0.00  0.00    -0.351 OA
ATOM     11  C   UNL     1      34.434 -23.129 -16.651  0.00  0.00    +0.174 C 
ENDBRANCH   9  10
ENDBRANCH   8   9
ENDBRANCH   3   8
ENDBRANCH   1   2
BRANCH   1  12
ATOM     12  C   UNL     1      35.155 -18.173 -23.924  0.00  0.00    +0.232 C 
BRANCH  12  13
ATOM     13  C   UNL     1      34.411 -16.975 -24.510  0.00  0.00    +0.133 C 
BRANCH  13  14
ATOM     14  O   UNL     1      34.931 -16.710 -25.816  0.00  0.00    -0.383 OA
ATOM     15  H   UNL     1      35.608 -16.017 -25.759  0.00  0.00    +0.210 HD
ENDBRANCH  13  14
BRANCH  13  16
ATOM     16  C   UNL     1      34.554 -15.704 -23.671  0.00  0.00    -0.048 C 
BRANCH  16  17
ATOM     17  N   UNL     1      33.517 -15.599 -22.653  0.00  0.00    +0.387 N 
ATOM     18  H   UNL     1      33.378 -16.513 -22.224  0.00  0.00    -0.084 HD
ATOM     19  H   UNL     1      32.657 -15.278 -23.097  0.00  0.00    -0.084 HD
BRANCH  17  20
ATOM     20  C   UNL     1      33.894 -14.642 -21.622  0.00  0.00    -0.062 C 
ATOM     21  C   UNL     1      34.522 -15.365 -20.434  0.00  0.00    -0.023 C 
ATOM     22  C   UNL     1      32.665 -13.847 -21.193  0.00  0.00    -0.023 C 
ENDBRANCH  17  20
ENDBRANCH  16  17
ENDBRANCH  13  16
ENDBRANCH  12  13
ENDBRANCH   1  12
TORSDOF 10
ENDMDL
MODEL 8
REMARK VINA RESULT:      -7.6      4.147      8.806
REMARK  Name = 4171
REMARK  10 active torsions:
REMARK  status: ('A' for Active; 'I' for Inactive)
REMARK    1  A    between atoms: O_1  and  C_2
REMARK    2  A    between atoms: O_1  and  C_12
REMARK    3  A    between atoms: C_3  and  C_8
REMARK    4  A    between atoms: C_8  and  C_9
REMARK    5  A    between atoms: C_9  and  O_10
REMARK    6  A    between atoms: C_12  and  C_13
REMARK    7  A    between atoms: C_13  and  O_14
REMARK    8  A    between atoms: C_13  and  C_16
REMARK    9  A    between atoms: C_16  and  N_17
REMARK   10  A    between atoms: N_17  and  C_20
REMARK                            x       y       z     vdW  Elec       q    Type
REMARK                         _______ _______ _______ _____ _____    ______ ____
ROOT
ATOM      1  O   UNL     1      35.046 -15.977 -24.248  0.00  0.00    -0.473 OA
ENDROOT
BRANCH   1   2
ATOM      2  C   UNL     1      34.929 -17.007 -23.355  0.00  0.00    +0.139 C 
ATOM      3  C   UNL     1      34.694 -19.103 -21.540  0.00  0.00    -0.019 C 
ATOM      4  C   UNL     1      34.922 -16.740 -21.991  0.00  0.00    +0.037 C 
ATOM      5  C   UNL     1      34.820 -18.314 -23.821  0.00  0.00    +0.037 C 
ATOM      6  C   UNL     1      34.804 -17.791 -21.081  0.00  0.00    -0.001 C 
ATOM      7  C   UNL     1      34.703 -19.365 -22.910  0.00  0.00    -0.001 C 
BRANCH   3   8
ATOM      8  C   UNL     1      34.567 -20.226 -20.568  0.00  0.00    +0.058 C 
BRANCH   8   9
ATOM      9  C   UNL     1      33.112 -20.551 -20.216  0.00  0.00    +0.147 C 
BRANCH   9  10
ATOM     10  O   UNL     1      33.023 -21.891 -19.747  0.00  0.00    -0.351 OA
ATOM     11  C   UNL     1      34.277 -22.363 -19.273  0.00  0.00    +0.174 C 
ENDBRANCH   9  10
ENDBRANCH   8   9
ENDBRANCH   3   8
ENDBRANCH   1   2
BRANCH   1  12
ATOM     12  C   UNL     1      34.048 -15.892 -25.261  0.00  0.00    +0.232 C 
BRANCH  12  13
ATOM     13  C   UNL     1      33.106 -14.736 -24.930  0.00  0.00    +0.133 C 
BRANCH  13  14
ATOM     14  O   UNL     1      32.348 -14.418 -26.100  0.00  0.00    -0.383 OA
ATOM     15  H   UNL     1      32.931 -14.019 -26.765  0.00  0.00    +0.210 HD
ENDBRANCH  13  14
BRANCH  13  16
ATOM     16  C   UNL     1      33.835 -13.472 -24.474  0.00  0.00    -0.048 C 
BRANCH  16  17
ATOM     17  N   UNL     1      33.953 -13.400 -23.023  0.00  0.00    +0.387 N 
ATOM     18  H   UNL     1      34.382 -12.510 -22.768  0.00  0.00    -0.084 HD
ATOM     19  H   UNL     1      34.529 -14.178 -22.704  0.00  0.00    -0.084 HD
BRANCH  17  20
ATOM     20  C   UNL     1      32.646 -13.497 -22.389  0.00  0.00    -0.062 C 
ATOM     21  C   UNL     1      31.979 -12.125 -22.337  0.00  0.00    -0.023 C 
ATOM     22  C   UNL     1      32.803 -14.083 -20.989  0.00  0.00    -0.023 C 
ENDBRANCH  17  20
ENDBRANCH  16  17
ENDBRANCH  13  16
ENDBRANCH  12  13
ENDBRANCH   1  12
TORSDOF 10
ENDMDL
MODEL 9
REMARK VINA RESULT:      -7.5      3.384      4.672
REMARK  Name = 4171
REMARK  10 active torsions:
REMARK  status: ('A' for Active; 'I' for Inactive)
REMARK    1  A    between atoms: O_1  and  C_2
REMARK    2  A    between atoms: O_1  and  C_12
REMARK    3  A    between atoms: C_3  and  C_8
REMARK    4  A    between atoms: C_8  and  C_9
REMARK    5  A    between atoms: C_9  and  O_10
REMARK    6  A    between atoms: C_12  and  C_13
REMARK    7  A    between atoms: C_13  and  O_14
REMARK    8  A    between atoms: C_13  and  C_16
REMARK    9  A    between atoms: C_16  and  N_17
REMARK   10  A    between atoms: N_17  and  C_20
REMARK                            x       y       z     vdW  Elec       q    Type
REMARK                         _______ _______ _______ _____ _____    ______ ____
ROOT
ATOM      1  O   UNL     1      34.651 -23.098 -17.574  0.00  0.00    -0.473 OA
ENDROOT
BRANCH   1   2
ATOM      2  C   UNL     1      34.697 -22.170 -18.579  0.00  0.00    +0.139 C 
ATOM      3  C   UNL     1      34.792 -20.282 -20.620  0.00  0.00    -0.019 C 
ATOM      4  C   UNL     1      35.927 -21.723 -19.048  0.00  0.00    +0.037 C 
ATOM      5  C   UNL     1      33.513 -21.680 -19.121  0.00  0.00    +0.037 C 
ATOM      6  C   UNL     1      35.975 -20.776 -20.071  0.00  0.00    -0.001 C 
ATOM      7  C   UNL     1      33.561 -20.733 -20.144  0.00  0.00    -0.001 C 
BRANCH   3   8
ATOM      8  C   UNL     1      34.842 -19.270 -21.714  0.00  0.00    +0.058 C 
BRANCH   8   9
ATOM      9  C   UNL     1      34.180 -17.942 -21.332  0.00  0.00    +0.147 C 
BRANCH   9  10
ATOM     10  O   UNL     1      35.128 -17.108 -20.676  0.00  0.00    -0.351 OA
ATOM     11  C   UNL     1      34.685 -15.760 -20.619  0.00  0.00    +0.174 C 
ENDBRANCH   9  10
ENDBRANCH   8   9
ENDBRANCH   3   8
ENDBRANCH   1   2
BRANCH   1  12
ATOM     12  C   UNL     1      35.526 -22.890 -16.470  0.00  0.00    +0.232 C 
BRANCH  12  13
ATOM     13  C   UNL     1      35.044 -23.735 -15.292  0.00  0.00    +0.133 C 
BRANCH  13  14
ATOM     14  O   UNL     1      35.183 -22.967 -14.094  0.00  0.00    -0.383 OA
ATOM     15  H   UNL     1      36.117 -22.936 -13.835  0.00  0.00    +0.210 HD
ENDBRANCH  13  14
BRANCH  13  16
ATOM     16  C   UNL     1      35.829 -25.036 -15.119  0.00  0.00    -0.048 C 
BRANCH  16  17
ATOM     17  N   UNL     1      37.264 -24.836 -15.274  0.00  0.00    +0.387 N 
ATOM     18  H   UNL     1      37.522 -23.941 -14.859  0.00  0.00    -0.084 HD
ATOM     19  H   UNL     1      37.489 -24.845 -16.269  0.00  0.00    -0.084 HD
BRANCH  17  20
ATOM     20  C   UNL     1      38.013 -25.899 -14.617  0.00  0.00    -0.062 C 
ATOM     21  C   UNL     1      37.568 -26.039 -13.164  0.00  0.00    -0.023 C 
ATOM     22  C   UNL     1      39.505 -25.599 -14.708  0.00  0.00    -0.023 C 
ENDBRANCH  17  20
ENDBRANCH  16  17
ENDBRANCH  13  16
ENDBRANCH  12  13
ENDBRANCH   1  12
TORSDOF 10
ENDMDL
