MODEL 1
REMARK VINA RESULT:      -7.3      0.000      0.000
REMARK  Name = 171
REMARK  2 active torsions:
REMARK  status: ('A' for Active; 'I' for Inactive)
REMARK    1  A    between atoms: C_7  and  C_16
REMARK    2  A    between atoms: C_16  and  N_17
REMARK                            x       y       z     vdW  Elec       q    Type
REMARK                         _______ _______ _______ _____ _____    ______ ____
ROOT
ATOM      1  O   UNL     1      36.930 -21.236 -19.647  0.00  0.00    -0.209 OA
ATOM      2  N   UNL     1      32.752 -19.786 -20.831  0.00  0.00    -0.300 N 
ATOM      3  N   UNL     1      32.914 -21.706 -19.383  0.00  0.00    -0.264 N 
ATOM      4  N   UNL     1      35.129 -22.411 -18.802  0.00  0.00    -0.302 NA
ATOM      5  N   UNL     1      33.218 -23.531 -18.001  0.00  0.00    -0.320 N 
ATOM      6  C   UNL     1      34.784 -20.509 -20.240  0.00  0.00    +0.117 C 
ATOM      7  C   UNL     1      34.941 -19.384 -21.084  0.00  0.00    -0.015 C 
ATOM      8  C   UNL     1      33.436 -20.715 -20.117  0.00  0.00    +0.115 C 
ATOM      9  C   UNL     1      33.672 -18.957 -21.434  0.00  0.00    +0.057 C 
ATOM     10  C   UNL     1      35.718 -21.390 -19.556  0.00  0.00    +0.209 C 
ATOM     11  C   UNL     1      33.819 -22.539 -18.734  0.00  0.00    +0.248 C 
ATOM     12  H   UNL     1      31.773 -19.718 -20.906  0.00  0.00    +0.153 HD
ATOM     13  H   UNL     1      31.942 -21.838 -19.306  0.00  0.00    +0.157 HD
ATOM     14  H   UNL     1      32.235 -23.596 -17.973  0.00  0.00    +0.146 HD
ATOM     15  H   UNL     1      33.768 -24.177 -17.502  0.00  0.00    +0.146 HD
ENDROOT
BRANCH   7  16
ATOM     16  C   UNL     1      36.210 -18.767 -21.518  0.00  0.00    -0.057 C 
BRANCH  16  17
ATOM     17  N   UNL     1      36.069 -18.242 -22.880  0.00  0.00    +0.383 N 
ATOM     18  H   UNL     1      35.354 -18.775 -23.376  0.00  0.00    -0.089 HD
ATOM     19  H   UNL     1      36.960 -18.328 -23.371  0.00  0.00    -0.089 HD
ATOM     20  H   UNL     1      35.795 -17.262 -22.840  0.00  0.00    -0.089 HD
ENDBRANCH  16  17
ENDBRANCH   7  16
TORSDOF 2
ENDMDL
MODEL 2
REMARK VINA RESULT:      -7.2      1.701      2.493
REMARK  Name = 171
REMARK  2 active torsions:
REMARK  status: ('A' for Active; 'I' for Inactive)
REMARK    1  A    between atoms: C_7  and  C_16
REMARK    2  A    between atoms: C_16  and  N_17
REMARK                            x       y       z     vdW  Elec       q    Type
REMARK                         _______ _______ _______ _____ _____    ______ ____
ROOT
ATOM      1  O   UNL     1      32.358 -20.133 -20.987  0.00  0.00    -0.209 OA
ATOM      2  N   UNL     1      36.717 -20.630 -19.676  0.00  0.00    -0.300 N 
ATOM      3  N   UNL     1      35.077 -22.134 -18.745  0.00  0.00    -0.264 N 
ATOM      4  N   UNL     1      32.817 -21.819 -19.474  0.00  0.00    -0.302 NA
ATOM      5  N   UNL     1      33.404 -23.504 -17.936  0.00  0.00    -0.320 N 
ATOM      6  C   UNL     1      34.582 -20.405 -20.304  0.00  0.00    +0.117 C 
ATOM      7  C   UNL     1      35.348 -19.422 -20.975  0.00  0.00    -0.015 C 
ATOM      8  C   UNL     1      35.457 -21.114 -19.527  0.00  0.00    +0.115 C 
ATOM      9  C   UNL     1      36.662 -19.584 -20.569  0.00  0.00    +0.057 C 
ATOM     10  C   UNL     1      33.169 -20.749 -20.304  0.00  0.00    +0.209 C 
ATOM     11  C   UNL     1      33.724 -22.451 -18.756  0.00  0.00    +0.248 C 
ATOM     12  H   UNL     1      37.524 -20.967 -19.226  0.00  0.00    +0.153 HD
ATOM     13  H   UNL     1      35.722 -22.631 -18.193  0.00  0.00    +0.157 HD
ATOM     14  H   UNL     1      34.109 -23.953 -17.414  0.00  0.00    +0.146 HD
ATOM     15  H   UNL     1      32.472 -23.811 -17.869  0.00  0.00    +0.146 HD
ENDROOT
BRANCH   7  16
ATOM     16  C   UNL     1      34.858 -18.409 -21.930  0.00  0.00    -0.057 C 
BRANCH  16  17
ATOM     17  N   UNL     1      34.522 -19.047 -23.206  0.00  0.00    +0.383 N 
ATOM     18  H   UNL     1      33.611 -19.500 -23.128  0.00  0.00    -0.089 HD
ATOM     19  H   UNL     1      35.231 -19.745 -23.433  0.00  0.00    -0.089 HD
ATOM     20  H   UNL     1      34.489 -18.342 -23.941  0.00  0.00    -0.089 HD
ENDBRANCH  16  17
ENDBRANCH   7  16
TORSDOF 2
ENDMDL
MODEL 3
REMARK VINA RESULT:      -7.2      3.508      6.127
REMARK  Name = 171
REMARK  2 active torsions:
REMARK  status: ('A' for Active; 'I' for Inactive)
REMARK    1  A    between atoms: C_7  and  C_16
REMARK    2  A    between atoms: C_16  and  N_17
REMARK                            x       y       z     vdW  Elec       q    Type
REMARK                         _______ _______ _______ _____ _____    ______ ____
ROOT
ATOM      1  O   UNL     1      35.003 -16.415 -20.190  0.00  0.00    -0.209 OA
ATOM      2  N   UNL     1      34.596 -17.932 -24.491  0.00  0.00    -0.300 N 
ATOM      3  N   UNL     1      34.360 -15.565 -24.100  0.00  0.00    -0.264 N 
ATOM      4  N   UNL     1      34.585 -14.839 -21.828  0.00  0.00    -0.302 NA
ATOM      5  N   UNL     1      34.159 -13.324 -23.581  0.00  0.00    -0.320 N 
ATOM      6  C   UNL     1      34.792 -17.171 -22.397  0.00  0.00    +0.117 C 
ATOM      7  C   UNL     1      34.967 -18.575 -22.377  0.00  0.00    -0.015 C 
ATOM      8  C   UNL     1      34.569 -16.827 -23.703  0.00  0.00    +0.115 C 
ATOM      9  C   UNL     1      34.841 -19.019 -23.682  0.00  0.00    +0.057 C 
ATOM     10  C   UNL     1      34.808 -16.142 -21.369  0.00  0.00    +0.209 C 
ATOM     11  C   UNL     1      34.379 -14.592 -23.106  0.00  0.00    +0.248 C 
ATOM     12  H   UNL     1      34.463 -17.952 -25.466  0.00  0.00    +0.153 HD
ATOM     13  H   UNL     1      34.201 -15.338 -25.044  0.00  0.00    +0.157 HD
ATOM     14  H   UNL     1      34.009 -13.177 -24.543  0.00  0.00    +0.146 HD
ATOM     15  H   UNL     1      34.152 -12.560 -22.960  0.00  0.00    +0.146 HD
ENDROOT
BRANCH   7  16
ATOM     16  C   UNL     1      35.234 -19.422 -21.198  0.00  0.00    -0.057 C 
BRANCH  16  17
ATOM     17  N   UNL     1      36.549 -19.099 -20.639  0.00  0.00    +0.383 N 
ATOM     18  H   UNL     1      37.051 -19.962 -20.429  0.00  0.00    -0.089 HD
ATOM     19  H   UNL     1      36.430 -18.558 -19.782  0.00  0.00    -0.089 HD
ATOM     20  H   UNL     1      37.081 -18.552 -21.315  0.00  0.00    -0.089 HD
ENDBRANCH  16  17
ENDBRANCH   7  16
TORSDOF 2
ENDMDL
MODEL 4
REMARK VINA RESULT:      -7.1      4.614      7.319
REMARK  Name = 171
REMARK  2 active torsions:
REMARK  status: ('A' for Active; 'I' for Inactive)
REMARK    1  A    between atoms: C_7  and  C_16
REMARK    2  A    between atoms: C_16  and  N_17
REMARK                            x       y       z     vdW  Elec       q    Type
REMARK                         _______ _______ _______ _____ _____    ______ ____
ROOT
ATOM      1  O   UNL     1      34.728 -17.871 -25.598  0.00  0.00    -0.209 OA
ATOM      2  N   UNL     1      34.058 -14.745 -22.320  0.00  0.00    -0.300 N 
ATOM      3  N   UNL     1      33.173 -14.289 -24.516  0.00  0.00    -0.264 N 
ATOM      4  N   UNL     1      33.558 -15.966 -26.183  0.00  0.00    -0.302 NA
ATOM      5  N   UNL     1      32.378 -13.984 -26.663  0.00  0.00    -0.320 N 
ATOM      6  C   UNL     1      34.374 -16.260 -23.935  0.00  0.00    +0.117 C 
ATOM      7  C   UNL     1      34.976 -16.743 -22.750  0.00  0.00    -0.015 C 
ATOM      8  C   UNL     1      33.829 -15.043 -23.625  0.00  0.00    +0.115 C 
ATOM      9  C   UNL     1      34.767 -15.789 -21.769  0.00  0.00    +0.057 C 
ATOM     10  C   UNL     1      34.251 -16.786 -25.286  0.00  0.00    +0.209 C 
ATOM     11  C   UNL     1      33.062 -14.805 -25.802  0.00  0.00    +0.248 C 
ATOM     12  H   UNL     1      33.770 -13.928 -21.853  0.00  0.00    +0.153 HD
ATOM     13  H   UNL     1      32.788 -13.416 -24.273  0.00  0.00    +0.157 HD
ATOM     14  H   UNL     1      32.022 -13.123 -26.342  0.00  0.00    +0.146 HD
ATOM     15  H   UNL     1      32.243 -14.254 -27.599  0.00  0.00    +0.146 HD
ENDROOT
BRANCH   7  16
ATOM     16  C   UNL     1      35.696 -18.020 -22.572  0.00  0.00    -0.057 C 
BRANCH  16  17
ATOM     17  N   UNL     1      34.760 -19.141 -22.699  0.00  0.00    +0.383 N 
ATOM     18  H   UNL     1      34.780 -19.698 -21.845  0.00  0.00    -0.089 HD
ATOM     19  H   UNL     1      35.034 -19.723 -23.492  0.00  0.00    -0.089 HD
ATOM     20  H   UNL     1      33.818 -18.783 -22.850  0.00  0.00    -0.089 HD
ENDBRANCH  16  17
ENDBRANCH   7  16
TORSDOF 2
ENDMDL
MODEL 5
REMARK VINA RESULT:      -7.1      3.969      5.463
REMARK  Name = 171
REMARK  2 active torsions:
REMARK  status: ('A' for Active; 'I' for Inactive)
REMARK    1  A    between atoms: C_7  and  C_16
REMARK    2  A    between atoms: C_16  and  N_17
REMARK                            x       y       z     vdW  Elec       q    Type
REMARK                         _______ _______ _______ _____ _____    ______ ____
ROOT
ATOM      1  O   UNL     1      34.179 -15.022 -20.901  0.00  0.00    -0.209 OA
ATOM      2  N   UNL     1      34.835 -17.476 -24.711  0.00  0.00    -0.300 N 
ATOM      3  N   UNL     1      35.646 -18.382 -22.629  0.00  0.00    -0.264 N 
ATOM      4  N   UNL     1      35.269 -17.048 -20.675  0.00  0.00    -0.302 NA
ATOM      5  N   UNL     1      36.368 -19.128 -20.567  0.00  0.00    -0.320 N 
ATOM      6  C   UNL     1      34.524 -16.293 -22.839  0.00  0.00    +0.117 C 
ATOM      7  C   UNL     1      33.970 -15.567 -23.919  0.00  0.00    -0.015 C 
ATOM      8  C   UNL     1      35.038 -17.445 -23.369  0.00  0.00    +0.115 C 
ATOM      9  C   UNL     1      34.175 -16.319 -25.063  0.00  0.00    +0.057 C 
ATOM     10  C   UNL     1      34.627 -16.044 -21.409  0.00  0.00    +0.209 C 
ATOM     11  C   UNL     1      35.736 -18.130 -21.265  0.00  0.00    +0.248 C 
ATOM     12  H   UNL     1      35.111 -18.195 -25.323  0.00  0.00    +0.153 HD
ATOM     13  H   UNL     1      36.010 -19.204 -23.030  0.00  0.00    +0.157 HD
ATOM     14  H   UNL     1      36.705 -19.923 -21.041  0.00  0.00    +0.146 HD
ATOM     15  H   UNL     1      36.486 -19.051 -19.593  0.00  0.00    +0.146 HD
ENDROOT
BRANCH   7  16
ATOM     16  C   UNL     1      33.296 -14.255 -23.858  0.00  0.00    -0.057 C 
BRANCH  16  17
ATOM     17  N   UNL     1      34.255 -13.219 -23.466  0.00  0.00    +0.383 N 
ATOM     18  H   UNL     1      34.080 -12.943 -22.499  0.00  0.00    -0.089 HD
ATOM     19  H   UNL     1      34.147 -12.408 -24.076  0.00  0.00    -0.089 HD
ATOM     20  H   UNL     1      35.203 -13.584 -23.548  0.00  0.00    -0.089 HD
ENDBRANCH  16  17
ENDBRANCH   7  16
TORSDOF 2
ENDMDL
MODEL 6
REMARK VINA RESULT:      -7.1      1.908      4.748
REMARK  Name = 171
REMARK  2 active torsions:
REMARK  status: ('A' for Active; 'I' for Inactive)
REMARK    1  A    between atoms: C_7  and  C_16
REMARK    2  A    between atoms: C_16  and  N_17
REMARK                            x       y       z     vdW  Elec       q    Type
REMARK                         _______ _______ _______ _____ _____    ______ ____
ROOT
ATOM      1  O   UNL     1      32.433 -20.496 -20.925  0.00  0.00    -0.209 OA
ATOM      2  N   UNL     1      36.796 -20.522 -19.535  0.00  0.00    -0.300 N 
ATOM      3  N   UNL     1      36.022 -18.619 -20.799  0.00  0.00    -0.264 N 
ATOM      4  N   UNL     1      33.731 -18.670 -21.493  0.00  0.00    -0.302 NA
ATOM      5  N   UNL     1      35.148 -16.862 -22.014  0.00  0.00    -0.320 N 
ATOM      6  C   UNL     1      34.668 -20.489 -20.222  0.00  0.00    +0.117 C 
ATOM      7  C   UNL     1      34.885 -21.692 -19.510  0.00  0.00    -0.015 C 
ATOM      8  C   UNL     1      35.857 -19.812 -20.211  0.00  0.00    +0.115 C 
ATOM      9  C   UNL     1      36.207 -21.687 -19.096  0.00  0.00    +0.057 C 
ATOM     10  C   UNL     1      33.512 -19.915 -20.894  0.00  0.00    +0.209 C 
ATOM     11  C   UNL     1      34.909 -18.083 -21.436  0.00  0.00    +0.248 C 
ATOM     12  H   UNL     1      37.730 -20.252 -19.386  0.00  0.00    +0.153 HD
ATOM     13  H   UNL     1      36.886 -18.148 -20.780  0.00  0.00    +0.157 HD
ATOM     14  H   UNL     1      36.042 -16.453 -21.951  0.00  0.00    +0.146 HD
ATOM     15  H   UNL     1      34.427 -16.393 -22.492  0.00  0.00    +0.146 HD
ENDROOT
BRANCH   7  16
ATOM     16  C   UNL     1      33.903 -22.761 -19.245  0.00  0.00    -0.057 C 
BRANCH  16  17
ATOM     17  N   UNL     1      32.765 -22.219 -18.496  0.00  0.00    +0.383 N 
ATOM     18  H   UNL     1      31.978 -22.866 -18.559  0.00  0.00    -0.089 HD
ATOM     19  H   UNL     1      32.497 -21.318 -18.892  0.00  0.00    -0.089 HD
ATOM     20  H   UNL     1      33.028 -22.098 -17.519  0.00  0.00    -0.089 HD
ENDBRANCH  16  17
ENDBRANCH   7  16
TORSDOF 2
ENDMDL
MODEL 7
REMARK VINA RESULT:      -7.0      5.624      6.888
REMARK  Name = 171
REMARK  2 active torsions:
REMARK  status: ('A' for Active; 'I' for Inactive)
REMARK    1  A    between atoms: C_7  and  C_16
REMARK    2  A    between atoms: C_16  and  N_17
REMARK                            x       y       z     vdW  Elec       q    Type
REMARK                         _______ _______ _______ _____ _____    ______ ____
ROOT
ATOM      1  O   UNL     1      33.588 -15.541 -26.443  0.00  0.00    -0.209 OA
ATOM      2  N   UNL     1      34.622 -15.501 -21.983  0.00  0.00    -0.300 N 
ATOM      3  N   UNL     1      34.803 -17.593 -23.167  0.00  0.00    -0.264 N 
ATOM      4  N   UNL     1      34.249 -17.543 -25.497  0.00  0.00    -0.302 NA
ATOM      5  N   UNL     1      34.934 -19.526 -24.424  0.00  0.00    -0.320 N 
ATOM      6  C   UNL     1      34.122 -15.542 -24.163  0.00  0.00    +0.117 C 
ATOM      7  C   UNL     1      33.943 -14.220 -23.691  0.00  0.00    -0.015 C 
ATOM      8  C   UNL     1      34.535 -16.283 -23.089  0.00  0.00    +0.115 C 
ATOM      9  C   UNL     1      34.258 -14.222 -22.343  0.00  0.00    +0.057 C 
ATOM     10  C   UNL     1      33.958 -16.175 -25.462  0.00  0.00    +0.209 C 
ATOM     11  C   UNL     1      34.642 -18.185 -24.415  0.00  0.00    +0.248 C 
ATOM     12  H   UNL     1      34.896 -15.795 -21.085  0.00  0.00    +0.153 HD
ATOM     13  H   UNL     1      35.099 -18.110 -22.383  0.00  0.00    +0.157 HD
ATOM     14  H   UNL     1      35.226 -19.972 -23.596  0.00  0.00    +0.146 HD
ATOM     15  H   UNL     1      34.853 -20.042 -25.258  0.00  0.00    +0.146 HD
ENDROOT
BRANCH   7  16
ATOM     16  C   UNL     1      33.505 -13.047 -24.473  0.00  0.00    -0.057 C 
BRANCH  16  17
ATOM     17  N   UNL     1      34.257 -11.860 -24.055  0.00  0.00    +0.383 N 
ATOM     18  H   UNL     1      33.645 -11.044 -24.081  0.00  0.00    -0.089 HD
ATOM     19  H   UNL     1      35.043 -11.716 -24.690  0.00  0.00    -0.089 HD
ATOM     20  H   UNL     1      34.605 -11.994 -23.107  0.00  0.00    -0.089 HD
ENDBRANCH  16  17
ENDBRANCH   7  16
TORSDOF 2
ENDMDL
MODEL 8
REMARK VINA RESULT:      -6.9      6.636      8.675
REMARK  Name = 171
REMARK  2 active torsions:
REMARK  status: ('A' for Active; 'I' for Inactive)
REMARK    1  A    between atoms: C_7  and  C_16
REMARK    2  A    between atoms: C_16  and  N_17
REMARK                            x       y       z     vdW  Elec       q    Type
REMARK                         _______ _______ _______ _____ _____    ______ ____
ROOT
ATOM      1  O   UNL     1      36.753 -26.043 -11.995  0.00  0.00    -0.209 OA
ATOM      2  N   UNL     1      37.246 -23.536 -15.795  0.00  0.00    -0.300 N 
ATOM      3  N   UNL     1      39.081 -24.950 -15.127  0.00  0.00    -0.264 N 
ATOM      4  N   UNL     1      38.756 -26.235 -13.132  0.00  0.00    -0.302 NA
ATOM      5  N   UNL     1      40.755 -26.349 -14.372  0.00  0.00    -0.320 N 
ATOM      6  C   UNL     1      37.024 -24.769 -13.942  0.00  0.00    +0.117 C 
ATOM      7  C   UNL     1      35.833 -24.030 -14.128  0.00  0.00    -0.015 C 
ATOM      8  C   UNL     1      37.853 -24.435 -14.980  0.00  0.00    +0.115 C 
ATOM      9  C   UNL     1      35.996 -23.277 -15.279  0.00  0.00    +0.057 C 
ATOM     10  C   UNL     1      37.468 -25.723 -12.938  0.00  0.00    +0.209 C 
ATOM     11  C   UNL     1      39.490 -25.861 -14.160  0.00  0.00    +0.248 C 
ATOM     12  H   UNL     1      37.631 -23.139 -16.609  0.00  0.00    +0.153 HD
ATOM     13  H   UNL     1      39.662 -24.697 -15.880  0.00  0.00    +0.157 HD
ATOM     14  H   UNL     1      41.275 -26.047 -15.152  0.00  0.00    +0.146 HD
ATOM     15  H   UNL     1      41.143 -27.002 -13.746  0.00  0.00    +0.146 HD
ENDROOT
BRANCH   7  16
ATOM     16  C   UNL     1      34.632 -24.045 -13.270  0.00  0.00    -0.057 C 
BRANCH  16  17
ATOM     17  N   UNL     1      34.968 -23.547 -11.933  0.00  0.00    +0.383 N 
ATOM     18  H   UNL     1      34.302 -22.822 -11.664  0.00  0.00    -0.089 HD
ATOM     19  H   UNL     1      35.911 -23.157 -11.943  0.00  0.00    -0.089 HD
ATOM     20  H   UNL     1      34.923 -24.314 -11.263  0.00  0.00    -0.089 HD
ENDBRANCH  16  17
ENDBRANCH   7  16
TORSDOF 2
ENDMDL
MODEL 9
REMARK VINA RESULT:      -6.8      4.985      6.718
REMARK  Name = 171
REMARK  2 active torsions:
REMARK  status: ('A' for Active; 'I' for Inactive)
REMARK    1  A    between atoms: C_7  and  C_16
REMARK    2  A    between atoms: C_16  and  N_17
REMARK                            x       y       z     vdW  Elec       q    Type
REMARK                         _______ _______ _______ _____ _____    ______ ____
ROOT
ATOM      1  O   UNL     1      31.982 -23.552 -13.234  0.00  0.00    -0.209 OA
ATOM      2  N   UNL     1      32.438 -22.901 -17.743  0.00  0.00    -0.300 N 
ATOM      3  N   UNL     1      30.228 -22.728 -16.793  0.00  0.00    -0.264 N 
ATOM      4  N   UNL     1      30.062 -23.079 -14.429  0.00  0.00    -0.302 NA
ATOM      5  N   UNL     1      28.173 -22.591 -15.749  0.00  0.00    -0.320 N 
ATOM      6  C   UNL     1      32.194 -23.214 -15.542  0.00  0.00    +0.117 C 
ATOM      7  C   UNL     1      33.564 -23.365 -15.863  0.00  0.00    -0.015 C 
ATOM      8  C   UNL     1      31.550 -22.934 -16.717  0.00  0.00    +0.115 C 
ATOM      9  C   UNL     1      33.687 -23.166 -17.227  0.00  0.00    +0.057 C 
ATOM     10  C   UNL     1      31.438 -23.301 -14.303  0.00  0.00    +0.209 C 
ATOM     11  C   UNL     1      29.519 -22.813 -15.600  0.00  0.00    +0.248 C 
ATOM     12  H   UNL     1      32.226 -22.721 -18.687  0.00  0.00    +0.153 HD
ATOM     13  H   UNL     1      29.783 -22.528 -17.647  0.00  0.00    +0.157 HD
ATOM     14  H   UNL     1      27.803 -22.395 -16.641  0.00  0.00    +0.146 HD
ATOM     15  H   UNL     1      27.578 -22.628 -14.967  0.00  0.00    +0.146 HD
ENDROOT
BRANCH   7  16
ATOM     16  C   UNL     1      34.668 -23.673 -14.933  0.00  0.00    -0.057 C 
BRANCH  16  17
ATOM     17  N   UNL     1      34.508 -25.030 -14.402  0.00  0.00    +0.383 N 
ATOM     18  H   UNL     1      33.521 -25.284 -14.412  0.00  0.00    -0.089 HD
ATOM     19  H   UNL     1      34.858 -25.063 -13.443  0.00  0.00    -0.089 HD
ATOM     20  H   UNL     1      35.034 -25.685 -14.979  0.00  0.00    -0.089 HD
ENDBRANCH  16  17
ENDBRANCH   7  16
TORSDOF 2
ENDMDL
