MODEL 1
REMARK VINA RESULT:      -9.1      0.000      0.000
REMARK  Name = 65457
REMARK  1 active torsions:
REMARK  status: ('A' for Active; 'I' for Inactive)
REMARK    1  A    between atoms: C_6  and  C_13
REMARK                            x       y       z     vdW  Elec       q    Type
REMARK                         _______ _______ _______ _____ _____    ______ ____
ROOT
ATOM      1 BR   UNL     1      34.822 -19.614 -24.572  0.00  0.00    -0.034 Br
ATOM      2  O   UNL     1      34.830 -16.778 -25.681  0.00  0.00    -0.209 OA
ATOM      3  N   UNL     1      34.530 -16.641 -21.716  0.00  0.00    -0.275 N 
ATOM      4  N   UNL     1      34.653 -15.512 -23.782  0.00  0.00    -0.302 NA
ATOM      5  N   UNL     1      34.468 -14.342 -21.749  0.00  0.00    -0.320 N 
ATOM      6  C   UNL     1      34.609 -17.879 -22.304  0.00  0.00    +0.069 C 
ATOM      7  C   UNL     1      34.710 -17.996 -23.642  0.00  0.00    +0.142 C 
ATOM      8  C   UNL     1      34.556 -15.500 -22.479  0.00  0.00    +0.248 C 
ATOM      9  C   UNL     1      34.737 -16.721 -24.457  0.00  0.00    +0.215 C 
ATOM     10  H   UNL     1      34.456 -16.571 -20.737  0.00  0.00    +0.156 HD
ATOM     11  H   UNL     1      34.396 -14.383 -20.769  0.00  0.00    +0.146 HD
ATOM     12  H   UNL     1      34.476 -13.471 -22.207  0.00  0.00    +0.146 HD
ENDROOT
BRANCH   6  13
ATOM     13  C   UNL     1      34.573 -19.030 -21.413  0.00  0.00    +0.015 C 
ATOM     14  C   UNL     1      33.347 -19.549 -20.996  0.00  0.00    +0.001 C 
ATOM     15  C   UNL     1      35.762 -19.614 -20.980  0.00  0.00    +0.001 C 
ATOM     16  C   UNL     1      33.312 -20.652 -20.143  0.00  0.00    +0.000 C 
ATOM     17  C   UNL     1      35.727 -20.718 -20.128  0.00  0.00    +0.000 C 
ATOM     18  C   UNL     1      34.501 -21.236 -19.709  0.00  0.00    +0.000 C 
ENDBRANCH   6  13
TORSDOF 1
ENDMDL
MODEL 2
REMARK VINA RESULT:      -8.9      0.605      1.386
REMARK  Name = 65457
REMARK  1 active torsions:
REMARK  status: ('A' for Active; 'I' for Inactive)
REMARK    1  A    between atoms: C_6  and  C_13
REMARK                            x       y       z     vdW  Elec       q    Type
REMARK                         _______ _______ _______ _____ _____    ______ ____
ROOT
ATOM      1 BR   UNL     1      34.846 -19.453 -24.240  0.00  0.00    -0.034 Br
ATOM      2  O   UNL     1      34.990 -16.509 -25.006  0.00  0.00    -0.209 OA
ATOM      3  N   UNL     1      34.623 -16.827 -21.057  0.00  0.00    -0.275 N 
ATOM      4  N   UNL     1      34.829 -15.469 -22.973  0.00  0.00    -0.302 NA
ATOM      5  N   UNL     1      34.654 -14.539 -20.819  0.00  0.00    -0.320 N 
ATOM      6  C   UNL     1      34.661 -17.990 -21.786  0.00  0.00    +0.069 C 
ATOM      7  C   UNL     1      34.783 -17.952 -23.128  0.00  0.00    +0.142 C 
ATOM      8  C   UNL     1      34.709 -15.606 -21.679  0.00  0.00    +0.248 C 
ATOM      9  C   UNL     1      34.877 -16.592 -23.786  0.00  0.00    +0.215 C 
ATOM     10  H   UNL     1      34.533 -16.869 -20.078  0.00  0.00    +0.156 HD
ATOM     11  H   UNL     1      34.563 -14.692 -19.851  0.00  0.00    +0.146 HD
ATOM     12  H   UNL     1      34.706 -13.622 -21.171  0.00  0.00    +0.146 HD
ENDROOT
BRANCH   6  13
ATOM     13  C   UNL     1      34.562 -19.234 -21.039  0.00  0.00    +0.015 C 
ATOM     14  C   UNL     1      35.720 -19.917 -20.666  0.00  0.00    +0.001 C 
ATOM     15  C   UNL     1      33.310 -19.743 -20.695  0.00  0.00    +0.001 C 
ATOM     16  C   UNL     1      35.625 -21.109 -19.949  0.00  0.00    +0.000 C 
ATOM     17  C   UNL     1      33.216 -20.936 -19.978  0.00  0.00    +0.000 C 
ATOM     18  C   UNL     1      34.373 -21.619 -19.605  0.00  0.00    +0.000 C 
ENDBRANCH   6  13
TORSDOF 1
ENDMDL
MODEL 3
REMARK VINA RESULT:      -7.7      2.104      2.571
REMARK  Name = 65457
REMARK  1 active torsions:
REMARK  status: ('A' for Active; 'I' for Inactive)
REMARK    1  A    between atoms: C_6  and  C_13
REMARK                            x       y       z     vdW  Elec       q    Type
REMARK                         _______ _______ _______ _____ _____    ______ ____
ROOT
ATOM      1 BR   UNL     1      34.547 -15.971 -20.115  0.00  0.00    -0.034 Br
ATOM      2  O   UNL     1      34.509 -14.229 -22.612  0.00  0.00    -0.209 OA
ATOM      3  N   UNL     1      34.640 -18.060 -23.679  0.00  0.00    -0.275 N 
ATOM      4  N   UNL     1      34.573 -15.784 -24.291  0.00  0.00    -0.302 NA
ATOM      5  N   UNL     1      34.642 -17.491 -25.908  0.00  0.00    -0.320 N 
ATOM      6  C   UNL     1      34.619 -17.776 -22.336  0.00  0.00    +0.069 C 
ATOM      7  C   UNL     1      34.577 -16.499 -21.907  0.00  0.00    +0.142 C 
ATOM      8  C   UNL     1      34.615 -17.051 -24.610  0.00  0.00    +0.248 C 
ATOM      9  C   UNL     1      34.550 -15.408 -22.956  0.00  0.00    +0.215 C 
ATOM     10  H   UNL     1      34.671 -18.997 -23.978  0.00  0.00    +0.156 HD
ATOM     11  H   UNL     1      34.673 -18.456 -26.100  0.00  0.00    +0.146 HD
ATOM     12  H   UNL     1      34.629 -16.842 -26.648  0.00  0.00    +0.146 HD
ENDROOT
BRANCH   6  13
ATOM     13  C   UNL     1      34.649 -18.911 -21.427  0.00  0.00    +0.015 C 
ATOM     14  C   UNL     1      33.455 -19.481 -20.984  0.00  0.00    +0.001 C 
ATOM     15  C   UNL     1      35.871 -19.430 -21.000  0.00  0.00    +0.001 C 
ATOM     16  C   UNL     1      33.483 -20.569 -20.113  0.00  0.00    +0.000 C 
ATOM     17  C   UNL     1      35.899 -20.520 -20.128  0.00  0.00    +0.000 C 
ATOM     18  C   UNL     1      34.705 -21.089 -19.685  0.00  0.00    +0.000 C 
ENDBRANCH   6  13
TORSDOF 1
ENDMDL
MODEL 4
REMARK VINA RESULT:      -7.6      8.269     10.928
REMARK  Name = 65457
REMARK  1 active torsions:
REMARK  status: ('A' for Active; 'I' for Inactive)
REMARK    1  A    between atoms: C_6  and  C_13
REMARK                            x       y       z     vdW  Elec       q    Type
REMARK                         _______ _______ _______ _____ _____    ______ ____
ROOT
ATOM      1 BR   UNL     1      32.475  -7.275 -20.027  0.00  0.00    -0.034 Br
ATOM      2  O   UNL     1      31.683  -9.925 -18.754  0.00  0.00    -0.209 OA
ATOM      3  N   UNL     1      32.163 -10.436 -22.671  0.00  0.00    -0.275 N 
ATOM      4  N   UNL     1      31.636 -11.336 -20.557  0.00  0.00    -0.302 NA
ATOM      5  N   UNL     1      31.628 -12.666 -22.497  0.00  0.00    -0.320 N 
ATOM      6  C   UNL     1      32.373  -9.177 -22.165  0.00  0.00    +0.069 C 
ATOM      7  C   UNL     1      32.225  -8.936 -20.848  0.00  0.00    +0.142 C 
ATOM      8  C   UNL     1      31.803 -11.472 -21.846  0.00  0.00    +0.248 C 
ATOM      9  C   UNL     1      31.827 -10.097 -19.962  0.00  0.00    +0.215 C 
ATOM     10  H   UNL     1      32.274 -10.598 -23.635  0.00  0.00    +0.156 HD
ATOM     11  H   UNL     1      31.765 -12.720 -23.470  0.00  0.00    +0.146 HD
ATOM     12  H   UNL     1      31.367 -13.468 -21.991  0.00  0.00    +0.146 HD
ENDROOT
BRANCH   6  13
ATOM     13  C   UNL     1      32.751  -8.143 -23.117  0.00  0.00    +0.015 C 
ATOM     14  C   UNL     1      34.091  -7.973 -23.464  0.00  0.00    +0.001 C 
ATOM     15  C   UNL     1      31.774  -7.325 -23.683  0.00  0.00    +0.001 C 
ATOM     16  C   UNL     1      34.455  -6.984 -24.376  0.00  0.00    +0.000 C 
ATOM     17  C   UNL     1      32.138  -6.335 -24.596  0.00  0.00    +0.000 C 
ATOM     18  C   UNL     1      33.478  -6.165 -24.943  0.00  0.00    +0.000 C 
ENDBRANCH   6  13
TORSDOF 1
ENDMDL
MODEL 5
REMARK VINA RESULT:      -7.6      7.080      9.911
REMARK  Name = 65457
REMARK  1 active torsions:
REMARK  status: ('A' for Active; 'I' for Inactive)
REMARK    1  A    between atoms: C_6  and  C_13
REMARK                            x       y       z     vdW  Elec       q    Type
REMARK                         _______ _______ _______ _____ _____    ______ ____
ROOT
ATOM      1 BR   UNL     1      30.787 -11.135 -21.019  0.00  0.00    -0.034 Br
ATOM      2  O   UNL     1      32.177 -13.378 -22.539  0.00  0.00    -0.209 OA
ATOM      3  N   UNL     1      33.551  -9.870 -23.819  0.00  0.00    -0.275 N 
ATOM      4  N   UNL     1      33.575 -12.225 -23.938  0.00  0.00    -0.302 NA
ATOM      5  N   UNL     1      34.957 -10.909 -25.314  0.00  0.00    -0.320 N 
ATOM      6  C   UNL     1      32.596  -9.856 -22.833  0.00  0.00    +0.069 C 
ATOM      7  C   UNL     1      32.088 -11.009 -22.355  0.00  0.00    +0.142 C 
ATOM      8  C   UNL     1      34.007 -11.057 -24.336  0.00  0.00    +0.248 C 
ATOM      9  C   UNL     1      32.610 -12.302 -22.944  0.00  0.00    +0.215 C 
ATOM     10  H   UNL     1      33.913  -9.021 -24.159  0.00  0.00    +0.156 HD
ATOM     11  H   UNL     1      35.251 -10.009 -25.582  0.00  0.00    +0.146 HD
ATOM     12  H   UNL     1      35.344 -11.703 -25.748  0.00  0.00    +0.146 HD
ENDROOT
BRANCH   6  13
ATOM     13  C   UNL     1      32.175  -8.550 -22.348  0.00  0.00    +0.015 C 
ATOM     14  C   UNL     1      32.639  -8.080 -21.119  0.00  0.00    +0.001 C 
ATOM     15  C   UNL     1      31.311  -7.768 -23.113  0.00  0.00    +0.001 C 
ATOM     16  C   UNL     1      32.236  -6.829 -20.655  0.00  0.00    +0.000 C 
ATOM     17  C   UNL     1      30.909  -6.515 -22.649  0.00  0.00    +0.000 C 
ATOM     18  C   UNL     1      31.371  -6.046 -21.419  0.00  0.00    +0.000 C 
ENDBRANCH   6  13
TORSDOF 1
ENDMDL
MODEL 6
REMARK VINA RESULT:      -7.6      5.151      6.682
REMARK  Name = 65457
REMARK  1 active torsions:
REMARK  status: ('A' for Active; 'I' for Inactive)
REMARK    1  A    between atoms: C_6  and  C_13
REMARK                            x       y       z     vdW  Elec       q    Type
REMARK                         _______ _______ _______ _____ _____    ______ ____
ROOT
ATOM      1 BR   UNL     1      34.647 -11.047 -25.237  0.00  0.00    -0.034 Br
ATOM      2  O   UNL     1      33.111  -8.888 -23.736  0.00  0.00    -0.209 OA
ATOM      3  N   UNL     1      31.903 -12.470 -22.494  0.00  0.00    -0.275 N 
ATOM      4  N   UNL     1      31.748 -10.121 -22.371  0.00  0.00    -0.302 NA
ATOM      5  N   UNL     1      30.410 -11.514 -21.028  0.00  0.00    -0.320 N 
ATOM      6  C   UNL     1      32.877 -12.429 -23.460  0.00  0.00    +0.069 C 
ATOM      7  C   UNL     1      33.330 -11.249 -23.926  0.00  0.00    +0.142 C 
ATOM      8  C   UNL     1      31.373 -11.311 -21.983  0.00  0.00    +0.248 C 
ATOM      9  C   UNL     1      32.728  -9.988 -23.344  0.00  0.00    +0.215 C 
ATOM     10  H   UNL     1      31.581 -13.339 -22.163  0.00  0.00    +0.156 HD
ATOM     11  H   UNL     1      30.160 -12.430 -20.768  0.00  0.00    +0.146 HD
ATOM     12  H   UNL     1      29.969 -10.744 -20.604  0.00  0.00    +0.146 HD
ENDROOT
BRANCH   6  13
ATOM     13  C   UNL     1      33.377 -13.709 -23.940  0.00  0.00    +0.015 C 
ATOM     14  C   UNL     1      34.268 -14.445 -23.161  0.00  0.00    +0.001 C 
ATOM     15  C   UNL     1      32.962 -14.198 -25.178  0.00  0.00    +0.001 C 
ATOM     16  C   UNL     1      34.747 -15.672 -23.620  0.00  0.00    +0.000 C 
ATOM     17  C   UNL     1      33.440 -15.426 -25.638  0.00  0.00    +0.000 C 
ATOM     18  C   UNL     1      34.333 -16.162 -24.858  0.00  0.00    +0.000 C 
ENDBRANCH   6  13
TORSDOF 1
ENDMDL
MODEL 7
REMARK VINA RESULT:      -7.6      3.170      5.990
REMARK  Name = 65457
REMARK  1 active torsions:
REMARK  status: ('A' for Active; 'I' for Inactive)
REMARK    1  A    between atoms: C_6  and  C_13
REMARK                            x       y       z     vdW  Elec       q    Type
REMARK                         _______ _______ _______ _____ _____    ______ ____
ROOT
ATOM      1 BR   UNL     1      33.005 -14.586 -26.220  0.00  0.00    -0.034 Br
ATOM      2  O   UNL     1      34.219 -17.348 -25.813  0.00  0.00    -0.209 OA
ATOM      3  N   UNL     1      34.311 -15.349 -22.375  0.00  0.00    -0.275 N 
ATOM      4  N   UNL     1      34.783 -17.310 -23.595  0.00  0.00    -0.302 NA
ATOM      5  N   UNL     1      35.307 -17.128 -21.309  0.00  0.00    -0.320 N 
ATOM      6  C   UNL     1      33.771 -14.712 -23.464  0.00  0.00    +0.069 C 
ATOM      7  C   UNL     1      33.711 -15.333 -24.659  0.00  0.00    +0.142 C 
ATOM      8  C   UNL     1      34.798 -16.628 -22.480  0.00  0.00    +0.248 C 
ATOM      9  C   UNL     1      34.254 -16.743 -24.745  0.00  0.00    +0.215 C 
ATOM     10  H   UNL     1      34.349 -14.884 -21.508  0.00  0.00    +0.156 HD
ATOM     11  H   UNL     1      35.297 -16.576 -20.494  0.00  0.00    +0.146 HD
ATOM     12  H   UNL     1      35.681 -18.037 -21.284  0.00  0.00    +0.146 HD
ENDROOT
BRANCH   6  13
ATOM     13  C   UNL     1      33.282 -13.358 -23.255  0.00  0.00    +0.015 C 
ATOM     14  C   UNL     1      32.234 -13.126 -22.364  0.00  0.00    +0.001 C 
ATOM     15  C   UNL     1      33.862 -12.293 -23.944  0.00  0.00    +0.001 C 
ATOM     16  C   UNL     1      31.765 -11.828 -22.163  0.00  0.00    +0.000 C 
ATOM     17  C   UNL     1      33.393 -10.995 -23.741  0.00  0.00    +0.000 C 
ATOM     18  C   UNL     1      32.345 -10.763 -22.851  0.00  0.00    +0.000 C 
ENDBRANCH   6  13
TORSDOF 1
ENDMDL
MODEL 8
REMARK VINA RESULT:      -7.5      8.926     10.169
REMARK  Name = 65457
REMARK  1 active torsions:
REMARK  status: ('A' for Active; 'I' for Inactive)
REMARK    1  A    between atoms: C_6  and  C_13
REMARK                            x       y       z     vdW  Elec       q    Type
REMARK                         _______ _______ _______ _____ _____    ______ ____
ROOT
ATOM      1 BR   UNL     1      36.625 -21.936 -16.635  0.00  0.00    -0.034 Br
ATOM      2  O   UNL     1      39.014 -23.516 -15.601  0.00  0.00    -0.209 OA
ATOM      3  N   UNL     1      35.654 -25.357 -14.531  0.00  0.00    -0.275 N 
ATOM      4  N   UNL     1      38.010 -25.272 -14.530  0.00  0.00    -0.302 NA
ATOM      5  N   UNL     1      36.841 -27.016 -13.469  0.00  0.00    -0.320 N 
ATOM      6  C   UNL     1      35.538 -24.197 -15.256  0.00  0.00    +0.069 C 
ATOM      7  C   UNL     1      36.637 -23.524 -15.648  0.00  0.00    +0.142 C 
ATOM      8  C   UNL     1      36.889 -25.854 -14.194  0.00  0.00    +0.248 C 
ATOM      9  C   UNL     1      37.985 -24.095 -15.263  0.00  0.00    +0.215 C 
ATOM     10  H   UNL     1      34.843 -25.839 -14.250  0.00  0.00    +0.156 HD
ATOM     11  H   UNL     1      35.973 -27.418 -13.239  0.00  0.00    +0.146 HD
ATOM     12  H   UNL     1      37.676 -27.449 -13.178  0.00  0.00    +0.146 HD
ENDROOT
BRANCH   6  13
ATOM     13  C   UNL     1      34.188 -23.750 -15.564  0.00  0.00    +0.015 C 
ATOM     14  C   UNL     1      33.815 -23.524 -16.889  0.00  0.00    +0.001 C 
ATOM     15  C   UNL     1      33.268 -23.549 -14.535  0.00  0.00    +0.001 C 
ATOM     16  C   UNL     1      32.521 -23.095 -17.185  0.00  0.00    +0.000 C 
ATOM     17  C   UNL     1      31.974 -23.121 -14.832  0.00  0.00    +0.000 C 
ATOM     18  C   UNL     1      31.601 -22.894 -16.156  0.00  0.00    +0.000 C 
ENDBRANCH   6  13
TORSDOF 1
ENDMDL
MODEL 9
REMARK VINA RESULT:      -7.5      3.588      4.776
REMARK  Name = 65457
REMARK  1 active torsions:
REMARK  status: ('A' for Active; 'I' for Inactive)
REMARK    1  A    between atoms: C_6  and  C_13
REMARK                            x       y       z     vdW  Elec       q    Type
REMARK                         _______ _______ _______ _____ _____    ______ ____
ROOT
ATOM      1 BR   UNL     1      32.380 -15.337 -20.881  0.00  0.00    -0.034 Br
ATOM      2  O   UNL     1      31.679 -12.397 -21.251  0.00  0.00    -0.209 OA
ATOM      3  N   UNL     1      34.147 -13.539 -24.155  0.00  0.00    -0.275 N 
ATOM      4  N   UNL     1      32.859 -11.849 -23.135  0.00  0.00    -0.302 NA
ATOM      5  N   UNL     1      34.122 -11.431 -25.074  0.00  0.00    -0.320 N 
ATOM      6  C   UNL     1      33.784 -14.481 -23.224  0.00  0.00    +0.069 C 
ATOM      7  C   UNL     1      32.953 -14.159 -22.214  0.00  0.00    +0.142 C 
ATOM      8  C   UNL     1      33.669 -12.255 -24.076  0.00  0.00    +0.248 C 
ATOM      9  C   UNL     1      32.441 -12.736 -22.153  0.00  0.00    +0.215 C 
ATOM     10  H   UNL     1      34.756 -13.788 -24.887  0.00  0.00    +0.156 HD
ATOM     11  H   UNL     1      34.732 -11.782 -25.763  0.00  0.00    +0.146 HD
ATOM     12  H   UNL     1      33.837 -10.490 -25.103  0.00  0.00    +0.146 HD
ENDROOT
BRANCH   6  13
ATOM     13  C   UNL     1      34.342 -15.815 -23.390  0.00  0.00    +0.015 C 
ATOM     14  C   UNL     1      35.052 -16.407 -22.346  0.00  0.00    +0.001 C 
ATOM     15  C   UNL     1      34.166 -16.500 -24.591  0.00  0.00    +0.001 C 
ATOM     16  C   UNL     1      35.587 -17.685 -22.504  0.00  0.00    +0.000 C 
ATOM     17  C   UNL     1      34.700 -17.779 -24.749  0.00  0.00    +0.000 C 
ATOM     18  C   UNL     1      35.411 -18.371 -23.705  0.00  0.00    +0.000 C 
ENDBRANCH   6  13
TORSDOF 1
ENDMDL
