MODEL 1
REMARK VINA RESULT:      -9.6      0.000      0.000
REMARK  Name = 5511
REMARK  4 active torsions:
REMARK  status: ('A' for Active; 'I' for Inactive)
REMARK    1  A    between atoms: C_1  and  C_4
REMARK    2  A    between atoms: C_1  and  C_12
REMARK    3  A    between atoms: C_4  and  C_5
REMARK    4  A    between atoms: C_12  and  N_13
REMARK                            x       y       z     vdW  Elec       q    Type
REMARK                         _______ _______ _______ _____ _____    ______ ____
ROOT
ATOM      1  C   UNL     1      34.730 -18.213 -22.795  0.00  0.00    +0.041 C 
ATOM      2  C   UNL     1      34.959 -18.868 -24.161  0.00  0.00    +0.006 C 
ENDROOT
BRANCH   1   4
ATOM      3  O   UNL     1      36.815 -18.603 -21.649  0.00  0.00    -0.291 OA
ATOM      4  C   UNL     1      35.622 -18.888 -21.752  0.00  0.00    +0.171 C 
BRANCH   4   5
ATOM      5  C   UNL     1      35.044 -19.905 -20.825  0.00  0.00    +0.035 C 
ATOM      6  C   UNL     1      35.901 -20.756 -20.164  0.00  0.00    +0.003 C 
ATOM      7  C   UNL     1      33.678 -19.952 -20.666  0.00  0.00    +0.003 C 
ATOM      8  C   UNL     1      35.360 -21.706 -19.296  0.00  0.00    -0.004 C 
ATOM      9  C   UNL     1      33.138 -20.902 -19.799  0.00  0.00    -0.004 C 
ATOM     10  C   UNL     1      33.980 -21.779 -19.114  0.00  0.00    -0.022 C 
ATOM     11  C   UNL     1      33.402 -22.794 -18.186  0.00  0.00    +0.031 C 
ENDBRANCH   4   5
ENDBRANCH   1   4
BRANCH   1  12
ATOM     12  C   UNL     1      35.036 -16.708 -22.817  0.00  0.00    -0.070 C 
BRANCH  12  13
ATOM     13  N   UNL     1      33.906 -15.917 -22.333  0.00  0.00    +0.387 N 
ATOM     14  C   UNL     1      33.849 -14.623 -23.027  0.00  0.00    -0.077 C 
ATOM     15  C   UNL     1      33.992 -15.737 -20.877  0.00  0.00    -0.077 C 
ATOM     16  C   UNL     1      32.643 -13.802 -22.565  0.00  0.00    -0.023 C 
ATOM     17  C   UNL     1      32.790 -14.953 -20.346  0.00  0.00    -0.023 C 
ATOM     18  C   UNL     1      32.648 -13.610 -21.054  0.00  0.00    -0.004 C 
ATOM     19  H   UNL     1      33.042 -16.421 -22.537  0.00  0.00    -0.080 HD
ENDBRANCH  12  13
ENDBRANCH   1  12
TORSDOF 4
ENDMDL
MODEL 2
REMARK VINA RESULT:      -9.3      1.353      1.920
REMARK  Name = 5511
REMARK  4 active torsions:
REMARK  status: ('A' for Active; 'I' for Inactive)
REMARK    1  A    between atoms: C_1  and  C_4
REMARK    2  A    between atoms: C_1  and  C_12
REMARK    3  A    between atoms: C_4  and  C_5
REMARK    4  A    between atoms: C_12  and  N_13
REMARK                            x       y       z     vdW  Elec       q    Type
REMARK                         _______ _______ _______ _____ _____    ______ ____
ROOT
ATOM      1  C   UNL     1      34.739 -18.419 -22.991  0.00  0.00    +0.041 C 
ATOM      2  C   UNL     1      34.828 -19.423 -24.145  0.00  0.00    +0.006 C 
ENDROOT
BRANCH   1   4
ATOM      3  O   UNL     1      36.707 -18.529 -21.602  0.00  0.00    -0.291 OA
ATOM      4  C   UNL     1      35.562 -18.931 -21.808  0.00  0.00    +0.171 C 
BRANCH   4   5
ATOM      5  C   UNL     1      34.972 -19.930 -20.869  0.00  0.00    +0.035 C 
ATOM      6  C   UNL     1      35.814 -20.811 -20.230  0.00  0.00    +0.003 C 
ATOM      7  C   UNL     1      33.609 -19.933 -20.679  0.00  0.00    +0.003 C 
ATOM      8  C   UNL     1      35.263 -21.744 -19.351  0.00  0.00    -0.004 C 
ATOM      9  C   UNL     1      33.058 -20.866 -19.801  0.00  0.00    -0.004 C 
ATOM     10  C   UNL     1      33.886 -21.772 -19.136  0.00  0.00    -0.022 C 
ATOM     11  C   UNL     1      33.295 -22.768 -18.197  0.00  0.00    +0.031 C 
ENDBRANCH   4   5
ENDBRANCH   1   4
BRANCH   1  12
ATOM     12  C   UNL     1      35.253 -17.029 -23.394  0.00  0.00    -0.070 C 
BRANCH  12  13
ATOM     13  N   UNL     1      34.185 -16.191 -23.937  0.00  0.00    +0.387 N 
ATOM     14  C   UNL     1      34.248 -16.163 -25.405  0.00  0.00    -0.077 C 
ATOM     15  C   UNL     1      34.260 -14.835 -23.375  0.00  0.00    -0.077 C 
ATOM     16  C   UNL     1      33.107 -15.330 -25.991  0.00  0.00    -0.023 C 
ATOM     17  C   UNL     1      33.119 -13.959 -23.895  0.00  0.00    -0.023 C 
ATOM     18  C   UNL     1      33.101 -13.917 -25.419  0.00  0.00    -0.004 C 
ATOM     19  H   UNL     1      33.286 -16.593 -23.669  0.00  0.00    -0.080 HD
ENDBRANCH  12  13
ENDBRANCH   1  12
TORSDOF 4
ENDMDL
MODEL 3
REMARK VINA RESULT:      -8.7      2.019      3.442
REMARK  Name = 5511
REMARK  4 active torsions:
REMARK  status: ('A' for Active; 'I' for Inactive)
REMARK    1  A    between atoms: C_1  and  C_4
REMARK    2  A    between atoms: C_1  and  C_12
REMARK    3  A    between atoms: C_4  and  C_5
REMARK    4  A    between atoms: C_12  and  N_13
REMARK                            x       y       z     vdW  Elec       q    Type
REMARK                         _______ _______ _______ _____ _____    ______ ____
ROOT
ATOM      1  C   UNL     1      34.698 -15.780 -22.322  0.00  0.00    +0.041 C 
ATOM      2  C   UNL     1      34.566 -15.842 -20.797  0.00  0.00    +0.006 C 
ENDROOT
BRANCH   1   4
ATOM      3  O   UNL     1      34.891 -17.415 -24.083  0.00  0.00    -0.291 OA
ATOM      4  C   UNL     1      34.891 -17.194 -22.872  0.00  0.00    +0.171 C 
BRANCH   4   5
ATOM      5  C   UNL     1      35.100 -18.335 -21.933  0.00  0.00    +0.035 C 
ATOM      6  C   UNL     1      34.004 -19.066 -21.532  0.00  0.00    +0.003 C 
ATOM      7  C   UNL     1      36.378 -18.614 -21.506  0.00  0.00    +0.003 C 
ATOM      8  C   UNL     1      34.199 -20.134 -20.655  0.00  0.00    -0.004 C 
ATOM      9  C   UNL     1      36.572 -19.681 -20.629  0.00  0.00    -0.004 C 
ATOM     10  C   UNL     1      35.481 -20.441 -20.204  0.00  0.00    -0.022 C 
ATOM     11  C   UNL     1      35.691 -21.583 -19.267  0.00  0.00    +0.031 C 
ENDBRANCH   4   5
ENDBRANCH   1   4
BRANCH   1  12
ATOM     12  C   UNL     1      33.464 -15.149 -22.983  0.00  0.00    -0.070 C 
BRANCH  12  13
ATOM     13  N   UNL     1      33.828 -14.321 -24.133  0.00  0.00    +0.387 N 
ATOM     14  C   UNL     1      33.634 -12.898 -23.823  0.00  0.00    -0.077 C 
ATOM     15  C   UNL     1      33.053 -14.719 -25.317  0.00  0.00    -0.077 C 
ATOM     16  C   UNL     1      34.055 -12.015 -25.000  0.00  0.00    -0.023 C 
ATOM     17  C   UNL     1      33.457 -13.895 -26.541  0.00  0.00    -0.023 C 
ATOM     18  C   UNL     1      33.317 -12.400 -26.275  0.00  0.00    -0.004 C 
ATOM     19  H   UNL     1      34.816 -14.466 -24.340  0.00  0.00    -0.080 HD
ENDBRANCH  12  13
ENDBRANCH   1  12
TORSDOF 4
ENDMDL
MODEL 4
REMARK VINA RESULT:      -8.6      3.656      7.855
REMARK  Name = 5511
REMARK  4 active torsions:
REMARK  status: ('A' for Active; 'I' for Inactive)
REMARK    1  A    between atoms: C_1  and  C_4
REMARK    2  A    between atoms: C_1  and  C_12
REMARK    3  A    between atoms: C_4  and  C_5
REMARK    4  A    between atoms: C_12  and  N_13
REMARK                            x       y       z     vdW  Elec       q    Type
REMARK                         _______ _______ _______ _____ _____    ______ ____
ROOT
ATOM      1  C   UNL     1      34.531 -22.455 -17.374  0.00  0.00    +0.041 C 
ATOM      2  C   UNL     1      36.032 -22.438 -17.067  0.00  0.00    +0.006 C 
ENDROOT
BRANCH   1   4
ATOM      3  O   UNL     1      34.086 -23.620 -19.438  0.00  0.00    -0.291 OA
ATOM      4  C   UNL     1      34.323 -22.545 -18.887  0.00  0.00    +0.171 C 
BRANCH   4   5
ATOM      5  C   UNL     1      34.393 -21.310 -19.721  0.00  0.00    +0.035 C 
ATOM      6  C   UNL     1      33.219 -20.673 -20.056  0.00  0.00    +0.003 C 
ATOM      7  C   UNL     1      35.627 -20.854 -20.124  0.00  0.00    +0.003 C 
ATOM      8  C   UNL     1      33.284 -19.518 -20.835  0.00  0.00    -0.004 C 
ATOM      9  C   UNL     1      35.692 -19.699 -20.904  0.00  0.00    -0.004 C 
ATOM     10  C   UNL     1      34.520 -19.031 -21.259  0.00  0.00    -0.022 C 
ATOM     11  C   UNL     1      34.591 -17.795 -22.091  0.00  0.00    +0.031 C 
ENDBRANCH   4   5
ENDBRANCH   1   4
BRANCH   1  12
ATOM     12  C   UNL     1      33.817 -23.635 -16.699  0.00  0.00    -0.070 C 
BRANCH  12  13
ATOM     13  N   UNL     1      32.775 -23.183 -15.777  0.00  0.00    +0.387 N 
ATOM     14  C   UNL     1      32.883 -23.890 -14.493  0.00  0.00    -0.077 C 
ATOM     15  C   UNL     1      31.445 -23.367 -16.375  0.00  0.00    -0.077 C 
ATOM     16  C   UNL     1      31.830 -23.394 -13.500  0.00  0.00    -0.023 C 
ATOM     17  C   UNL     1      30.346 -22.854 -15.444  0.00  0.00    -0.023 C 
ATOM     18  C   UNL     1      30.424 -23.519 -14.074  0.00  0.00    -0.004 C 
ATOM     19  H   UNL     1      32.905 -22.187 -15.600  0.00  0.00    -0.080 HD
ENDBRANCH  12  13
ENDBRANCH   1  12
TORSDOF 4
ENDMDL
MODEL 5
REMARK VINA RESULT:      -8.6      1.168      2.069
REMARK  Name = 5511
REMARK  4 active torsions:
REMARK  status: ('A' for Active; 'I' for Inactive)
REMARK    1  A    between atoms: C_1  and  C_4
REMARK    2  A    between atoms: C_1  and  C_12
REMARK    3  A    between atoms: C_4  and  C_5
REMARK    4  A    between atoms: C_12  and  N_13
REMARK                            x       y       z     vdW  Elec       q    Type
REMARK                         _______ _______ _______ _____ _____    ______ ____
ROOT
ATOM      1  C   UNL     1      35.106 -16.674 -22.169  0.00  0.00    +0.041 C 
ATOM      2  C   UNL     1      34.934 -16.525 -20.654  0.00  0.00    +0.006 C 
ENDROOT
BRANCH   1   4
ATOM      3  O   UNL     1      35.768 -18.513 -23.580  0.00  0.00    -0.291 OA
ATOM      4  C   UNL     1      35.256 -18.155 -22.519  0.00  0.00    +0.171 C 
BRANCH   4   5
ATOM      5  C   UNL     1      34.790 -19.197 -21.558  0.00  0.00    +0.035 C 
ATOM      6  C   UNL     1      35.732 -19.900 -20.841  0.00  0.00    +0.003 C 
ATOM      7  C   UNL     1      33.438 -19.416 -21.426  0.00  0.00    +0.003 C 
ATOM      8  C   UNL     1      35.296 -20.873 -19.941  0.00  0.00    -0.004 C 
ATOM      9  C   UNL     1      33.002 -20.389 -20.527  0.00  0.00    -0.004 C 
ATOM     10  C   UNL     1      33.932 -21.118 -19.784  0.00  0.00    -0.022 C 
ATOM     11  C   UNL     1      33.465 -22.158 -18.823  0.00  0.00    +0.031 C 
ENDBRANCH   4   5
ENDBRANCH   1   4
BRANCH   1  12
ATOM     12  C   UNL     1      33.916 -16.093 -22.946  0.00  0.00    -0.070 C 
BRANCH  12  13
ATOM     13  N   UNL     1      33.702 -14.680 -22.635  0.00  0.00    +0.387 N 
ATOM     14  C   UNL     1      32.475 -14.506 -21.846  0.00  0.00    -0.077 C 
ATOM     15  C   UNL     1      33.658 -13.884 -23.870  0.00  0.00    -0.077 C 
ATOM     16  C   UNL     1      32.263 -13.038 -21.472  0.00  0.00    -0.023 C 
ATOM     17  C   UNL     1      33.485 -12.396 -23.561  0.00  0.00    -0.023 C 
ATOM     18  C   UNL     1      32.246 -12.147 -22.708  0.00  0.00    -0.004 C 
ATOM     19  H   UNL     1      34.487 -14.346 -22.074  0.00  0.00    -0.080 HD
ENDBRANCH  12  13
ENDBRANCH   1  12
TORSDOF 4
ENDMDL
MODEL 6
REMARK VINA RESULT:      -8.3      1.600      3.015
REMARK  Name = 5511
REMARK  4 active torsions:
REMARK  status: ('A' for Active; 'I' for Inactive)
REMARK    1  A    between atoms: C_1  and  C_4
REMARK    2  A    between atoms: C_1  and  C_12
REMARK    3  A    between atoms: C_4  and  C_5
REMARK    4  A    between atoms: C_12  and  N_13
REMARK                            x       y       z     vdW  Elec       q    Type
REMARK                         _______ _______ _______ _____ _____    ______ ____
ROOT
ATOM      1  C   UNL     1      34.710 -15.953 -22.423  0.00  0.00    +0.041 C 
ATOM      2  C   UNL     1      34.351 -15.932 -20.934  0.00  0.00    +0.006 C 
ENDROOT
BRANCH   1   4
ATOM      3  O   UNL     1      34.662 -17.701 -24.083  0.00  0.00    -0.291 OA
ATOM      4  C   UNL     1      34.818 -17.402 -22.899  0.00  0.00    +0.171 C 
BRANCH   4   5
ATOM      5  C   UNL     1      35.131 -18.484 -21.920  0.00  0.00    +0.035 C 
ATOM      6  C   UNL     1      34.102 -19.277 -21.464  0.00  0.00    +0.003 C 
ATOM      7  C   UNL     1      36.435 -18.650 -21.513  0.00  0.00    +0.003 C 
ATOM      8  C   UNL     1      34.394 -20.290 -20.550  0.00  0.00    -0.004 C 
ATOM      9  C   UNL     1      36.727 -19.662 -20.599  0.00  0.00    -0.004 C 
ATOM     10  C   UNL     1      35.706 -20.482 -20.117  0.00  0.00    -0.022 C 
ATOM     11  C   UNL     1      36.020 -21.565 -19.141  0.00  0.00    +0.031 C 
ENDBRANCH   4   5
ENDBRANCH   1   4
BRANCH   1  12
ATOM     12  C   UNL     1      33.667 -15.220 -23.280  0.00  0.00    -0.070 C 
BRANCH  12  13
ATOM     13  N   UNL     1      33.532 -13.817 -22.889  0.00  0.00    +0.387 N 
ATOM     14  C   UNL     1      32.231 -13.585 -22.247  0.00  0.00    -0.077 C 
ATOM     15  C   UNL     1      33.715 -12.940 -24.054  0.00  0.00    -0.077 C 
ATOM     16  C   UNL     1      32.094 -12.132 -21.788  0.00  0.00    -0.023 C 
ATOM     17  C   UNL     1      33.626 -11.466 -23.654  0.00  0.00    -0.023 C 
ATOM     18  C   UNL     1      32.312 -11.162 -22.944  0.00  0.00    -0.004 C 
ATOM     19  H   UNL     1      34.262 -13.595 -22.211  0.00  0.00    -0.080 HD
ENDBRANCH  12  13
ENDBRANCH   1  12
TORSDOF 4
ENDMDL
MODEL 7
REMARK VINA RESULT:      -8.2      4.594      8.904
REMARK  Name = 5511
REMARK  4 active torsions:
REMARK  status: ('A' for Active; 'I' for Inactive)
REMARK    1  A    between atoms: C_1  and  C_4
REMARK    2  A    between atoms: C_1  and  C_12
REMARK    3  A    between atoms: C_4  and  C_5
REMARK    4  A    between atoms: C_12  and  N_13
REMARK                            x       y       z     vdW  Elec       q    Type
REMARK                         _______ _______ _______ _____ _____    ______ ____
ROOT
ATOM      1  C   UNL     1      34.810 -22.666 -16.718  0.00  0.00    +0.041 C 
ATOM      2  C   UNL     1      36.315 -22.390 -16.799  0.00  0.00    +0.006 C 
ENDROOT
BRANCH   1   4
ATOM      3  O   UNL     1      33.751 -23.970 -18.448  0.00  0.00    -0.291 OA
ATOM      4  C   UNL     1      34.259 -22.896 -18.126  0.00  0.00    +0.171 C 
BRANCH   4   5
ATOM      5  C   UNL     1      34.321 -21.799 -19.137  0.00  0.00    +0.035 C 
ATOM      6  C   UNL     1      35.550 -21.438 -19.642  0.00  0.00    +0.003 C 
ATOM      7  C   UNL     1      33.149 -21.192 -19.525  0.00  0.00    +0.003 C 
ATOM      8  C   UNL     1      35.607 -20.413 -20.588  0.00  0.00    -0.004 C 
ATOM      9  C   UNL     1      33.207 -20.167 -20.470  0.00  0.00    -0.004 C 
ATOM     10  C   UNL     1      34.437 -19.778 -21.001  0.00  0.00    -0.022 C 
ATOM     11  C   UNL     1      34.498 -18.683 -22.013  0.00  0.00    +0.031 C 
ENDBRANCH   4   5
ENDBRANCH   1   4
BRANCH   1  12
ATOM     12  C   UNL     1      34.494 -23.893 -15.850  0.00  0.00    -0.070 C 
BRANCH  12  13
ATOM     13  N   UNL     1      35.604 -24.228 -14.959  0.00  0.00    +0.387 N 
ATOM     14  C   UNL     1      35.972 -25.643 -15.105  0.00  0.00    -0.077 C 
ATOM     15  C   UNL     1      35.258 -23.908 -13.567  0.00  0.00    -0.077 C 
ATOM     16  C   UNL     1      37.164 -25.997 -14.214  0.00  0.00    -0.023 C 
ATOM     17  C   UNL     1      36.427 -24.207 -12.626  0.00  0.00    -0.023 C 
ATOM     18  C   UNL     1      36.887 -25.654 -12.755  0.00  0.00    -0.004 C 
ATOM     19  H   UNL     1      36.414 -23.664 -15.219  0.00  0.00    -0.080 HD
ENDBRANCH  12  13
ENDBRANCH   1  12
TORSDOF 4
ENDMDL
MODEL 8
REMARK VINA RESULT:      -8.2      1.947      6.683
REMARK  Name = 5511
REMARK  4 active torsions:
REMARK  status: ('A' for Active; 'I' for Inactive)
REMARK    1  A    between atoms: C_1  and  C_4
REMARK    2  A    between atoms: C_1  and  C_12
REMARK    3  A    between atoms: C_4  and  C_5
REMARK    4  A    between atoms: C_12  and  N_13
REMARK                            x       y       z     vdW  Elec       q    Type
REMARK                         _______ _______ _______ _____ _____    ______ ____
ROOT
ATOM      1  C   UNL     1      34.630 -19.997 -21.252  0.00  0.00    +0.041 C 
ATOM      2  C   UNL     1      33.271 -19.787 -20.576  0.00  0.00    +0.006 C 
ENDROOT
BRANCH   1   4
ATOM      3  O   UNL     1      36.531 -18.824 -20.345  0.00  0.00    -0.291 OA
ATOM      4  C   UNL     1      35.506 -18.765 -21.024  0.00  0.00    +0.171 C 
BRANCH   4   5
ATOM      5  C   UNL     1      35.130 -17.461 -21.644  0.00  0.00    +0.035 C 
ATOM      6  C   UNL     1      35.153 -17.353 -23.017  0.00  0.00    +0.003 C 
ATOM      7  C   UNL     1      34.773 -16.416 -20.822  0.00  0.00    +0.003 C 
ATOM      8  C   UNL     1      34.800 -16.134 -23.597  0.00  0.00    -0.004 C 
ATOM      9  C   UNL     1      34.421 -15.198 -21.402  0.00  0.00    -0.004 C 
ATOM     10  C   UNL     1      34.434 -15.057 -22.791  0.00  0.00    -0.022 C 
ATOM     11  C   UNL     1      34.056 -13.754 -23.410  0.00  0.00    +0.031 C 
ENDBRANCH   4   5
ENDBRANCH   1   4
BRANCH   1  12
ATOM     12  C   UNL     1      35.358 -21.237 -20.710  0.00  0.00    -0.070 C 
BRANCH  12  13
ATOM     13  N   UNL     1      35.028 -21.490 -19.308  0.00  0.00    +0.387 N 
ATOM     14  C   UNL     1      36.250 -21.735 -18.529  0.00  0.00    -0.077 C 
ATOM     15  C   UNL     1      34.092 -22.618 -19.197  0.00  0.00    -0.077 C 
ATOM     16  C   UNL     1      35.926 -21.955 -17.050  0.00  0.00    -0.023 C 
ATOM     17  C   UNL     1      33.698 -22.865 -17.740  0.00  0.00    -0.023 C 
ATOM     18  C   UNL     1      34.925 -23.089 -16.864  0.00  0.00    -0.004 C 
ATOM     19  H   UNL     1      34.571 -20.663 -18.925  0.00  0.00    -0.080 HD
ENDBRANCH  12  13
ENDBRANCH   1  12
TORSDOF 4
ENDMDL
MODEL 9
REMARK VINA RESULT:      -8.1      1.576      6.354
REMARK  Name = 5511
REMARK  4 active torsions:
REMARK  status: ('A' for Active; 'I' for Inactive)
REMARK    1  A    between atoms: C_1  and  C_4
REMARK    2  A    between atoms: C_1  and  C_12
REMARK    3  A    between atoms: C_4  and  C_5
REMARK    4  A    between atoms: C_12  and  N_13
REMARK                            x       y       z     vdW  Elec       q    Type
REMARK                         _______ _______ _______ _____ _____    ______ ____
ROOT
ATOM      1  C   UNL     1      35.306 -18.100 -21.822  0.00  0.00    +0.041 C 
ATOM      2  C   UNL     1      36.793 -18.334 -22.110  0.00  0.00    +0.006 C 
ENDROOT
BRANCH   1   4
ATOM      3  O   UNL     1      34.900 -17.254 -24.043  0.00  0.00    -0.291 OA
ATOM      4  C   UNL     1      34.746 -17.097 -22.832  0.00  0.00    +0.171 C 
BRANCH   4   5
ATOM      5  C   UNL     1      33.983 -15.907 -22.352  0.00  0.00    +0.035 C 
ATOM      6  C   UNL     1      33.569 -15.876 -21.040  0.00  0.00    +0.003 C 
ATOM      7  C   UNL     1      33.722 -14.888 -23.240  0.00  0.00    +0.003 C 
ATOM      8  C   UNL     1      32.857 -14.763 -20.591  0.00  0.00    -0.004 C 
ATOM      9  C   UNL     1      33.010 -13.776 -22.791  0.00  0.00    -0.004 C 
ATOM     10  C   UNL     1      32.577 -13.714 -21.466  0.00  0.00    -0.022 C 
ATOM     11  C   UNL     1      31.817 -12.523 -20.987  0.00  0.00    +0.031 C 
ENDBRANCH   4   5
ENDBRANCH   1   4
BRANCH   1  12
ATOM     12  C   UNL     1      34.491 -19.399 -21.902  0.00  0.00    -0.070 C 
BRANCH  12  13
ATOM     13  N   UNL     1      34.408 -20.068 -20.604  0.00  0.00    +0.387 N 
ATOM     14  C   UNL     1      35.533 -20.998 -20.431  0.00  0.00    -0.077 C 
ATOM     15  C   UNL     1      33.119 -20.761 -20.465  0.00  0.00    -0.077 C 
ATOM     16  C   UNL     1      35.487 -21.670 -19.057  0.00  0.00    -0.023 C 
ATOM     17  C   UNL     1      32.995 -21.425 -19.092  0.00  0.00    -0.023 C 
ATOM     18  C   UNL     1      34.156 -22.377 -18.830  0.00  0.00    -0.004 C 
ATOM     19  H   UNL     1      34.467 -19.363 -19.868  0.00  0.00    -0.080 HD
ENDBRANCH  12  13
ENDBRANCH   1  12
TORSDOF 4
ENDMDL
