MODEL 1
REMARK VINA RESULT:      -9.6      0.000      0.000
REMARK  Name = 54677674
REMARK  7 active torsions:
REMARK  status: ('A' for Active; 'I' for Inactive)
REMARK    1  A    between atoms: N_3  and  C_25
REMARK    2  A    between atoms: C_4  and  C_13
REMARK    3  A    between atoms: C_8  and  O_28
REMARK    4  A    between atoms: N_12  and  C_15
REMARK    5  A    between atoms: C_15  and  C_16
REMARK    6  A    between atoms: C_16  and  C_17
REMARK    7  A    between atoms: C_17  and  N_18
REMARK                            x       y       z     vdW  Elec       q    Type
REMARK                         _______ _______ _______ _____ _____    ______ ____
ROOT
ATOM      1  S   UNL     1      33.595 -24.082 -13.207  0.00  0.00    -0.069 S 
ATOM      2  O   UNL     1      31.223 -23.052 -17.519  0.00  0.00    -0.267 OA
ATOM      3  N   UNL     1      32.235 -23.547 -15.483  0.00  0.00    -0.292 N 
ATOM      4  C   UNL     1      33.585 -22.877 -17.497  0.00  0.00    +0.143 A 
ATOM      5  C   UNL     1      33.467 -23.634 -14.839  0.00  0.00    +0.095 A 
ATOM      6  C   UNL     1      32.246 -23.166 -16.837  0.00  0.00    +0.269 A 
ATOM      7  C   UNL     1      34.686 -23.379 -15.412  0.00  0.00    +0.057 A 
ATOM      8  C   UNL     1      34.724 -22.991 -16.782  0.00  0.00    +0.144 A 
ATOM      9  C   UNL     1      35.759 -23.555 -14.493  0.00  0.00    +0.012 C 
ATOM     10  C   UNL     1      35.303 -23.939 -13.249  0.00  0.00    +0.037 C 
ENDROOT
BRANCH   4  13
ATOM     11  O   UNL     1      34.186 -23.168 -19.750  0.00  0.00    -0.270 OA
ATOM     12  N   UNL     1      32.948 -21.286 -19.144  0.00  0.00    -0.301 N 
ATOM     13  C   UNL     1      33.614 -22.474 -18.916  0.00  0.00    +0.253 C 
ATOM     14  H   UNL     1      32.530 -20.828 -18.380  0.00  0.00    +0.150 HD
BRANCH  12  15
ATOM     15  C   UNL     1      32.838 -20.685 -20.454  0.00  0.00    +0.088 C 
BRANCH  15  16
ATOM     16  C   UNL     1      33.800 -19.517 -20.646  0.00  0.00    -0.002 C 
BRANCH  16  17
ATOM     17  C   UNL     1      34.925 -19.846 -21.629  0.00  0.00    -0.076 C 
BRANCH  17  18
ATOM     18  N   UNL     1      35.188 -18.698 -22.498  0.00  0.00    +0.387 N 
ATOM     19  C   UNL     1      34.716 -17.457 -21.867  0.00  0.00    -0.077 C 
ATOM     20  C   UNL     1      34.564 -18.896 -23.814  0.00  0.00    -0.077 C 
ATOM     21  C   UNL     1      35.028 -16.242 -22.742  0.00  0.00    -0.023 C 
ATOM     22  C   UNL     1      34.871 -17.728 -24.751  0.00  0.00    -0.023 C 
ATOM     23  C   UNL     1      34.442 -16.399 -24.140  0.00  0.00    -0.004 C 
ATOM     24  H   UNL     1      36.196 -18.618 -22.636  0.00  0.00    -0.080 HD
ENDBRANCH  17  18
ENDBRANCH  16  17
ENDBRANCH  15  16
ENDBRANCH  12  15
ENDBRANCH   4  13
BRANCH   3  25
ATOM     25  C   UNL     1      30.987 -23.841 -14.784  0.00  0.00    +0.089 C 
ATOM     26  C   UNL     1      30.348 -25.104 -15.346  0.00  0.00    +0.025 C 
ATOM     27  C   UNL     1      30.033 -22.655 -14.871  0.00  0.00    +0.025 C 
ENDBRANCH   3  25
BRANCH   8  28
ATOM     28  O   UNL     1      35.999 -22.762 -17.250  0.00  0.00    -0.505 OA
ATOM     29  H   UNL     1      36.132 -22.218 -18.001  0.00  0.00    +0.292 HD
ENDBRANCH   8  28
TORSDOF 7
ENDMDL
MODEL 2
REMARK VINA RESULT:      -9.3      1.139      3.213
REMARK  Name = 54677674
REMARK  7 active torsions:
REMARK  status: ('A' for Active; 'I' for Inactive)
REMARK    1  A    between atoms: N_3  and  C_25
REMARK    2  A    between atoms: C_4  and  C_13
REMARK    3  A    between atoms: C_8  and  O_28
REMARK    4  A    between atoms: N_12  and  C_15
REMARK    5  A    between atoms: C_15  and  C_16
REMARK    6  A    between atoms: C_16  and  C_17
REMARK    7  A    between atoms: C_17  and  N_18
REMARK                            x       y       z     vdW  Elec       q    Type
REMARK                         _______ _______ _______ _____ _____    ______ ____
ROOT
ATOM      1  S   UNL     1      32.413 -24.032 -13.163  0.00  0.00    -0.069 S 
ATOM      2  O   UNL     1      36.070 -23.496 -16.572  0.00  0.00    -0.267 OA
ATOM      3  N   UNL     1      34.445 -23.770 -14.930  0.00  0.00    -0.292 N 
ATOM      4  C   UNL     1      33.851 -23.036 -17.262  0.00  0.00    +0.143 A 
ATOM      5  C   UNL     1      33.077 -23.677 -14.684  0.00  0.00    +0.095 A 
ATOM      6  C   UNL     1      34.886 -23.453 -16.228  0.00  0.00    +0.269 A 
ATOM      7  C   UNL     1      32.126 -23.303 -15.599  0.00  0.00    +0.057 A 
ATOM      8  C   UNL     1      32.547 -22.977 -16.920  0.00  0.00    +0.144 A 
ATOM      9  C   UNL     1      30.816 -23.306 -15.043  0.00  0.00    +0.012 C 
ATOM     10  C   UNL     1      30.828 -23.686 -13.717  0.00  0.00    +0.037 C 
ENDROOT
BRANCH   4  13
ATOM     11  O   UNL     1      33.956 -23.392 -19.582  0.00  0.00    -0.270 OA
ATOM     12  N   UNL     1      35.096 -21.576 -18.664  0.00  0.00    -0.301 N 
ATOM     13  C   UNL     1      34.297 -22.701 -18.628  0.00  0.00    +0.253 C 
ATOM     14  H   UNL     1      35.292 -21.112 -17.818  0.00  0.00    +0.150 HD
BRANCH  12  15
ATOM     15  C   UNL     1      35.656 -21.047 -19.887  0.00  0.00    +0.088 C 
BRANCH  15  16
ATOM     16  C   UNL     1      34.703 -20.095 -20.605  0.00  0.00    -0.002 C 
BRANCH  16  17
ATOM     17  C   UNL     1      35.406 -18.828 -21.094  0.00  0.00    -0.076 C 
BRANCH  17  18
ATOM     18  N   UNL     1      34.773 -18.340 -22.319  0.00  0.00    +0.387 N 
ATOM     19  C   UNL     1      35.048 -19.252 -23.438  0.00  0.00    -0.077 C 
ATOM     20  C   UNL     1      35.227 -16.975 -22.623  0.00  0.00    -0.077 C 
ATOM     21  C   UNL     1      34.352 -18.781 -24.717  0.00  0.00    -0.023 C 
ATOM     22  C   UNL     1      34.538 -16.431 -23.875  0.00  0.00    -0.023 C 
ATOM     23  C   UNL     1      34.749 -17.353 -25.070  0.00  0.00    -0.004 C 
ATOM     24  H   UNL     1      33.764 -18.311 -22.177  0.00  0.00    -0.080 HD
ENDBRANCH  17  18
ENDBRANCH  16  17
ENDBRANCH  15  16
ENDBRANCH  12  15
ENDBRANCH   4  13
BRANCH   3  25
ATOM     25  C   UNL     1      35.381 -24.178 -13.885  0.00  0.00    +0.089 C 
ATOM     26  C   UNL     1      36.326 -23.033 -13.543  0.00  0.00    +0.025 C 
ATOM     27  C   UNL     1      36.153 -25.420 -14.314  0.00  0.00    +0.025 C 
ENDBRANCH   3  25
BRANCH   8  28
ATOM     28  O   UNL     1      31.509 -22.617 -17.751  0.00  0.00    -0.505 OA
ATOM     29  H   UNL     1      30.904 -21.954 -17.484  0.00  0.00    +0.292 HD
ENDBRANCH   8  28
TORSDOF 7
ENDMDL
MODEL 3
REMARK VINA RESULT:      -9.2      7.626     10.256
REMARK  Name = 54677674
REMARK  7 active torsions:
REMARK  status: ('A' for Active; 'I' for Inactive)
REMARK    1  A    between atoms: N_3  and  C_25
REMARK    2  A    between atoms: C_4  and  C_13
REMARK    3  A    between atoms: C_8  and  O_28
REMARK    4  A    between atoms: N_12  and  C_15
REMARK    5  A    between atoms: C_15  and  C_16
REMARK    6  A    between atoms: C_16  and  C_17
REMARK    7  A    between atoms: C_17  and  N_18
REMARK                            x       y       z     vdW  Elec       q    Type
REMARK                         _______ _______ _______ _____ _____    ______ ____
ROOT
ATOM      1  S   UNL     1      34.613 -18.602 -22.078  0.00  0.00    -0.069 S 
ATOM      2  O   UNL     1      33.161 -13.791 -22.255  0.00  0.00    -0.267 OA
ATOM      3  N   UNL     1      33.822 -16.015 -22.077  0.00  0.00    -0.292 N 
ATOM      4  C   UNL     1      33.700 -14.851 -24.304  0.00  0.00    +0.143 A 
ATOM      5  C   UNL     1      34.237 -17.121 -22.815  0.00  0.00    +0.095 A 
ATOM      6  C   UNL     1      33.537 -14.837 -22.792  0.00  0.00    +0.269 A 
ATOM      7  C   UNL     1      34.391 -17.157 -24.178  0.00  0.00    +0.057 A 
ATOM      8  C   UNL     1      34.109 -15.978 -24.925  0.00  0.00    +0.144 A 
ATOM      9  C   UNL     1      34.829 -18.431 -24.635  0.00  0.00    +0.012 C 
ATOM     10  C   UNL     1      34.991 -19.318 -23.589  0.00  0.00    +0.037 C 
ENDROOT
BRANCH   4  13
ATOM     11  O   UNL     1      32.685 -13.664 -26.059  0.00  0.00    -0.270 OA
ATOM     12  N   UNL     1      34.021 -12.508 -24.536  0.00  0.00    -0.301 N 
ATOM     13  C   UNL     1      33.406 -13.624 -25.068  0.00  0.00    +0.253 C 
ATOM     14  H   UNL     1      34.577 -12.617 -23.731  0.00  0.00    +0.150 HD
BRANCH  12  15
ATOM     15  C   UNL     1      33.886 -11.187 -25.108  0.00  0.00    +0.088 C 
BRANCH  15  16
ATOM     16  C   UNL     1      34.006 -10.081 -24.064  0.00  0.00    -0.002 C 
BRANCH  16  17
ATOM     17  C   UNL     1      32.643  -9.622 -23.543  0.00  0.00    -0.076 C 
BRANCH  17  18
ATOM     18  N   UNL     1      32.466 -10.042 -22.153  0.00  0.00    +0.387 N 
ATOM     19  C   UNL     1      31.335 -10.975 -22.038  0.00  0.00    -0.077 C 
ATOM     20  C   UNL     1      32.279  -8.873 -21.282  0.00  0.00    -0.077 C 
ATOM     21  C   UNL     1      31.167 -11.462 -20.598  0.00  0.00    -0.023 C 
ATOM     22  C   UNL     1      32.141  -9.292 -19.818  0.00  0.00    -0.023 C 
ATOM     23  C   UNL     1      31.008 -10.294 -19.633  0.00  0.00    -0.004 C 
ATOM     24  H   UNL     1      33.308 -10.530 -21.849  0.00  0.00    -0.080 HD
ENDBRANCH  17  18
ENDBRANCH  16  17
ENDBRANCH  15  16
ENDBRANCH  12  15
ENDBRANCH   4  13
BRANCH   3  25
ATOM     25  C   UNL     1      33.687 -16.076 -20.624  0.00  0.00    +0.089 C 
ATOM     26  C   UNL     1      32.305 -15.598 -20.198  0.00  0.00    +0.025 C 
ATOM     27  C   UNL     1      34.784 -15.260 -19.950  0.00  0.00    +0.025 C 
ENDBRANCH   3  25
BRANCH   8  28
ATOM     28  O   UNL     1      34.298 -16.130 -26.281  0.00  0.00    -0.505 OA
ATOM     29  H   UNL     1      33.597 -16.442 -26.818  0.00  0.00    +0.292 HD
ENDBRANCH   8  28
TORSDOF 7
ENDMDL
MODEL 4
REMARK VINA RESULT:      -9.1      7.191     11.916
REMARK  Name = 54677674
REMARK  7 active torsions:
REMARK  status: ('A' for Active; 'I' for Inactive)
REMARK    1  A    between atoms: N_3  and  C_25
REMARK    2  A    between atoms: C_4  and  C_13
REMARK    3  A    between atoms: C_8  and  O_28
REMARK    4  A    between atoms: N_12  and  C_15
REMARK    5  A    between atoms: C_15  and  C_16
REMARK    6  A    between atoms: C_16  and  C_17
REMARK    7  A    between atoms: C_17  and  N_18
REMARK                            x       y       z     vdW  Elec       q    Type
REMARK                         _______ _______ _______ _____ _____    ______ ____
ROOT
ATOM      1  S   UNL     1      32.801  -7.922 -22.126  0.00  0.00    -0.069 S 
ATOM      2  O   UNL     1      31.962 -12.879 -22.026  0.00  0.00    -0.267 OA
ATOM      3  N   UNL     1      32.291 -10.576 -21.998  0.00  0.00    -0.292 N 
ATOM      4  C   UNL     1      33.447 -12.051 -23.675  0.00  0.00    +0.143 A 
ATOM      5  C   UNL     1      32.969  -9.536 -22.627  0.00  0.00    +0.095 A 
ATOM      6  C   UNL     1      32.503 -11.875 -22.496  0.00  0.00    +0.269 A 
ATOM      7  C   UNL     1      33.824  -9.670 -23.691  0.00  0.00    +0.057 A 
ATOM      8  C   UNL     1      34.056 -10.974 -24.214  0.00  0.00    +0.144 A 
ATOM      9  C   UNL     1      34.360  -8.420 -24.110  0.00  0.00    +0.012 C 
ATOM     10  C   UNL     1      33.884  -7.379 -23.340  0.00  0.00    +0.037 C 
ENDROOT
BRANCH   4  13
ATOM     11  O   UNL     1      33.408 -13.671 -25.376  0.00  0.00    -0.270 OA
ATOM     12  N   UNL     1      34.212 -14.264 -23.269  0.00  0.00    -0.301 N 
ATOM     13  C   UNL     1      33.680 -13.406 -24.211  0.00  0.00    +0.253 C 
ATOM     14  H   UNL     1      34.384 -13.919 -22.363  0.00  0.00    +0.150 HD
BRANCH  12  15
ATOM     15  C   UNL     1      34.528 -15.646 -23.553  0.00  0.00    +0.088 C 
BRANCH  15  16
ATOM     16  C   UNL     1      34.601 -16.502 -22.292  0.00  0.00    -0.002 C 
BRANCH  16  17
ATOM     17  C   UNL     1      35.663 -17.598 -22.394  0.00  0.00    -0.076 C 
BRANCH  17  18
ATOM     18  N   UNL     1      35.126 -18.869 -21.908  0.00  0.00    +0.387 N 
ATOM     19  C   UNL     1      33.777 -18.679 -21.356  0.00  0.00    -0.077 C 
ATOM     20  C   UNL     1      36.029 -19.460 -20.910  0.00  0.00    -0.077 C 
ATOM     21  C   UNL     1      33.181 -20.008 -20.887  0.00  0.00    -0.023 C 
ATOM     22  C   UNL     1      35.507 -20.814 -20.427  0.00  0.00    -0.023 C 
ATOM     23  C   UNL     1      34.090 -20.697 -19.877  0.00  0.00    -0.004 C 
ATOM     24  H   UNL     1      35.057 -19.516 -22.693  0.00  0.00    -0.080 HD
ENDBRANCH  17  18
ENDBRANCH  16  17
ENDBRANCH  15  16
ENDBRANCH  12  15
ENDBRANCH   4  13
BRANCH   3  25
ATOM     25  C   UNL     1      31.399 -10.330 -20.867  0.00  0.00    +0.089 C 
ATOM     26  C   UNL     1      32.139 -10.537 -19.552  0.00  0.00    +0.025 C 
ATOM     27  C   UNL     1      30.167 -11.225 -20.952  0.00  0.00    +0.025 C 
ENDBRANCH   3  25
BRANCH   8  28
ATOM     28  O   UNL     1      34.931 -10.989 -25.279  0.00  0.00    -0.505 OA
ATOM     29  H   UNL     1      35.800 -10.655 -25.175  0.00  0.00    +0.292 HD
ENDBRANCH   8  28
TORSDOF 7
ENDMDL
MODEL 5
REMARK VINA RESULT:      -9.1      6.468     11.622
REMARK  Name = 54677674
REMARK  7 active torsions:
REMARK  status: ('A' for Active; 'I' for Inactive)
REMARK    1  A    between atoms: N_3  and  C_25
REMARK    2  A    between atoms: C_4  and  C_13
REMARK    3  A    between atoms: C_8  and  O_28
REMARK    4  A    between atoms: N_12  and  C_15
REMARK    5  A    between atoms: C_15  and  C_16
REMARK    6  A    between atoms: C_16  and  C_17
REMARK    7  A    between atoms: C_17  and  N_18
REMARK                            x       y       z     vdW  Elec       q    Type
REMARK                         _______ _______ _______ _____ _____    ______ ____
ROOT
ATOM      1  S   UNL     1      32.415  -8.950 -23.645  0.00  0.00    -0.069 S 
ATOM      2  O   UNL     1      34.029 -13.681 -24.194  0.00  0.00    -0.267 OA
ATOM      3  N   UNL     1      33.318 -11.472 -24.027  0.00  0.00    -0.292 N 
ATOM      4  C   UNL     1      32.909 -13.131 -22.181  0.00  0.00    +0.143 A 
ATOM      5  C   UNL     1      32.661 -10.569 -23.196  0.00  0.00    +0.095 A 
ATOM      6  C   UNL     1      33.467 -12.788 -23.554  0.00  0.00    +0.269 A 
ATOM      7  C   UNL     1      32.149 -10.854 -21.956  0.00  0.00    +0.057 A 
ATOM      8  C   UNL     1      32.287 -12.179 -21.453  0.00  0.00    +0.144 A 
ATOM      9  C   UNL     1      31.537  -9.719 -21.353  0.00  0.00    +0.012 C 
ATOM     10  C   UNL     1      31.611  -8.609 -22.170  0.00  0.00    +0.037 C 
ENDROOT
BRANCH   4  13
ATOM     11  O   UNL     1      32.074 -15.216 -21.491  0.00  0.00    -0.270 OA
ATOM     12  N   UNL     1      34.376 -14.846 -21.438  0.00  0.00    -0.301 N 
ATOM     13  C   UNL     1      33.058 -14.506 -21.669  0.00  0.00    +0.253 C 
ATOM     14  H   UNL     1      35.073 -14.177 -21.625  0.00  0.00    +0.150 HD
BRANCH  12  15
ATOM     15  C   UNL     1      34.779 -16.140 -20.935  0.00  0.00    +0.088 C 
BRANCH  15  16
ATOM     16  C   UNL     1      34.863 -17.196 -22.033  0.00  0.00    -0.002 C 
BRANCH  16  17
ATOM     17  C   UNL     1      35.771 -18.365 -21.647  0.00  0.00    -0.076 C 
BRANCH  17  18
ATOM     18  N   UNL     1      35.101 -19.223 -20.669  0.00  0.00    +0.387 N 
ATOM     19  C   UNL     1      35.901 -20.429 -20.411  0.00  0.00    -0.077 C 
ATOM     20  C   UNL     1      33.750 -19.570 -21.130  0.00  0.00    -0.077 C 
ATOM     21  C   UNL     1      35.238 -21.313 -19.353  0.00  0.00    -0.023 C 
ATOM     22  C   UNL     1      33.018 -20.427 -20.095  0.00  0.00    -0.023 C 
ATOM     23  C   UNL     1      33.814 -21.680 -19.750  0.00  0.00    -0.004 C 
ATOM     24  H   UNL     1      35.013 -18.710 -19.791  0.00  0.00    -0.080 HD
ENDBRANCH  17  18
ENDBRANCH  16  17
ENDBRANCH  15  16
ENDBRANCH  12  15
ENDBRANCH   4  13
BRANCH   3  25
ATOM     25  C   UNL     1      33.828 -11.070 -25.336  0.00  0.00    +0.089 C 
ATOM     26  C   UNL     1      33.720 -12.224 -26.325  0.00  0.00    +0.025 C 
ATOM     27  C   UNL     1      35.266 -10.577 -25.221  0.00  0.00    +0.025 C 
ENDBRANCH   3  25
BRANCH   8  28
ATOM     28  O   UNL     1      31.737 -12.350 -20.202  0.00  0.00    -0.505 OA
ATOM     29  H   UNL     1      30.927 -11.934 -19.986  0.00  0.00    +0.292 HD
ENDBRANCH   8  28
TORSDOF 7
ENDMDL
MODEL 6
REMARK VINA RESULT:      -9.0      6.417     11.341
REMARK  Name = 54677674
REMARK  7 active torsions:
REMARK  status: ('A' for Active; 'I' for Inactive)
REMARK    1  A    between atoms: N_3  and  C_25
REMARK    2  A    between atoms: C_4  and  C_13
REMARK    3  A    between atoms: C_8  and  O_28
REMARK    4  A    between atoms: N_12  and  C_15
REMARK    5  A    between atoms: C_15  and  C_16
REMARK    6  A    between atoms: C_16  and  C_17
REMARK    7  A    between atoms: C_17  and  N_18
REMARK                            x       y       z     vdW  Elec       q    Type
REMARK                         _______ _______ _______ _____ _____    ______ ____
ROOT
ATOM      1  S   UNL     1      31.795  -9.836 -21.272  0.00  0.00    -0.069 S 
ATOM      2  O   UNL     1      33.831 -11.985 -25.337  0.00  0.00    -0.267 OA
ATOM      3  N   UNL     1      32.905 -10.905 -23.496  0.00  0.00    -0.292 N 
ATOM      4  C   UNL     1      33.062 -13.413 -23.610  0.00  0.00    +0.143 A 
ATOM      5  C   UNL     1      32.317 -11.120 -22.252  0.00  0.00    +0.095 A 
ATOM      6  C   UNL     1      33.300 -12.042 -24.224  0.00  0.00    +0.269 A 
ATOM      7  C   UNL     1      32.092 -12.345 -21.678  0.00  0.00    +0.057 A 
ATOM      8  C   UNL     1      32.483 -13.512 -22.394  0.00  0.00    +0.144 A 
ATOM      9  C   UNL     1      31.476 -12.234 -20.400  0.00  0.00    +0.012 C 
ATOM     10  C   UNL     1      31.257 -10.917 -20.055  0.00  0.00    +0.037 C 
ENDROOT
BRANCH   4  13
ATOM     11  O   UNL     1      32.939 -14.896 -25.427  0.00  0.00    -0.270 OA
ATOM     12  N   UNL     1      34.472 -15.322 -23.722  0.00  0.00    -0.301 N 
ATOM     13  C   UNL     1      33.472 -14.615 -24.359  0.00  0.00    +0.253 C 
ATOM     14  H   UNL     1      34.813 -14.983 -22.863  0.00  0.00    +0.150 HD
BRANCH  12  15
ATOM     15  C   UNL     1      35.041 -16.538 -24.259  0.00  0.00    +0.088 C 
BRANCH  15  16
ATOM     16  C   UNL     1      34.987 -17.698 -23.269  0.00  0.00    -0.002 C 
BRANCH  16  17
ATOM     17  C   UNL     1      34.936 -17.221 -21.817  0.00  0.00    -0.076 C 
BRANCH  17  18
ATOM     18  N   UNL     1      35.095 -18.356 -20.907  0.00  0.00    +0.387 N 
ATOM     19  C   UNL     1      36.417 -18.974 -21.082  0.00  0.00    -0.077 C 
ATOM     20  C   UNL     1      34.019 -19.335 -21.114  0.00  0.00    -0.077 C 
ATOM     21  C   UNL     1      36.618 -20.132 -20.103  0.00  0.00    -0.023 C 
ATOM     22  C   UNL     1      34.142 -20.505 -20.137  0.00  0.00    -0.023 C 
ATOM     23  C   UNL     1      35.510 -21.170 -20.237  0.00  0.00    -0.004 C 
ATOM     24  H   UNL     1      35.031 -18.016 -19.947  0.00  0.00    -0.080 HD
ENDBRANCH  17  18
ENDBRANCH  16  17
ENDBRANCH  15  16
ENDBRANCH  12  15
ENDBRANCH   4  13
BRANCH   3  25
ATOM     25  C   UNL     1      33.101  -9.556 -24.023  0.00  0.00    +0.089 C 
ATOM     26  C   UNL     1      34.418  -8.977 -23.523  0.00  0.00    +0.025 C 
ATOM     27  C   UNL     1      31.927  -8.659 -23.647  0.00  0.00    +0.025 C 
ENDBRANCH   3  25
BRANCH   8  28
ATOM     28  O   UNL     1      32.209 -14.684 -21.723  0.00  0.00    -0.505 OA
ATOM     29  H   UNL     1      31.526 -14.708 -21.083  0.00  0.00    +0.292 HD
ENDBRANCH   8  28
TORSDOF 7
ENDMDL
MODEL 7
REMARK VINA RESULT:      -8.9      7.657     10.673
REMARK  Name = 54677674
REMARK  7 active torsions:
REMARK  status: ('A' for Active; 'I' for Inactive)
REMARK    1  A    between atoms: N_3  and  C_25
REMARK    2  A    between atoms: C_4  and  C_13
REMARK    3  A    between atoms: C_8  and  O_28
REMARK    4  A    between atoms: N_12  and  C_15
REMARK    5  A    between atoms: C_15  and  C_16
REMARK    6  A    between atoms: C_16  and  C_17
REMARK    7  A    between atoms: C_17  and  N_18
REMARK                            x       y       z     vdW  Elec       q    Type
REMARK                         _______ _______ _______ _____ _____    ______ ____
ROOT
ATOM      1  S   UNL     1      34.570 -18.586 -22.094  0.00  0.00    -0.069 S 
ATOM      2  O   UNL     1      33.193 -13.754 -22.287  0.00  0.00    -0.267 OA
ATOM      3  N   UNL     1      33.819 -15.987 -22.102  0.00  0.00    -0.292 N 
ATOM      4  C   UNL     1      33.723 -14.826 -24.332  0.00  0.00    +0.143 A 
ATOM      5  C   UNL     1      34.219 -17.101 -22.836  0.00  0.00    +0.095 A 
ATOM      6  C   UNL     1      33.554 -14.807 -22.820  0.00  0.00    +0.269 A 
ATOM      7  C   UNL     1      34.378 -17.142 -24.198  0.00  0.00    +0.057 A 
ATOM      8  C   UNL     1      34.116 -15.960 -24.948  0.00  0.00    +0.144 A 
ATOM      9  C   UNL     1      34.798 -18.424 -24.651  0.00  0.00    +0.012 C 
ATOM     10  C   UNL     1      34.942 -19.311 -23.603  0.00  0.00    +0.037 C 
ENDROOT
BRANCH   4  13
ATOM     11  O   UNL     1      32.716 -13.623 -26.081  0.00  0.00    -0.270 OA
ATOM     12  N   UNL     1      34.101 -12.493 -24.582  0.00  0.00    -0.301 N 
ATOM     13  C   UNL     1      33.450 -13.596 -25.099  0.00  0.00    +0.253 C 
ATOM     14  H   UNL     1      34.664 -12.612 -23.783  0.00  0.00    +0.150 HD
BRANCH  12  15
ATOM     15  C   UNL     1      33.992 -11.173 -25.160  0.00  0.00    +0.088 C 
BRANCH  15  16
ATOM     16  C   UNL     1      34.111 -10.065 -24.118  0.00  0.00    -0.002 C 
BRANCH  16  17
ATOM     17  C   UNL     1      32.789  -9.801 -23.396  0.00  0.00    -0.076 C 
BRANCH  17  18
ATOM     18  N   UNL     1      32.856  -8.534 -22.666  0.00  0.00    +0.387 N 
ATOM     19  C   UNL     1      32.405  -8.717 -21.278  0.00  0.00    -0.077 C 
ATOM     20  C   UNL     1      32.062  -7.504 -23.350  0.00  0.00    -0.077 C 
ATOM     21  C   UNL     1      32.515  -7.412 -20.487  0.00  0.00    -0.023 C 
ATOM     22  C   UNL     1      32.161  -6.160 -22.626  0.00  0.00    -0.023 C 
ATOM     23  C   UNL     1      31.745  -6.286 -21.165  0.00  0.00    -0.004 C 
ATOM     24  H   UNL     1      33.826  -8.221 -22.643  0.00  0.00    -0.080 HD
ENDBRANCH  17  18
ENDBRANCH  16  17
ENDBRANCH  15  16
ENDBRANCH  12  15
ENDBRANCH   4  13
BRANCH   3  25
ATOM     25  C   UNL     1      33.678 -16.044 -20.649  0.00  0.00    +0.089 C 
ATOM     26  C   UNL     1      32.304 -15.538 -20.229  0.00  0.00    +0.025 C 
ATOM     27  C   UNL     1      34.788 -15.247 -19.972  0.00  0.00    +0.025 C 
ENDBRANCH   3  25
BRANCH   8  28
ATOM     28  O   UNL     1      34.308 -16.119 -26.303  0.00  0.00    -0.505 OA
ATOM     29  H   UNL     1      35.173 -16.227 -26.645  0.00  0.00    +0.292 HD
ENDBRANCH   8  28
TORSDOF 7
ENDMDL
MODEL 8
REMARK VINA RESULT:      -8.5      5.438     10.527
REMARK  Name = 54677674
REMARK  7 active torsions:
REMARK  status: ('A' for Active; 'I' for Inactive)
REMARK    1  A    between atoms: N_3  and  C_25
REMARK    2  A    between atoms: C_4  and  C_13
REMARK    3  A    between atoms: C_8  and  O_28
REMARK    4  A    between atoms: N_12  and  C_15
REMARK    5  A    between atoms: C_15  and  C_16
REMARK    6  A    between atoms: C_16  and  C_17
REMARK    7  A    between atoms: C_17  and  N_18
REMARK                            x       y       z     vdW  Elec       q    Type
REMARK                         _______ _______ _______ _____ _____    ______ ____
ROOT
ATOM      1  S   UNL     1      31.491 -10.935 -22.655  0.00  0.00    -0.069 S 
ATOM      2  O   UNL     1      34.800 -14.410 -24.158  0.00  0.00    -0.267 OA
ATOM      3  N   UNL     1      33.280 -12.758 -23.548  0.00  0.00    -0.292 N 
ATOM      4  C   UNL     1      33.870 -14.646 -21.993  0.00  0.00    +0.143 A 
ATOM      5  C   UNL     1      32.444 -12.333 -22.518  0.00  0.00    +0.095 A 
ATOM      6  C   UNL     1      34.025 -13.931 -23.326  0.00  0.00    +0.269 A 
ATOM      7  C   UNL     1      32.287 -12.961 -21.309  0.00  0.00    +0.057 A 
ATOM      8  C   UNL     1      33.030 -14.150 -21.059  0.00  0.00    +0.144 A 
ATOM      9  C   UNL     1      31.362 -12.282 -20.468  0.00  0.00    +0.012 C 
ATOM     10  C   UNL     1      30.850 -11.156 -21.080  0.00  0.00    +0.037 C 
ENDROOT
BRANCH   4  13
ATOM     11  O   UNL     1      35.101 -16.111 -20.630  0.00  0.00    -0.270 OA
ATOM     12  N   UNL     1      34.768 -16.662 -22.872  0.00  0.00    -0.301 N 
ATOM     13  C   UNL     1      34.645 -15.876 -21.744  0.00  0.00    +0.253 C 
ATOM     14  H   UNL     1      34.349 -16.354 -23.708  0.00  0.00    +0.150 HD
BRANCH  12  15
ATOM     15  C   UNL     1      35.483 -17.919 -22.881  0.00  0.00    +0.088 C 
BRANCH  15  16
ATOM     16  C   UNL     1      34.550 -19.125 -22.839  0.00  0.00    -0.002 C 
BRANCH  16  17
ATOM     17  C   UNL     1      33.881 -19.296 -21.474  0.00  0.00    -0.076 C 
BRANCH  17  18
ATOM     18  N   UNL     1      34.390 -20.496 -20.809  0.00  0.00    +0.387 N 
ATOM     19  C   UNL     1      33.429 -20.972 -19.803  0.00  0.00    -0.077 C 
ATOM     20  C   UNL     1      35.703 -20.230 -20.205  0.00  0.00    -0.077 C 
ATOM     21  C   UNL     1      33.925 -22.254 -19.132  0.00  0.00    -0.023 C 
ATOM     22  C   UNL     1      36.272 -21.488 -19.547  0.00  0.00    -0.023 C 
ATOM     23  C   UNL     1      35.305 -22.060 -18.517  0.00  0.00    -0.004 C 
ATOM     24  H   UNL     1      34.507 -21.231 -21.506  0.00  0.00    -0.080 HD
ENDBRANCH  17  18
ENDBRANCH  16  17
ENDBRANCH  15  16
ENDBRANCH  12  15
ENDBRANCH   4  13
BRANCH   3  25
ATOM     25  C   UNL     1      33.377 -12.019 -24.804  0.00  0.00    +0.089 C 
ATOM     26  C   UNL     1      33.407 -12.981 -25.985  0.00  0.00    +0.025 C 
ATOM     27  C   UNL     1      34.605 -11.115 -24.799  0.00  0.00    +0.025 C 
ENDBRANCH   3  25
BRANCH   8  28
ATOM     28  O   UNL     1      32.793 -14.692 -19.815  0.00  0.00    -0.505 OA
ATOM     29  H   UNL     1      33.170 -15.518 -19.585  0.00  0.00    +0.292 HD
ENDBRANCH   8  28
TORSDOF 7
ENDMDL
MODEL 9
REMARK VINA RESULT:      -8.5      8.513     12.434
REMARK  Name = 54677674
REMARK  7 active torsions:
REMARK  status: ('A' for Active; 'I' for Inactive)
REMARK    1  A    between atoms: N_3  and  C_25
REMARK    2  A    between atoms: C_4  and  C_13
REMARK    3  A    between atoms: C_8  and  O_28
REMARK    4  A    between atoms: N_12  and  C_15
REMARK    5  A    between atoms: C_15  and  C_16
REMARK    6  A    between atoms: C_16  and  C_17
REMARK    7  A    between atoms: C_17  and  N_18
REMARK                            x       y       z     vdW  Elec       q    Type
REMARK                         _______ _______ _______ _____ _____    ______ ____
ROOT
ATOM      1  S   UNL     1      33.836  -7.405 -23.446  0.00  0.00    -0.069 S 
ATOM      2  O   UNL     1      31.153 -11.046 -21.248  0.00  0.00    -0.267 OA
ATOM      3  N   UNL     1      32.348  -9.297 -22.210  0.00  0.00    -0.292 N 
ATOM      4  C   UNL     1      32.719 -11.686 -22.907  0.00  0.00    +0.143 A 
ATOM      5  C   UNL     1      33.329  -8.998 -23.153  0.00  0.00    +0.095 A 
ATOM      6  C   UNL     1      32.005 -10.651 -22.049  0.00  0.00    +0.269 A 
ATOM      7  C   UNL     1      33.986  -9.912 -23.936  0.00  0.00    +0.057 A 
ATOM      8  C   UNL     1      33.657 -11.290 -23.793  0.00  0.00    +0.144 A 
ATOM      9  C   UNL     1      34.932  -9.295 -24.802  0.00  0.00    +0.012 C 
ATOM     10  C   UNL     1      34.953  -7.925 -24.638  0.00  0.00    +0.037 C 
ENDROOT
BRANCH   4  13
ATOM     11  O   UNL     1      31.934 -13.752 -23.701  0.00  0.00    -0.270 OA
ATOM     12  N   UNL     1      32.592 -13.574 -21.471  0.00  0.00    -0.301 N 
ATOM     13  C   UNL     1      32.370 -13.110 -22.752  0.00  0.00    +0.253 C 
ATOM     14  H   UNL     1      32.948 -12.948 -20.799  0.00  0.00    +0.150 HD
BRANCH  12  15
ATOM     15  C   UNL     1      32.327 -14.938 -21.070  0.00  0.00    +0.088 C 
BRANCH  15  16
ATOM     16  C   UNL     1      33.598 -15.777 -20.968  0.00  0.00    -0.002 C 
BRANCH  16  17
ATOM     17  C   UNL     1      34.703 -15.275 -21.898  0.00  0.00    -0.076 C 
BRANCH  17  18
ATOM     18  N   UNL     1      35.072 -16.320 -22.853  0.00  0.00    +0.387 N 
ATOM     19  C   UNL     1      34.337 -16.147 -24.114  0.00  0.00    -0.077 C 
ATOM     20  C   UNL     1      34.833 -17.650 -22.277  0.00  0.00    -0.077 C 
ATOM     21  C   UNL     1      34.749 -17.204 -25.141  0.00  0.00    -0.023 C 
ATOM     22  C   UNL     1      35.260 -18.755 -23.244  0.00  0.00    -0.023 C 
ATOM     23  C   UNL     1      34.563 -18.613 -24.592  0.00  0.00    -0.004 C 
ATOM     24  H   UNL     1      36.069 -16.240 -23.056  0.00  0.00    -0.080 HD
ENDBRANCH  17  18
ENDBRANCH  16  17
ENDBRANCH  15  16
ENDBRANCH  12  15
ENDBRANCH   4  13
BRANCH   3  25
ATOM     25  C   UNL     1      31.706  -8.248 -21.421  0.00  0.00    +0.089 C 
ATOM     26  C   UNL     1      31.272  -7.098 -22.320  0.00  0.00    +0.025 C 
ATOM     27  C   UNL     1      32.637  -7.763 -20.316  0.00  0.00    +0.025 C 
ENDBRANCH   3  25
BRANCH   8  28
ATOM     28  O   UNL     1      34.378 -12.114 -24.629  0.00  0.00    -0.505 OA
ATOM     29  H   UNL     1      34.988 -12.727 -24.270  0.00  0.00    +0.292 HD
ENDBRANCH   8  28
TORSDOF 7
ENDMDL
