MODEL 1
REMARK VINA RESULT:     -10.1      0.000      0.000
REMARK  Name = 3475
REMARK  3 active torsions:
REMARK  status: ('A' for Active; 'I' for Inactive)
REMARK    1  A    between atoms: N_2  and  N_7
REMARK    2  A    between atoms: N_3  and  S_15
REMARK    3  A    between atoms: S_15  and  C_18
REMARK                            x       y       z     vdW  Elec       q    Type
REMARK                         _______ _______ _______ _____ _____    ______ ____
ROOT
ATOM      1  O   UNL     1      33.309 -23.843 -16.205  0.00  0.00    -0.250 OA
ATOM      2  N   UNL     1      31.213 -22.894 -16.448  0.00  0.00    -0.230 N 
ATOM      3  N   UNL     1      32.832 -22.558 -18.096  0.00  0.00    -0.168 N 
ATOM      4  C   UNL     1      32.507 -23.165 -16.840  0.00  0.00    +0.333 C 
ATOM      5  H   UNL     1      30.627 -22.340 -17.012  0.00  0.00    +0.171 HD
ATOM      6  H   UNL     1      32.129 -22.028 -18.537  0.00  0.00    +0.178 HD
ENDROOT
BRANCH   2   7
ATOM      7  N   UNL     1      30.744 -23.410 -15.249  0.00  0.00    -0.205 NA
ATOM      8  C   UNL     1      28.399 -22.875 -15.227  0.00  0.00    +0.019 C 
ATOM      9  C   UNL     1      28.572 -24.301 -15.774  0.00  0.00    +0.019 C 
ATOM     10  C   UNL     1      27.963 -22.019 -16.419  0.00  0.00    +0.001 C 
ATOM     11  C   UNL     1      28.231 -24.222 -17.264  0.00  0.00    +0.001 C 
ATOM     12  C   UNL     1      29.755 -22.509 -14.633  0.00  0.00    +0.092 C 
ATOM     13  C   UNL     1      30.018 -24.673 -15.463  0.00  0.00    +0.092 C 
ATOM     14  C   UNL     1      27.317 -23.012 -17.371  0.00  0.00    +0.000 C 
ENDBRANCH   2   7
BRANCH   3  15
ATOM     15  S   UNL     1      34.340 -22.676 -18.892  0.00  0.00    +0.077 S 
ATOM     16  O   UNL     1      35.409 -22.603 -17.914  0.00  0.00    -0.150 OA
ATOM     17  O   UNL     1      34.291 -23.765 -19.848  0.00  0.00    -0.150 OA
BRANCH  15  18
ATOM     18  C   UNL     1      34.347 -21.176 -19.827  0.00  0.00    +0.125 C 
ATOM     19  C   UNL     1      35.557 -20.638 -20.232  0.00  0.00    +0.020 C 
ATOM     20  C   UNL     1      33.144 -20.566 -20.138  0.00  0.00    +0.020 C 
ATOM     21  C   UNL     1      34.360 -18.826 -21.292  0.00  0.00    -0.022 C 
ATOM     22  C   UNL     1      35.564 -19.454 -20.970  0.00  0.00    -0.003 C 
ATOM     23  C   UNL     1      33.150 -19.383 -20.876  0.00  0.00    -0.003 C 
ATOM     24  C   UNL     1      34.367 -17.560 -22.080  0.00  0.00    +0.031 C 
ENDBRANCH  15  18
ENDBRANCH   3  15
TORSDOF 3
ENDMDL
MODEL 2
REMARK VINA RESULT:     -10.0      3.816      5.582
REMARK  Name = 3475
REMARK  3 active torsions:
REMARK  status: ('A' for Active; 'I' for Inactive)
REMARK    1  A    between atoms: N_2  and  N_7
REMARK    2  A    between atoms: N_3  and  S_15
REMARK    3  A    between atoms: S_15  and  C_18
REMARK                            x       y       z     vdW  Elec       q    Type
REMARK                         _______ _______ _______ _____ _____    ______ ____
ROOT
ATOM      1  O   UNL     1      33.472 -23.405 -15.490  0.00  0.00    -0.250 OA
ATOM      2  N   UNL     1      35.721 -23.016 -15.115  0.00  0.00    -0.230 N 
ATOM      3  N   UNL     1      34.861 -22.827 -17.276  0.00  0.00    -0.168 N 
ATOM      4  C   UNL     1      34.592 -23.111 -15.899  0.00  0.00    +0.333 C 
ATOM      5  H   UNL     1      36.587 -22.775 -15.515  0.00  0.00    +0.171 HD
ATOM      6  H   UNL     1      35.789 -22.602 -17.518  0.00  0.00    +0.178 HD
ENDROOT
BRANCH   2   7
ATOM      7  N   UNL     1      35.627 -23.265 -13.754  0.00  0.00    -0.205 NA
ATOM      8  C   UNL     1      36.480 -25.497 -13.478  0.00  0.00    +0.019 C 
ATOM      9  C   UNL     1      37.620 -24.500 -13.217  0.00  0.00    +0.019 C 
ATOM     10  C   UNL     1      36.819 -26.183 -14.804  0.00  0.00    +0.001 C 
ATOM     11  C   UNL     1      38.580 -24.642 -14.402  0.00  0.00    +0.001 C 
ATOM     12  C   UNL     1      35.209 -24.654 -13.494  0.00  0.00    +0.092 C 
ATOM     13  C   UNL     1      36.940 -23.140 -13.099  0.00  0.00    +0.092 C 
ATOM     14  C   UNL     1      38.329 -26.050 -14.914  0.00  0.00    +0.000 C 
ENDBRANCH   2   7
BRANCH   3  15
ATOM     15  S   UNL     1      33.706 -22.847 -18.537  0.00  0.00    +0.077 S 
ATOM     16  O   UNL     1      33.864 -24.060 -19.316  0.00  0.00    -0.150 OA
ATOM     17  O   UNL     1      32.410 -22.480 -18.002  0.00  0.00    -0.150 OA
BRANCH  15  18
ATOM     18  C   UNL     1      34.256 -21.485 -19.520  0.00  0.00    +0.125 C 
ATOM     19  C   UNL     1      35.615 -21.260 -19.663  0.00  0.00    +0.020 C 
ATOM     20  C   UNL     1      33.319 -20.669 -20.130  0.00  0.00    +0.020 C 
ATOM     21  C   UNL     1      35.120 -19.352 -21.060  0.00  0.00    -0.022 C 
ATOM     22  C   UNL     1      36.050 -20.185 -20.438  0.00  0.00    -0.003 C 
ATOM     23  C   UNL     1      33.754 -19.595 -20.906  0.00  0.00    -0.003 C 
ATOM     24  C   UNL     1      35.584 -18.204 -21.890  0.00  0.00    +0.031 C 
ENDBRANCH  15  18
ENDBRANCH   3  15
TORSDOF 3
ENDMDL
MODEL 3
REMARK VINA RESULT:      -8.5      4.568      6.234
REMARK  Name = 3475
REMARK  3 active torsions:
REMARK  status: ('A' for Active; 'I' for Inactive)
REMARK    1  A    between atoms: N_2  and  N_7
REMARK    2  A    between atoms: N_3  and  S_15
REMARK    3  A    between atoms: S_15  and  C_18
REMARK                            x       y       z     vdW  Elec       q    Type
REMARK                         _______ _______ _______ _____ _____    ______ ____
ROOT
ATOM      1  O   UNL     1      35.426 -25.666 -15.903  0.00  0.00    -0.250 OA
ATOM      2  N   UNL     1      36.969 -24.241 -14.932  0.00  0.00    -0.230 N 
ATOM      3  N   UNL     1      35.228 -23.359 -16.213  0.00  0.00    -0.168 N 
ATOM      4  C   UNL     1      35.854 -24.535 -15.688  0.00  0.00    +0.333 C 
ATOM      5  H   UNL     1      37.252 -23.307 -14.804  0.00  0.00    +0.171 HD
ATOM      6  H   UNL     1      35.639 -22.492 -15.993  0.00  0.00    +0.178 HD
ENDROOT
BRANCH   2   7
ATOM      7  N   UNL     1      37.690 -25.275 -14.354  0.00  0.00    -0.205 NA
ATOM      8  C   UNL     1      38.197 -24.501 -12.133  0.00  0.00    +0.019 C 
ATOM      9  C   UNL     1      36.923 -25.357 -12.076  0.00  0.00    +0.019 C 
ATOM     10  C   UNL     1      37.746 -23.061 -11.877  0.00  0.00    +0.001 C 
ATOM     11  C   UNL     1      35.777 -24.383 -11.789  0.00  0.00    +0.001 C 
ATOM     12  C   UNL     1      38.786 -24.756 -13.517  0.00  0.00    +0.092 C 
ATOM     13  C   UNL     1      36.851 -26.056 -13.430  0.00  0.00    +0.092 C 
ATOM     14  C   UNL     1      36.452 -23.212 -11.096  0.00  0.00    +0.000 C 
ENDBRANCH   2   7
BRANCH   3  15
ATOM     15  S   UNL     1      33.827 -23.336 -17.192  0.00  0.00    +0.077 S 
ATOM     16  O   UNL     1      33.657 -24.631 -17.822  0.00  0.00    -0.150 OA
ATOM     17  O   UNL     1      32.737 -22.731 -16.451  0.00  0.00    -0.150 OA
BRANCH  15  18
ATOM     18  C   UNL     1      34.303 -22.176 -18.437  0.00  0.00    +0.125 C 
ATOM     19  C   UNL     1      33.323 -21.559 -19.196  0.00  0.00    +0.020 C 
ATOM     20  C   UNL     1      35.647 -21.905 -18.632  0.00  0.00    +0.020 C 
ATOM     21  C   UNL     1      35.047 -20.359 -20.389  0.00  0.00    -0.022 C 
ATOM     22  C   UNL     1      33.698 -20.644 -20.180  0.00  0.00    -0.003 C 
ATOM     23  C   UNL     1      36.021 -20.990 -19.615  0.00  0.00    -0.003 C 
ATOM     24  C   UNL     1      35.448 -19.380 -21.441  0.00  0.00    +0.031 C 
ENDBRANCH  15  18
ENDBRANCH   3  15
TORSDOF 3
ENDMDL
MODEL 4
REMARK VINA RESULT:      -8.2      2.578      3.279
REMARK  Name = 3475
REMARK  3 active torsions:
REMARK  status: ('A' for Active; 'I' for Inactive)
REMARK    1  A    between atoms: N_2  and  N_7
REMARK    2  A    between atoms: N_3  and  S_15
REMARK    3  A    between atoms: S_15  and  C_18
REMARK                            x       y       z     vdW  Elec       q    Type
REMARK                         _______ _______ _______ _____ _____    ______ ____
ROOT
ATOM      1  O   UNL     1      34.229 -25.055 -14.361  0.00  0.00    -0.250 OA
ATOM      2  N   UNL     1      32.853 -23.358 -13.601  0.00  0.00    -0.230 N 
ATOM      3  N   UNL     1      34.845 -22.827 -14.696  0.00  0.00    -0.168 N 
ATOM      4  C   UNL     1      33.976 -23.862 -14.221  0.00  0.00    +0.333 C 
ATOM      5  H   UNL     1      32.719 -22.386 -13.526  0.00  0.00    +0.171 HD
ATOM      6  H   UNL     1      34.566 -21.897 -14.540  0.00  0.00    +0.178 HD
ENDROOT
BRANCH   2   7
ATOM      7  N   UNL     1      31.911 -24.234 -13.083  0.00  0.00    -0.205 NA
ATOM      8  C   UNL     1      29.838 -23.589 -14.119  0.00  0.00    +0.019 C 
ATOM      9  C   UNL     1      30.458 -24.735 -14.933  0.00  0.00    +0.019 C 
ATOM     10  C   UNL     1      29.962 -22.338 -14.993  0.00  0.00    +0.001 C 
ATOM     11  C   UNL     1      30.921 -24.109 -16.252  0.00  0.00    +0.001 C 
ATOM     12  C   UNL     1      30.635 -23.548 -12.818  0.00  0.00    +0.092 C 
ATOM     13  C   UNL     1      31.576 -25.288 -14.055  0.00  0.00    +0.092 C 
ATOM     14  C   UNL     1      30.036 -22.884 -16.410  0.00  0.00    +0.000 C 
ENDBRANCH   2   7
BRANCH   3  15
ATOM     15  S   UNL     1      36.326 -23.075 -15.513  0.00  0.00    +0.077 S 
ATOM     16  O   UNL     1      37.363 -22.280 -14.883  0.00  0.00    -0.150 OA
ATOM     17  O   UNL     1      36.520 -24.496 -15.731  0.00  0.00    -0.150 OA
BRANCH  15  18
ATOM     18  C   UNL     1      35.967 -22.361 -17.089  0.00  0.00    +0.125 C 
ATOM     19  C   UNL     1      34.732 -22.597 -17.671  0.00  0.00    +0.020 C 
ATOM     20  C   UNL     1      36.924 -21.580 -17.714  0.00  0.00    +0.020 C 
ATOM     21  C   UNL     1      35.401 -21.245 -19.559  0.00  0.00    -0.022 C 
ATOM     22  C   UNL     1      34.447 -22.035 -18.916  0.00  0.00    -0.003 C 
ATOM     23  C   UNL     1      36.639 -21.018 -18.957  0.00  0.00    -0.003 C 
ATOM     24  C   UNL     1      35.097 -20.643 -20.889  0.00  0.00    +0.031 C 
ENDBRANCH  15  18
ENDBRANCH   3  15
TORSDOF 3
ENDMDL
MODEL 5
REMARK VINA RESULT:      -8.0      4.878      7.273
REMARK  Name = 3475
REMARK  3 active torsions:
REMARK  status: ('A' for Active; 'I' for Inactive)
REMARK    1  A    between atoms: N_2  and  N_7
REMARK    2  A    between atoms: N_3  and  S_15
REMARK    3  A    between atoms: S_15  and  C_18
REMARK                            x       y       z     vdW  Elec       q    Type
REMARK                         _______ _______ _______ _____ _____    ______ ____
ROOT
ATOM      1  O   UNL     1      34.413 -23.521 -12.072  0.00  0.00    -0.250 OA
ATOM      2  N   UNL     1      35.665 -25.390 -12.614  0.00  0.00    -0.230 N 
ATOM      3  N   UNL     1      33.599 -25.045 -13.644  0.00  0.00    -0.168 N 
ATOM      4  C   UNL     1      34.568 -24.560 -12.708  0.00  0.00    +0.333 C 
ATOM      5  H   UNL     1      35.718 -26.209 -13.156  0.00  0.00    +0.171 HD
ATOM      6  H   UNL     1      33.803 -25.888 -14.109  0.00  0.00    +0.178 HD
ENDROOT
BRANCH   2   7
ATOM      7  N   UNL     1      36.694 -25.060 -11.745  0.00  0.00    -0.205 NA
ATOM      8  C   UNL     1      38.645 -24.889 -13.143  0.00  0.00    +0.019 C 
ATOM      9  C   UNL     1      38.044 -23.486 -12.964  0.00  0.00    +0.019 C 
ATOM     10  C   UNL     1      38.380 -25.276 -14.600  0.00  0.00    +0.001 C 
ATOM     11  C   UNL     1      37.451 -23.108 -14.324  0.00  0.00    +0.001 C 
ATOM     12  C   UNL     1      37.940 -25.758 -12.106  0.00  0.00    +0.092 C 
ATOM     13  C   UNL     1      37.027 -23.629 -11.836  0.00  0.00    +0.092 C 
ATOM     14  C   UNL     1      38.242 -23.943 -15.317  0.00  0.00    +0.000 C 
ENDBRANCH   2   7
BRANCH   3  15
ATOM     15  S   UNL     1      32.118 -24.280 -14.022  0.00  0.00    +0.077 S 
ATOM     16  O   UNL     1      31.093 -25.287 -14.224  0.00  0.00    -0.150 OA
ATOM     17  O   UNL     1      31.899 -23.182 -13.101  0.00  0.00    -0.150 OA
BRANCH  15  18
ATOM     18  C   UNL     1      32.499 -23.561 -15.591  0.00  0.00    +0.125 C 
ATOM     19  C   UNL     1      33.812 -23.557 -16.031  0.00  0.00    +0.020 C 
ATOM     20  C   UNL     1      31.480 -23.014 -16.352  0.00  0.00    +0.020 C 
ATOM     21  C   UNL     1      33.100 -22.434 -18.048  0.00  0.00    -0.022 C 
ATOM     22  C   UNL     1      34.115 -22.989 -17.269  0.00  0.00    -0.003 C 
ATOM     23  C   UNL     1      31.782 -22.447 -17.589  0.00  0.00    -0.003 C 
ATOM     24  C   UNL     1      33.422 -21.827 -19.371  0.00  0.00    +0.031 C 
ENDBRANCH  15  18
ENDBRANCH   3  15
TORSDOF 3
ENDMDL
MODEL 6
REMARK VINA RESULT:      -7.6      7.484      9.914
REMARK  Name = 3475
REMARK  3 active torsions:
REMARK  status: ('A' for Active; 'I' for Inactive)
REMARK    1  A    between atoms: N_2  and  N_7
REMARK    2  A    between atoms: N_3  and  S_15
REMARK    3  A    between atoms: S_15  and  C_18
REMARK                            x       y       z     vdW  Elec       q    Type
REMARK                         _______ _______ _______ _____ _____    ______ ____
ROOT
ATOM      1  O   UNL     1      34.636 -15.821 -25.192  0.00  0.00    -0.250 OA
ATOM      2  N   UNL     1      35.061 -16.781 -23.130  0.00  0.00    -0.230 N 
ATOM      3  N   UNL     1      33.904 -14.756 -23.246  0.00  0.00    -0.168 N 
ATOM      4  C   UNL     1      34.553 -15.810 -23.967  0.00  0.00    +0.333 C 
ATOM      5  H   UNL     1      34.956 -16.702 -22.154  0.00  0.00    +0.171 HD
ATOM      6  H   UNL     1      33.886 -14.825 -22.264  0.00  0.00    +0.178 HD
ENDROOT
BRANCH   2   7
ATOM      7  N   UNL     1      35.722 -17.870 -23.675  0.00  0.00    -0.205 NA
ATOM      8  C   UNL     1      35.821 -19.483 -21.892  0.00  0.00    +0.019 C 
ATOM      9  C   UNL     1      34.594 -19.790 -22.765  0.00  0.00    +0.019 C 
ATOM     10  C   UNL     1      35.270 -18.952 -20.566  0.00  0.00    +0.001 C 
ATOM     11  C   UNL     1      33.374 -19.426 -21.915  0.00  0.00    +0.001 C 
ATOM     12  C   UNL     1      36.641 -18.479 -22.697  0.00  0.00    +0.092 C 
ATOM     13  C   UNL     1      34.778 -18.946 -24.022  0.00  0.00    +0.092 C 
ATOM     14  C   UNL     1      33.872 -19.543 -20.484  0.00  0.00    +0.000 C 
ENDBRANCH   2   7
BRANCH   3  15
ATOM     15  S   UNL     1      33.160 -13.387 -23.949  0.00  0.00    +0.077 S 
ATOM     16  O   UNL     1      34.176 -12.529 -24.527  0.00  0.00    -0.150 OA
ATOM     17  O   UNL     1      32.022 -13.816 -24.739  0.00  0.00    -0.150 OA
BRANCH  15  18
ATOM     18  C   UNL     1      32.511 -12.582 -22.516  0.00  0.00    +0.125 C 
ATOM     19  C   UNL     1      32.433 -13.283 -21.324  0.00  0.00    +0.020 C 
ATOM     20  C   UNL     1      32.093 -11.265 -22.609  0.00  0.00    +0.020 C 
ATOM     21  C   UNL     1      31.494 -11.323 -20.268  0.00  0.00    -0.022 C 
ATOM     22  C   UNL     1      31.920 -12.649 -20.192  0.00  0.00    -0.003 C 
ATOM     23  C   UNL     1      31.581 -10.632 -21.478  0.00  0.00    -0.003 C 
ATOM     24  C   UNL     1      30.947 -10.645 -19.059  0.00  0.00    +0.031 C 
ENDBRANCH  15  18
ENDBRANCH   3  15
TORSDOF 3
ENDMDL
MODEL 7
REMARK VINA RESULT:      -7.1      3.809      8.174
REMARK  Name = 3475
REMARK  3 active torsions:
REMARK  status: ('A' for Active; 'I' for Inactive)
REMARK    1  A    between atoms: N_2  and  N_7
REMARK    2  A    between atoms: N_3  and  S_15
REMARK    3  A    between atoms: S_15  and  C_18
REMARK                            x       y       z     vdW  Elec       q    Type
REMARK                         _______ _______ _______ _____ _____    ______ ____
ROOT
ATOM      1  O   UNL     1      36.722 -18.676 -22.049  0.00  0.00    -0.250 OA
ATOM      2  N   UNL     1      34.522 -17.962 -22.102  0.00  0.00    -0.230 N 
ATOM      3  N   UNL     1      35.144 -19.680 -20.649  0.00  0.00    -0.168 N 
ATOM      4  C   UNL     1      35.562 -18.746 -21.652  0.00  0.00    +0.333 C 
ATOM      5  H   UNL     1      33.616 -18.078 -21.736  0.00  0.00    +0.171 HD
ATOM      6  H   UNL     1      34.195 -19.670 -20.391  0.00  0.00    +0.178 HD
ENDROOT
BRANCH   2   7
ATOM      7  N   UNL     1      34.764 -17.008 -23.079  0.00  0.00    -0.205 NA
ATOM      8  C   UNL     1      33.268 -15.199 -22.551  0.00  0.00    +0.019 C 
ATOM      9  C   UNL     1      34.638 -14.902 -21.922  0.00  0.00    +0.019 C 
ATOM     10  C   UNL     1      32.329 -15.512 -21.383  0.00  0.00    +0.001 C 
ATOM     11  C   UNL     1      34.446 -15.055 -20.410  0.00  0.00    +0.001 C 
ATOM     12  C   UNL     1      33.513 -16.359 -23.510  0.00  0.00    +0.092 C 
ATOM     13  C   UNL     1      35.593 -15.910 -22.554  0.00  0.00    +0.092 C 
ATOM     14  C   UNL     1      32.963 -14.802 -20.199  0.00  0.00    +0.000 C 
ENDBRANCH   2   7
BRANCH   3  15
ATOM     15  S   UNL     1      36.159 -20.810 -19.863  0.00  0.00    +0.077 S 
ATOM     16  O   UNL     1      36.668 -21.758 -20.835  0.00  0.00    -0.150 OA
ATOM     17  O   UNL     1      37.066 -20.103 -18.980  0.00  0.00    -0.150 OA
BRANCH  15  18
ATOM     18  C   UNL     1      34.994 -21.650 -18.833  0.00  0.00    +0.125 C 
ATOM     19  C   UNL     1      33.655 -21.647 -19.186  0.00  0.00    +0.020 C 
ATOM     20  C   UNL     1      35.440 -22.295 -17.693  0.00  0.00    +0.020 C 
ATOM     21  C   UNL     1      33.167 -22.965 -17.221  0.00  0.00    -0.022 C 
ATOM     22  C   UNL     1      32.734 -22.309 -18.374  0.00  0.00    -0.003 C 
ATOM     23  C   UNL     1      34.520 -22.957 -16.881  0.00  0.00    -0.003 C 
ATOM     24  C   UNL     1      32.184 -23.673 -16.352  0.00  0.00    +0.031 C 
ENDBRANCH  15  18
ENDBRANCH   3  15
TORSDOF 3
ENDMDL
