MODEL 1
REMARK VINA RESULT:      -7.2      0.000      0.000
REMARK  Name = 161358
REMARK  5 active torsions:
REMARK  status: ('A' for Active; 'I' for Inactive)
REMARK    1  A    between atoms: N_3  and  C_10
REMARK    2  A    between atoms: C_10  and  C_11
REMARK    3  A    between atoms: C_11  and  C_13
REMARK    4  A    between atoms: C_13  and  O_14
REMARK    5  A    between atoms: O_14  and  N_15
REMARK                            x       y       z     vdW  Elec       q    Type
REMARK                         _______ _______ _______ _____ _____    ______ ____
ROOT
ATOM      1  O   UNL     1      37.168 -26.940 -12.673  0.00  0.00    -0.252 OA
ATOM      2  O   UNL     1      40.872 -25.633 -15.085  0.00  0.00    -0.270 OA
ATOM      3  N   UNL     1      37.046 -24.987 -13.948  0.00  0.00    -0.241 N 
ATOM      4  N   UNL     1      39.011 -26.286 -13.874  0.00  0.00    -0.236 N 
ATOM      5  C   UNL     1      37.689 -26.126 -13.439  0.00  0.00    +0.314 C 
ATOM      6  C   UNL     1      37.686 -24.116 -14.805  0.00  0.00    +0.074 C 
ATOM      7  C   UNL     1      38.946 -24.282 -15.211  0.00  0.00    +0.074 C 
ATOM      8  C   UNL     1      39.710 -25.451 -14.731  0.00  0.00    +0.254 C 
ATOM      9  H   UNL     1      39.494 -27.076 -13.537  0.00  0.00    +0.159 HD
ENDROOT
BRANCH   3  10
ATOM     10  C   UNL     1      35.666 -24.719 -13.561  0.00  0.00    +0.112 C 
BRANCH  10  11
ATOM     11  C   UNL     1      35.569 -23.686 -12.444  0.00  0.00    +0.133 C 
BRANCH  11  13
ATOM     12  O   UNL     1      35.207 -24.943 -10.392  0.00  0.00    -0.248 OA
ATOM     13  C   UNL     1      35.937 -24.247 -11.085  0.00  0.00    +0.336 C 
BRANCH  13  14
ATOM     14  O   UNL     1      37.202 -23.829 -10.774  0.00  0.00    -0.371 OA
BRANCH  14  15
ATOM     15  N   UNL     1      37.384 -22.456 -11.217  0.00  0.00    -0.165 NA
ATOM     16  H   UNL     1      36.885 -21.827 -10.589  0.00  0.00    +0.163 HD
ATOM     17  H   UNL     1      37.017 -22.354 -12.164  0.00  0.00    +0.163 HD
ENDBRANCH  14  15
ENDBRANCH  13  14
ENDBRANCH  11  13
ENDBRANCH  10  11
ENDBRANCH   3  10
TORSDOF 5
ENDMDL
MODEL 2
REMARK VINA RESULT:      -7.2      7.973      9.152
REMARK  Name = 161358
REMARK  5 active torsions:
REMARK  status: ('A' for Active; 'I' for Inactive)
REMARK    1  A    between atoms: N_3  and  C_10
REMARK    2  A    between atoms: C_10  and  C_11
REMARK    3  A    between atoms: C_11  and  C_13
REMARK    4  A    between atoms: C_13  and  O_14
REMARK    5  A    between atoms: O_14  and  N_15
REMARK                            x       y       z     vdW  Elec       q    Type
REMARK                         _______ _______ _______ _____ _____    ______ ____
ROOT
ATOM      1  O   UNL     1      30.918 -22.517 -17.118  0.00  0.00    -0.252 OA
ATOM      2  O   UNL     1      33.645 -24.565 -14.017  0.00  0.00    -0.270 OA
ATOM      3  N   UNL     1      29.945 -23.898 -15.505  0.00  0.00    -0.241 N 
ATOM      4  N   UNL     1      32.274 -23.539 -15.573  0.00  0.00    -0.236 N 
ATOM      5  C   UNL     1      31.023 -23.263 -16.141  0.00  0.00    +0.314 C 
ATOM      6  C   UNL     1      30.131 -24.720 -14.413  0.00  0.00    +0.074 C 
ATOM      7  C   UNL     1      31.329 -24.973 -13.883  0.00  0.00    +0.074 C 
ATOM      8  C   UNL     1      32.528 -24.352 -14.480  0.00  0.00    +0.254 C 
ATOM      9  H   UNL     1      33.054 -23.110 -15.994  0.00  0.00    +0.159 HD
ENDROOT
BRANCH   3  10
ATOM     10  C   UNL     1      28.595 -23.683 -16.013  0.00  0.00    +0.112 C 
BRANCH  10  11
ATOM     11  C   UNL     1      27.959 -22.420 -15.447  0.00  0.00    +0.133 C 
BRANCH  11  13
ATOM     12  O   UNL     1      25.569 -22.077 -15.752  0.00  0.00    -0.248 OA
ATOM     13  C   UNL     1      26.709 -22.000 -16.193  0.00  0.00    +0.336 C 
BRANCH  13  14
ATOM     14  O   UNL     1      27.076 -21.544 -17.430  0.00  0.00    -0.371 OA
BRANCH  14  15
ATOM     15  N   UNL     1      26.106 -20.564 -17.893  0.00  0.00    -0.165 NA
ATOM     16  H   UNL     1      25.935 -19.880 -17.156  0.00  0.00    +0.163 HD
ATOM     17  H   UNL     1      25.233 -21.037 -18.129  0.00  0.00    +0.163 HD
ENDBRANCH  14  15
ENDBRANCH  13  14
ENDBRANCH  11  13
ENDBRANCH  10  11
ENDBRANCH   3  10
TORSDOF 5
ENDMDL
MODEL 3
REMARK VINA RESULT:      -7.1      6.959      7.971
REMARK  Name = 161358
REMARK  5 active torsions:
REMARK  status: ('A' for Active; 'I' for Inactive)
REMARK    1  A    between atoms: N_3  and  C_10
REMARK    2  A    between atoms: C_10  and  C_11
REMARK    3  A    between atoms: C_11  and  C_13
REMARK    4  A    between atoms: C_13  and  O_14
REMARK    5  A    between atoms: O_14  and  N_15
REMARK                            x       y       z     vdW  Elec       q    Type
REMARK                         _______ _______ _______ _____ _____    ______ ____
ROOT
ATOM      1  O   UNL     1      31.835 -23.167 -13.069  0.00  0.00    -0.252 OA
ATOM      2  O   UNL     1      35.163 -23.615 -16.226  0.00  0.00    -0.270 OA
ATOM      3  N   UNL     1      31.267 -23.009 -15.328  0.00  0.00    -0.241 N 
ATOM      4  N   UNL     1      33.490 -23.389 -14.643  0.00  0.00    -0.236 N 
ATOM      5  C   UNL     1      32.159 -23.184 -14.259  0.00  0.00    +0.314 C 
ATOM      6  C   UNL     1      31.694 -23.041 -16.640  0.00  0.00    +0.074 C 
ATOM      7  C   UNL     1      32.967 -23.237 -16.990  0.00  0.00    +0.074 C 
ATOM      8  C   UNL     1      33.984 -23.432 -15.938  0.00  0.00    +0.254 C 
ATOM      9  H   UNL     1      34.145 -23.515 -13.918  0.00  0.00    +0.159 HD
ENDROOT
BRANCH   3  10
ATOM     10  C   UNL     1      29.854 -22.787 -15.046  0.00  0.00    +0.112 C 
BRANCH  10  11
ATOM     11  C   UNL     1      28.962 -23.833 -15.704  0.00  0.00    +0.133 C 
BRANCH  11  13
ATOM     12  O   UNL     1      27.571 -23.944 -17.697  0.00  0.00    -0.248 OA
ATOM     13  C   UNL     1      28.132 -23.272 -16.840  0.00  0.00    +0.336 C 
BRANCH  13  14
ATOM     14  O   UNL     1      28.135 -21.907 -16.747  0.00  0.00    -0.371 OA
BRANCH  14  15
ATOM     15  N   UNL     1      26.914 -21.377 -17.333  0.00  0.00    -0.165 NA
ATOM     16  H   UNL     1      27.062 -20.406 -17.607  0.00  0.00    +0.163 HD
ATOM     17  H   UNL     1      26.160 -21.426 -16.648  0.00  0.00    +0.163 HD
ENDBRANCH  14  15
ENDBRANCH  13  14
ENDBRANCH  11  13
ENDBRANCH  10  11
ENDBRANCH   3  10
TORSDOF 5
ENDMDL
MODEL 4
REMARK VINA RESULT:      -7.0      1.879      2.442
REMARK  Name = 161358
REMARK  5 active torsions:
REMARK  status: ('A' for Active; 'I' for Inactive)
REMARK    1  A    between atoms: N_3  and  C_10
REMARK    2  A    between atoms: C_10  and  C_11
REMARK    3  A    between atoms: C_11  and  C_13
REMARK    4  A    between atoms: C_13  and  O_14
REMARK    5  A    between atoms: O_14  and  N_15
REMARK                            x       y       z     vdW  Elec       q    Type
REMARK                         _______ _______ _______ _____ _____    ______ ____
ROOT
ATOM      1  O   UNL     1      37.771 -22.746 -15.956  0.00  0.00    -0.252 OA
ATOM      2  O   UNL     1      40.841 -26.118 -15.284  0.00  0.00    -0.270 OA
ATOM      3  N   UNL     1      37.542 -24.115 -14.077  0.00  0.00    -0.241 N 
ATOM      4  N   UNL     1      39.298 -24.426 -15.619  0.00  0.00    -0.236 N 
ATOM      5  C   UNL     1      38.162 -23.688 -15.262  0.00  0.00    +0.314 C 
ATOM      6  C   UNL     1      38.033 -25.176 -13.345  0.00  0.00    +0.074 C 
ATOM      7  C   UNL     1      39.116 -25.870 -13.698  0.00  0.00    +0.074 C 
ATOM      8  C   UNL     1      39.841 -25.499 -14.930  0.00  0.00    +0.254 C 
ATOM      9  H   UNL     1      39.759 -24.155 -16.447  0.00  0.00    +0.159 HD
ENDROOT
BRANCH   3  10
ATOM     10  C   UNL     1      36.350 -23.418 -13.609  0.00  0.00    +0.112 C 
BRANCH  10  11
ATOM     11  C   UNL     1      35.841 -23.969 -12.283  0.00  0.00    +0.133 C 
BRANCH  11  13
ATOM     12  O   UNL     1      37.444 -22.541 -11.137  0.00  0.00    -0.248 OA
ATOM     13  C   UNL     1      36.584 -23.412 -11.086  0.00  0.00    +0.336 C 
BRANCH  13  14
ATOM     14  O   UNL     1      36.140 -24.055  -9.963  0.00  0.00    -0.371 OA
BRANCH  14  15
ATOM     15  N   UNL     1      35.299 -25.178 -10.347  0.00  0.00    -0.165 NA
ATOM     16  H   UNL     1      35.349 -25.900  -9.629  0.00  0.00    +0.163 HD
ATOM     17  H   UNL     1      35.627 -25.558 -11.235  0.00  0.00    +0.163 HD
ENDBRANCH  14  15
ENDBRANCH  13  14
ENDBRANCH  11  13
ENDBRANCH  10  11
ENDBRANCH   3  10
TORSDOF 5
ENDMDL
MODEL 5
REMARK VINA RESULT:      -7.0     10.696     11.659
REMARK  Name = 161358
REMARK  5 active torsions:
REMARK  status: ('A' for Active; 'I' for Inactive)
REMARK    1  A    between atoms: N_3  and  C_10
REMARK    2  A    between atoms: C_10  and  C_11
REMARK    3  A    between atoms: C_11  and  C_13
REMARK    4  A    between atoms: C_13  and  O_14
REMARK    5  A    between atoms: O_14  and  N_15
REMARK                            x       y       z     vdW  Elec       q    Type
REMARK                         _______ _______ _______ _____ _____    ______ ____
ROOT
ATOM      1  O   UNL     1      34.983 -16.292 -21.300  0.00  0.00    -0.252 OA
ATOM      2  O   UNL     1      34.636 -16.588 -25.886  0.00  0.00    -0.270 OA
ATOM      3  N   UNL     1      34.839 -18.406 -22.280  0.00  0.00    -0.241 N 
ATOM      4  N   UNL     1      34.810 -16.442 -23.583  0.00  0.00    -0.236 N 
ATOM      5  C   UNL     1      34.885 -17.004 -22.302  0.00  0.00    +0.314 C 
ATOM      6  C   UNL     1      34.730 -19.145 -23.440  0.00  0.00    +0.074 C 
ATOM      7  C   UNL     1      34.659 -18.595 -24.654  0.00  0.00    +0.074 C 
ATOM      8  C   UNL     1      34.699 -17.125 -24.784  0.00  0.00    +0.254 C 
ATOM      9  H   UNL     1      34.838 -15.459 -23.637  0.00  0.00    +0.159 HD
ENDROOT
BRANCH   3  10
ATOM     10  C   UNL     1      34.909 -19.099 -20.999  0.00  0.00    +0.112 C 
BRANCH  10  11
ATOM     11  C   UNL     1      33.666 -19.936 -20.726  0.00  0.00    +0.133 C 
BRANCH  11  13
ATOM     12  O   UNL     1      35.016 -21.380 -19.308  0.00  0.00    -0.248 OA
ATOM     13  C   UNL     1      33.940 -21.132 -19.836  0.00  0.00    +0.336 C 
BRANCH  13  14
ATOM     14  O   UNL     1      32.795 -21.875 -19.744  0.00  0.00    -0.371 OA
BRANCH  14  15
ATOM     15  N   UNL     1      32.687 -22.437 -18.407  0.00  0.00    -0.165 NA
ATOM     16  H   UNL     1      32.568 -23.447 -18.472  0.00  0.00    +0.163 HD
ATOM     17  H   UNL     1      31.883 -22.028 -17.931  0.00  0.00    +0.163 HD
ENDBRANCH  14  15
ENDBRANCH  13  14
ENDBRANCH  11  13
ENDBRANCH  10  11
ENDBRANCH   3  10
TORSDOF 5
ENDMDL
MODEL 6
REMARK VINA RESULT:      -6.9     10.363     11.731
REMARK  Name = 161358
REMARK  5 active torsions:
REMARK  status: ('A' for Active; 'I' for Inactive)
REMARK    1  A    between atoms: N_3  and  C_10
REMARK    2  A    between atoms: C_10  and  C_11
REMARK    3  A    between atoms: C_11  and  C_13
REMARK    4  A    between atoms: C_13  and  O_14
REMARK    5  A    between atoms: O_14  and  N_15
REMARK                            x       y       z     vdW  Elec       q    Type
REMARK                         _______ _______ _______ _____ _____    ______ ____
ROOT
ATOM      1  O   UNL     1      36.903 -20.524 -20.282  0.00  0.00    -0.252 OA
ATOM      2  O   UNL     1      32.761 -22.018 -18.921  0.00  0.00    -0.270 OA
ATOM      3  N   UNL     1      34.996 -19.544 -21.208  0.00  0.00    -0.241 N 
ATOM      4  N   UNL     1      34.839 -21.266 -19.607  0.00  0.00    -0.236 N 
ATOM      5  C   UNL     1      35.676 -20.441 -20.369  0.00  0.00    +0.314 C 
ATOM      6  C   UNL     1      33.618 -19.500 -21.256  0.00  0.00    +0.074 C 
ATOM      7  C   UNL     1      32.835 -20.293 -20.524  0.00  0.00    +0.074 C 
ATOM      8  C   UNL     1      33.453 -21.273 -19.609  0.00  0.00    +0.254 C 
ATOM      9  H   UNL     1      35.282 -21.910 -19.006  0.00  0.00    +0.159 HD
ENDROOT
BRANCH   3  10
ATOM     10  C   UNL     1      35.767 -18.636 -22.049  0.00  0.00    +0.112 C 
BRANCH  10  11
ATOM     11  C   UNL     1      35.356 -18.714 -23.514  0.00  0.00    +0.133 C 
BRANCH  11  13
ATOM     12  O   UNL     1      35.070 -16.298 -23.505  0.00  0.00    -0.248 OA
ATOM     13  C   UNL     1      34.998 -17.364 -24.102  0.00  0.00    +0.336 C 
BRANCH  13  14
ATOM     14  O   UNL     1      34.573 -17.552 -25.389  0.00  0.00    -0.371 OA
BRANCH  14  15
ATOM     15  N   UNL     1      34.110 -16.287 -25.936  0.00  0.00    -0.165 NA
ATOM     16  H   UNL     1      33.120 -16.359 -26.169  0.00  0.00    +0.163 HD
ATOM     17  H   UNL     1      34.643 -16.067 -26.778  0.00  0.00    +0.163 HD
ENDBRANCH  14  15
ENDBRANCH  13  14
ENDBRANCH  11  13
ENDBRANCH  10  11
ENDBRANCH   3  10
TORSDOF 5
ENDMDL
MODEL 7
REMARK VINA RESULT:      -6.8      9.722     10.909
REMARK  Name = 161358
REMARK  5 active torsions:
REMARK  status: ('A' for Active; 'I' for Inactive)
REMARK    1  A    between atoms: N_3  and  C_10
REMARK    2  A    between atoms: C_10  and  C_11
REMARK    3  A    between atoms: C_11  and  C_13
REMARK    4  A    between atoms: C_13  and  O_14
REMARK    5  A    between atoms: O_14  and  N_15
REMARK                            x       y       z     vdW  Elec       q    Type
REMARK                         _______ _______ _______ _____ _____    ______ ____
ROOT
ATOM      1  O   UNL     1      32.242 -19.985 -20.780  0.00  0.00    -0.252 OA
ATOM      2  O   UNL     1      33.869 -23.453 -18.217  0.00  0.00    -0.270 OA
ATOM      3  N   UNL     1      34.552 -20.190 -20.504  0.00  0.00    -0.241 N 
ATOM      4  N   UNL     1      33.055 -21.711 -19.504  0.00  0.00    -0.236 N 
ATOM      5  C   UNL     1      33.217 -20.573 -20.305  0.00  0.00    +0.314 C 
ATOM      6  C   UNL     1      35.599 -20.894 -19.945  0.00  0.00    +0.074 C 
ATOM      7  C   UNL     1      35.428 -21.976 -19.184  0.00  0.00    +0.074 C 
ATOM      8  C   UNL     1      34.060 -22.461 -18.914  0.00  0.00    +0.254 C 
ATOM      9  H   UNL     1      32.130 -22.009 -19.342  0.00  0.00    +0.159 HD
ENDROOT
BRANCH   3  10
ATOM     10  C   UNL     1      34.840 -19.018 -21.322  0.00  0.00    +0.112 C 
BRANCH  10  11
ATOM     11  C   UNL     1      34.943 -19.358 -22.804  0.00  0.00    +0.133 C 
BRANCH  11  13
ATOM     12  O   UNL     1      34.489 -18.232 -24.912  0.00  0.00    -0.248 OA
ATOM     13  C   UNL     1      34.681 -18.169 -23.705  0.00  0.00    +0.336 C 
BRANCH  13  14
ATOM     14  O   UNL     1      34.711 -17.033 -22.943  0.00  0.00    -0.371 OA
BRANCH  14  15
ATOM     15  N   UNL     1      35.524 -16.025 -23.605  0.00  0.00    -0.165 NA
ATOM     16  H   UNL     1      35.058 -15.120 -23.544  0.00  0.00    +0.163 HD
ATOM     17  H   UNL     1      35.647 -16.279 -24.585  0.00  0.00    +0.163 HD
ENDBRANCH  14  15
ENDBRANCH  13  14
ENDBRANCH  11  13
ENDBRANCH  10  11
ENDBRANCH   3  10
TORSDOF 5
ENDMDL
MODEL 8
REMARK VINA RESULT:      -6.8      9.719     10.811
REMARK  Name = 161358
REMARK  5 active torsions:
REMARK  status: ('A' for Active; 'I' for Inactive)
REMARK    1  A    between atoms: N_3  and  C_10
REMARK    2  A    between atoms: C_10  and  C_11
REMARK    3  A    between atoms: C_11  and  C_13
REMARK    4  A    between atoms: C_13  and  O_14
REMARK    5  A    between atoms: O_14  and  N_15
REMARK                            x       y       z     vdW  Elec       q    Type
REMARK                         _______ _______ _______ _____ _____    ______ ____
ROOT
ATOM      1  O   UNL     1      36.997 -20.735 -20.132  0.00  0.00    -0.252 OA
ATOM      2  O   UNL     1      32.830 -22.273 -18.900  0.00  0.00    -0.270 OA
ATOM      3  N   UNL     1      35.107 -19.612 -20.921  0.00  0.00    -0.241 N 
ATOM      4  N   UNL     1      34.921 -21.499 -19.521  0.00  0.00    -0.236 N 
ATOM      5  C   UNL     1      35.771 -20.613 -20.195  0.00  0.00    +0.314 C 
ATOM      6  C   UNL     1      33.730 -19.530 -20.948  0.00  0.00    +0.074 C 
ATOM      7  C   UNL     1      32.934 -20.381 -20.300  0.00  0.00    +0.074 C 
ATOM      8  C   UNL     1      33.535 -21.472 -19.507  0.00  0.00    +0.254 C 
ATOM      9  H   UNL     1      35.353 -22.216 -19.001  0.00  0.00    +0.159 HD
ENDROOT
BRANCH   3  10
ATOM     10  C   UNL     1      35.893 -18.634 -21.663  0.00  0.00    +0.112 C 
BRANCH  10  11
ATOM     11  C   UNL     1      35.031 -17.773 -22.578  0.00  0.00    +0.133 C 
BRANCH  11  13
ATOM     12  O   UNL     1      35.081 -15.373 -22.973  0.00  0.00    -0.248 OA
ATOM     13  C   UNL     1      35.029 -16.309 -22.186  0.00  0.00    +0.336 C 
BRANCH  13  14
ATOM     14  O   UNL     1      34.977 -16.226 -20.821  0.00  0.00    -0.371 OA
BRANCH  14  15
ATOM     15  N   UNL     1      34.836 -14.835 -20.424  0.00  0.00    -0.165 NA
ATOM     16  H   UNL     1      33.894 -14.512 -20.646  0.00  0.00    +0.163 HD
ATOM     17  H   UNL     1      35.518 -14.267 -20.928  0.00  0.00    +0.163 HD
ENDBRANCH  14  15
ENDBRANCH  13  14
ENDBRANCH  11  13
ENDBRANCH  10  11
ENDBRANCH   3  10
TORSDOF 5
ENDMDL
MODEL 9
REMARK VINA RESULT:      -6.6     12.214     13.280
REMARK  Name = 161358
REMARK  5 active torsions:
REMARK  status: ('A' for Active; 'I' for Inactive)
REMARK    1  A    between atoms: N_3  and  C_10
REMARK    2  A    between atoms: C_10  and  C_11
REMARK    3  A    between atoms: C_11  and  C_13
REMARK    4  A    between atoms: C_13  and  O_14
REMARK    5  A    between atoms: O_14  and  N_15
REMARK                            x       y       z     vdW  Elec       q    Type
REMARK                         _______ _______ _______ _____ _____    ______ ____
ROOT
ATOM      1  O   UNL     1      34.572 -17.649 -25.686  0.00  0.00    -0.252 OA
ATOM      2  O   UNL     1      33.130 -13.470 -24.383  0.00  0.00    -0.270 OA
ATOM      3  N   UNL     1      34.926 -16.978 -23.477  0.00  0.00    -0.241 N 
ATOM      4  N   UNL     1      33.856 -15.568 -25.035  0.00  0.00    -0.236 N 
ATOM      5  C   UNL     1      34.466 -16.806 -24.792  0.00  0.00    +0.314 C 
ATOM      6  C   UNL     1      34.774 -15.993 -22.523  0.00  0.00    +0.074 C 
ATOM      7  C   UNL     1      34.190 -14.819 -22.769  0.00  0.00    +0.074 C 
ATOM      8  C   UNL     1      33.672 -14.540 -24.123  0.00  0.00    +0.254 C 
ATOM      9  H   UNL     1      33.521 -15.412 -25.948  0.00  0.00    +0.159 HD
ENDROOT
BRANCH   3  10
ATOM     10  C   UNL     1      35.579 -18.229 -23.112  0.00  0.00    +0.112 C 
BRANCH  10  11
ATOM     11  C   UNL     1      34.594 -19.262 -22.579  0.00  0.00    +0.133 C 
BRANCH  11  13
ATOM     12  O   UNL     1      33.956 -20.159 -20.409  0.00  0.00    -0.248 OA
ATOM     13  C   UNL     1      34.732 -19.499 -21.089  0.00  0.00    +0.336 C 
BRANCH  13  14
ATOM     14  O   UNL     1      35.849 -18.844 -20.648  0.00  0.00    -0.371 OA
BRANCH  14  15
ATOM     15  N   UNL     1      36.722 -19.782 -19.960  0.00  0.00    -0.165 NA
ATOM     16  H   UNL     1      36.849 -20.614 -20.536  0.00  0.00    +0.163 HD
ATOM     17  H   UNL     1      36.300 -20.046 -19.069  0.00  0.00    +0.163 HD
ENDBRANCH  14  15
ENDBRANCH  13  14
ENDBRANCH  11  13
ENDBRANCH  10  11
ENDBRANCH   3  10
TORSDOF 5
ENDMDL
