MODEL 1
REMARK VINA RESULT:      -8.1      0.000      0.000
REMARK  Name = 446324
REMARK  6 active torsions:
REMARK  status: ('A' for Active; 'I' for Inactive)
REMARK    1  A    between atoms: C_1  and  N_13
REMARK    2  A    between atoms: C_2  and  N_8
REMARK    3  A    between atoms: C_4  and  C_20
REMARK    4  A    between atoms: C_14  and  C_16
REMARK    5  A    between atoms: C_16  and  O_17
REMARK    6  A    between atoms: C_20  and  O_21
REMARK                            x       y       z     vdW  Elec       q    Type
REMARK                         _______ _______ _______ _____ _____    ______ ____
ROOT
ATOM      1  C   UNL     1      33.969 -23.844 -15.343  0.00  0.00    +0.064 C 
ATOM      2  C   UNL     1      33.534 -23.246 -16.526  0.00  0.00    +0.064 C 
ATOM      3  C   UNL     1      33.039 -24.304 -14.411  0.00  0.00    +0.022 C 
ATOM      4  C   UNL     1      31.674 -24.166 -14.660  0.00  0.00    +0.077 C 
ATOM      5  C   UNL     1      32.168 -23.107 -16.776  0.00  0.00    +0.016 C 
ATOM      6  C   UNL     1      31.239 -23.568 -15.843  0.00  0.00    +0.008 C 
ENDROOT
BRANCH   2   8
ATOM      7  O   UNL     1      33.108 -22.341 -19.365  0.00  0.00    -0.275 OA
ATOM      8  N   UNL     1      34.446 -22.777 -17.475  0.00  0.00    -0.283 N 
ATOM      9  C   UNL     1      34.190 -22.370 -18.789  0.00  0.00    +0.227 C 
ATOM     10  C   UNL     1      35.450 -21.930 -19.492  0.00  0.00    +0.095 C 
ATOM     11  H   UNL     1      35.385 -22.727 -17.183  0.00  0.00    +0.155 HD
ENDBRANCH   2   8
BRANCH   1  13
ATOM     12  O   UNL     1      35.763 -26.242 -15.628  0.00  0.00    -0.272 OA
ATOM     13  N   UNL     1      35.333 -23.994 -15.071  0.00  0.00    -0.281 N 
ATOM     14  C   UNL     1      36.122 -25.139 -15.226  0.00  0.00    +0.256 C 
ATOM     15  H   UNL     1      35.794 -23.195 -14.728  0.00  0.00    +0.155 HD
BRANCH  14  16
ATOM     16  C   UNL     1      37.560 -24.899 -14.821  0.00  0.00    +0.223 C 
BRANCH  16  17
ATOM     17  O   UNL     1      38.362 -25.933 -15.354  0.00  0.00    -0.374 OA
ATOM     18  H   UNL     1      38.252 -25.963 -16.317  0.00  0.00    +0.211 HD
ENDBRANCH  16  17
ENDBRANCH  14  16
ENDBRANCH   1  13
BRANCH   4  20
ATOM     19  O   UNL     1      30.624 -24.274 -12.513  0.00  0.00    -0.245 OA
ATOM     20  C   UNL     1      30.705 -24.646 -13.689  0.00  0.00    +0.338 C 
BRANCH  20  21
ATOM     21  O   UNL     1      29.860 -25.576 -14.213  0.00  0.00    -0.477 OA
ATOM     22  H   UNL     1      30.181 -26.427 -14.438  0.00  0.00    +0.295 HD
ENDBRANCH  20  21
ENDBRANCH   4  20
TORSDOF 6
ENDMDL
MODEL 2
REMARK VINA RESULT:      -8.1      9.787     12.852
REMARK  Name = 446324
REMARK  6 active torsions:
REMARK  status: ('A' for Active; 'I' for Inactive)
REMARK    1  A    between atoms: C_1  and  N_13
REMARK    2  A    between atoms: C_2  and  N_8
REMARK    3  A    between atoms: C_4  and  C_20
REMARK    4  A    between atoms: C_14  and  C_16
REMARK    5  A    between atoms: C_16  and  O_17
REMARK    6  A    between atoms: C_20  and  O_21
REMARK                            x       y       z     vdW  Elec       q    Type
REMARK                         _______ _______ _______ _____ _____    ______ ____
ROOT
ATOM      1  C   UNL     1      33.656 -14.413 -23.185  0.00  0.00    +0.064 C 
ATOM      2  C   UNL     1      32.791 -14.096 -22.137  0.00  0.00    +0.064 C 
ATOM      3  C   UNL     1      34.520 -15.501 -23.070  0.00  0.00    +0.022 C 
ATOM      4  C   UNL     1      34.521 -16.273 -21.909  0.00  0.00    +0.077 C 
ATOM      5  C   UNL     1      32.791 -14.868 -20.975  0.00  0.00    +0.016 C 
ATOM      6  C   UNL     1      33.656 -15.956 -20.861  0.00  0.00    +0.008 C 
ENDROOT
BRANCH   2   8
ATOM      7  O   UNL     1      32.000 -12.046 -20.079  0.00  0.00    -0.275 OA
ATOM      8  N   UNL     1      31.915 -13.010 -22.228  0.00  0.00    -0.283 N 
ATOM      9  C   UNL     1      31.583 -12.085 -21.232  0.00  0.00    +0.227 C 
ATOM     10  C   UNL     1      30.596 -11.059 -21.731  0.00  0.00    +0.095 C 
ATOM     11  H   UNL     1      31.479 -12.880 -23.101  0.00  0.00    +0.155 HD
ENDBRANCH   2   8
BRANCH   1  13
ATOM     12  O   UNL     1      32.709 -15.090 -25.959  0.00  0.00    -0.272 OA
ATOM     13  N   UNL     1      33.673 -13.654 -24.359  0.00  0.00    -0.281 N 
ATOM     14  C   UNL     1      33.214 -14.020 -25.629  0.00  0.00    +0.256 C 
ATOM     15  H   UNL     1      34.056 -12.751 -24.283  0.00  0.00    +0.155 HD
BRANCH  14  16
ATOM     16  C   UNL     1      33.409 -12.917 -26.646  0.00  0.00    +0.223 C 
BRANCH  16  17
ATOM     17  O   UNL     1      33.920 -13.480 -27.837  0.00  0.00    -0.374 OA
ATOM     18  H   UNL     1      33.980 -14.443 -27.738  0.00  0.00    +0.211 HD
ENDBRANCH  16  17
ENDBRANCH  14  16
ENDBRANCH   1  13
BRANCH   4  20
ATOM     19  O   UNL     1      35.611 -18.066 -20.761  0.00  0.00    -0.245 OA
ATOM     20  C   UNL     1      35.421 -17.408 -21.789  0.00  0.00    +0.338 C 
BRANCH  20  21
ATOM     21  O   UNL     1      36.058 -17.693 -22.959  0.00  0.00    -0.477 OA
ATOM     22  H   UNL     1      36.669 -18.401 -22.999  0.00  0.00    +0.295 HD
ENDBRANCH  20  21
ENDBRANCH   4  20
TORSDOF 6
ENDMDL
MODEL 3
REMARK VINA RESULT:      -8.0      2.649      3.990
REMARK  Name = 446324
REMARK  6 active torsions:
REMARK  status: ('A' for Active; 'I' for Inactive)
REMARK    1  A    between atoms: C_1  and  N_13
REMARK    2  A    between atoms: C_2  and  N_8
REMARK    3  A    between atoms: C_4  and  C_20
REMARK    4  A    between atoms: C_14  and  C_16
REMARK    5  A    between atoms: C_16  and  O_17
REMARK    6  A    between atoms: C_20  and  O_21
REMARK                            x       y       z     vdW  Elec       q    Type
REMARK                         _______ _______ _______ _____ _____    ______ ____
ROOT
ATOM      1  C   UNL     1      34.009 -24.137 -14.132  0.00  0.00    +0.064 C 
ATOM      2  C   UNL     1      34.921 -24.126 -15.188  0.00  0.00    +0.064 C 
ATOM      3  C   UNL     1      32.691 -23.735 -14.347  0.00  0.00    +0.022 C 
ATOM      4  C   UNL     1      32.284 -23.321 -15.615  0.00  0.00    +0.077 C 
ATOM      5  C   UNL     1      34.515 -23.712 -16.457  0.00  0.00    +0.016 C 
ATOM      6  C   UNL     1      33.197 -23.311 -16.670  0.00  0.00    +0.008 C 
ENDROOT
BRANCH   2   8
ATOM      7  O   UNL     1      36.243 -26.794 -15.634  0.00  0.00    -0.275 OA
ATOM      8  N   UNL     1      36.248 -24.525 -14.998  0.00  0.00    -0.283 N 
ATOM      9  C   UNL     1      36.809 -25.787 -15.222  0.00  0.00    +0.227 C 
ATOM     10  C   UNL     1      38.281 -25.809 -14.894  0.00  0.00    +0.095 C 
ATOM     11  H   UNL     1      36.863 -23.832 -14.666  0.00  0.00    +0.155 HD
ENDBRANCH   2   8
BRANCH   1  13
ATOM     12  O   UNL     1      36.154 -23.079 -12.307  0.00  0.00    -0.272 OA
ATOM     13  N   UNL     1      34.393 -24.548 -12.852  0.00  0.00    -0.281 N 
ATOM     14  C   UNL     1      35.403 -24.015 -12.043  0.00  0.00    +0.256 C 
ATOM     15  H   UNL     1      33.893 -25.307 -12.475  0.00  0.00    +0.155 HD
BRANCH  14  16
ATOM     16  C   UNL     1      35.514 -24.739 -10.719  0.00  0.00    +0.223 C 
BRANCH  16  17
ATOM     17  O   UNL     1      36.321 -23.973  -9.847  0.00  0.00    -0.374 OA
ATOM     18  H   UNL     1      36.687 -24.549  -9.158  0.00  0.00    +0.211 HD
ENDBRANCH  16  17
ENDBRANCH  14  16
ENDBRANCH   1  13
BRANCH   4  20
ATOM     19  O   UNL     1      30.432 -22.567 -16.927  0.00  0.00    -0.245 OA
ATOM     20  C   UNL     1      30.910 -22.903 -15.838  0.00  0.00    +0.338 C 
BRANCH  20  21
ATOM     21  O   UNL     1      30.169 -22.918 -14.697  0.00  0.00    -0.477 OA
ATOM     22  H   UNL     1      30.145 -22.163 -14.144  0.00  0.00    +0.295 HD
ENDBRANCH  20  21
ENDBRANCH   4  20
TORSDOF 6
ENDMDL
MODEL 4
REMARK VINA RESULT:      -7.9      2.542      4.636
REMARK  Name = 446324
REMARK  6 active torsions:
REMARK  status: ('A' for Active; 'I' for Inactive)
REMARK    1  A    between atoms: C_1  and  N_13
REMARK    2  A    between atoms: C_2  and  N_8
REMARK    3  A    between atoms: C_4  and  C_20
REMARK    4  A    between atoms: C_14  and  C_16
REMARK    5  A    between atoms: C_16  and  O_17
REMARK    6  A    between atoms: C_20  and  O_21
REMARK                            x       y       z     vdW  Elec       q    Type
REMARK                         _______ _______ _______ _____ _____    ______ ____
ROOT
ATOM      1  C   UNL     1      35.206 -24.234 -15.027  0.00  0.00    +0.064 C 
ATOM      2  C   UNL     1      34.255 -24.113 -14.013  0.00  0.00    +0.064 C 
ATOM      3  C   UNL     1      34.891 -23.844 -16.328  0.00  0.00    +0.022 C 
ATOM      4  C   UNL     1      33.626 -23.334 -16.617  0.00  0.00    +0.077 C 
ATOM      5  C   UNL     1      32.989 -23.603 -14.302  0.00  0.00    +0.016 C 
ATOM      6  C   UNL     1      32.675 -23.214 -15.604  0.00  0.00    +0.008 C 
ENDROOT
BRANCH   2   8
ATOM      7  O   UNL     1      36.331 -23.083 -12.092  0.00  0.00    -0.275 OA
ATOM      8  N   UNL     1      34.547 -24.498 -12.701  0.00  0.00    -0.283 N 
ATOM      9  C   UNL     1      35.531 -23.981 -11.851  0.00  0.00    +0.227 C 
ATOM     10  C   UNL     1      35.524 -24.669 -10.509  0.00  0.00    +0.095 C 
ATOM     11  H   UNL     1      33.992 -25.220 -12.330  0.00  0.00    +0.155 HD
ENDBRANCH   2   8
BRANCH   1  13
ATOM     12  O   UNL     1      36.411 -26.915 -15.672  0.00  0.00    -0.272 OA
ATOM     13  N   UNL     1      36.481 -24.743 -14.761  0.00  0.00    -0.281 N 
ATOM     14  C   UNL     1      36.992 -26.004 -15.088  0.00  0.00    +0.256 C 
ATOM     15  H   UNL     1      37.095 -24.139 -14.283  0.00  0.00    +0.155 HD
BRANCH  14  16
ATOM     16  C   UNL     1      38.422 -26.177 -14.625  0.00  0.00    +0.223 C 
BRANCH  16  17
ATOM     17  O   UNL     1      39.288 -25.684 -15.627  0.00  0.00    -0.374 OA
ATOM     18  H   UNL     1      40.191 -25.994 -15.454  0.00  0.00    +0.211 HD
ENDBRANCH  16  17
ENDBRANCH  14  16
ENDBRANCH   1  13
BRANCH   4  20
ATOM     19  O   UNL     1      32.279 -22.315 -18.311  0.00  0.00    -0.245 OA
ATOM     20  C   UNL     1      33.298 -22.927 -17.974  0.00  0.00    +0.338 C 
BRANCH  20  21
ATOM     21  O   UNL     1      34.253 -23.291 -18.872  0.00  0.00    -0.477 OA
ATOM     22  H   UNL     1      34.533 -24.183 -18.922  0.00  0.00    +0.295 HD
ENDBRANCH  20  21
ENDBRANCH   4  20
TORSDOF 6
ENDMDL
MODEL 5
REMARK VINA RESULT:      -7.8      1.687      1.929
REMARK  Name = 446324
REMARK  6 active torsions:
REMARK  status: ('A' for Active; 'I' for Inactive)
REMARK    1  A    between atoms: C_1  and  N_13
REMARK    2  A    between atoms: C_2  and  N_8
REMARK    3  A    between atoms: C_4  and  C_20
REMARK    4  A    between atoms: C_14  and  C_16
REMARK    5  A    between atoms: C_16  and  O_17
REMARK    6  A    between atoms: C_20  and  O_21
REMARK                            x       y       z     vdW  Elec       q    Type
REMARK                         _______ _______ _______ _____ _____    ______ ____
ROOT
ATOM      1  C   UNL     1      34.171 -24.332 -14.230  0.00  0.00    +0.064 C 
ATOM      2  C   UNL     1      34.219 -23.302 -15.170  0.00  0.00    +0.064 C 
ATOM      3  C   UNL     1      32.942 -24.876 -13.855  0.00  0.00    +0.022 C 
ATOM      4  C   UNL     1      31.763 -24.390 -14.417  0.00  0.00    +0.077 C 
ATOM      5  C   UNL     1      33.039 -22.816 -15.734  0.00  0.00    +0.016 C 
ATOM      6  C   UNL     1      31.811 -23.360 -15.357  0.00  0.00    +0.008 C 
ENDROOT
BRANCH   2   8
ATOM      7  O   UNL     1      35.301 -22.703 -17.915  0.00  0.00    -0.275 OA
ATOM      8  N   UNL     1      35.438 -22.741 -15.562  0.00  0.00    -0.283 N 
ATOM      9  C   UNL     1      35.891 -22.486 -16.862  0.00  0.00    +0.227 C 
ATOM     10  C   UNL     1      37.268 -21.871 -16.861  0.00  0.00    +0.095 C 
ATOM     11  H   UNL     1      36.054 -22.495 -14.835  0.00  0.00    +0.155 HD
ENDBRANCH   2   8
BRANCH   1  13
ATOM     12  O   UNL     1      36.441 -25.882 -15.455  0.00  0.00    -0.272 OA
ATOM     13  N   UNL     1      35.340 -24.835 -13.652  0.00  0.00    -0.281 N 
ATOM     14  C   UNL     1      36.370 -25.551 -14.274  0.00  0.00    +0.256 C 
ATOM     15  H   UNL     1      35.453 -24.666 -12.689  0.00  0.00    +0.155 HD
BRANCH  14  16
ATOM     16  C   UNL     1      37.471 -25.923 -13.305  0.00  0.00    +0.223 C 
BRANCH  16  17
ATOM     17  O   UNL     1      36.890 -26.515 -12.161  0.00  0.00    -0.374 OA
ATOM     18  H   UNL     1      37.591 -26.848 -11.579  0.00  0.00    +0.211 HD
ENDBRANCH  16  17
ENDBRANCH  14  16
ENDBRANCH   1  13
BRANCH   4  20
ATOM     19  O   UNL     1      29.645 -25.436 -14.800  0.00  0.00    -0.245 OA
ATOM     20  C   UNL     1      30.482 -24.957 -14.027  0.00  0.00    +0.338 C 
BRANCH  20  21
ATOM     21  O   UNL     1      30.283 -24.914 -12.681  0.00  0.00    -0.477 OA
ATOM     22  H   UNL     1      29.558 -24.437 -12.330  0.00  0.00    +0.295 HD
ENDBRANCH  20  21
ENDBRANCH   4  20
TORSDOF 6
ENDMDL
MODEL 6
REMARK VINA RESULT:      -7.8      1.492      4.030
REMARK  Name = 446324
REMARK  6 active torsions:
REMARK  status: ('A' for Active; 'I' for Inactive)
REMARK    1  A    between atoms: C_1  and  N_13
REMARK    2  A    between atoms: C_2  and  N_8
REMARK    3  A    between atoms: C_4  and  C_20
REMARK    4  A    between atoms: C_14  and  C_16
REMARK    5  A    between atoms: C_16  and  O_17
REMARK    6  A    between atoms: C_20  and  O_21
REMARK                            x       y       z     vdW  Elec       q    Type
REMARK                         _______ _______ _______ _____ _____    ______ ____
ROOT
ATOM      1  C   UNL     1      32.255 -23.187 -16.167  0.00  0.00    +0.064 C 
ATOM      2  C   UNL     1      33.119 -23.550 -15.134  0.00  0.00    +0.064 C 
ATOM      3  C   UNL     1      30.911 -23.557 -16.113  0.00  0.00    +0.022 C 
ATOM      4  C   UNL     1      30.431 -24.289 -15.028  0.00  0.00    +0.077 C 
ATOM      5  C   UNL     1      32.640 -24.283 -14.047  0.00  0.00    +0.016 C 
ATOM      6  C   UNL     1      31.296 -24.652 -13.995  0.00  0.00    +0.008 C 
ENDROOT
BRANCH   2   8
ATOM      7  O   UNL     1      35.566 -25.200 -15.728  0.00  0.00    -0.275 OA
ATOM      8  N   UNL     1      34.470 -23.191 -15.165  0.00  0.00    -0.283 N 
ATOM      9  C   UNL     1      35.572 -24.006 -15.448  0.00  0.00    +0.227 C 
ATOM     10  C   UNL     1      36.867 -23.236 -15.378  0.00  0.00    +0.095 C 
ATOM     11  H   UNL     1      34.671 -22.249 -14.963  0.00  0.00    +0.155 HD
ENDBRANCH   2   8
BRANCH   1  13
ATOM     12  O   UNL     1      33.785 -24.070 -18.602  0.00  0.00    -0.272 OA
ATOM     13  N   UNL     1      32.713 -22.453 -17.265  0.00  0.00    -0.281 N 
ATOM     14  C   UNL     1      33.422 -22.919 -18.378  0.00  0.00    +0.256 C 
ATOM     15  H   UNL     1      32.514 -21.489 -17.253  0.00  0.00    +0.155 HD
BRANCH  14  16
ATOM     16  C   UNL     1      33.740 -21.809 -19.356  0.00  0.00    +0.223 C 
BRANCH  16  17
ATOM     17  O   UNL     1      32.641 -20.923 -19.414  0.00  0.00    -0.374 OA
ATOM     18  H   UNL     1      32.427 -20.734 -20.340  0.00  0.00    +0.211 HD
ENDBRANCH  16  17
ENDBRANCH  14  16
ENDBRANCH   1  13
BRANCH   4  20
ATOM     19  O   UNL     1      28.094 -24.044 -15.474  0.00  0.00    -0.245 OA
ATOM     20  C   UNL     1      29.030 -24.674 -14.972  0.00  0.00    +0.338 C 
BRANCH  20  21
ATOM     21  O   UNL     1      28.837 -25.837 -14.292  0.00  0.00    -0.477 OA
ATOM     22  H   UNL     1      29.221 -25.955 -13.445  0.00  0.00    +0.295 HD
ENDBRANCH  20  21
ENDBRANCH   4  20
TORSDOF 6
ENDMDL
MODEL 7
REMARK VINA RESULT:      -7.7      1.450      4.087
REMARK  Name = 446324
REMARK  6 active torsions:
REMARK  status: ('A' for Active; 'I' for Inactive)
REMARK    1  A    between atoms: C_1  and  N_13
REMARK    2  A    between atoms: C_2  and  N_8
REMARK    3  A    between atoms: C_4  and  C_20
REMARK    4  A    between atoms: C_14  and  C_16
REMARK    5  A    between atoms: C_16  and  O_17
REMARK    6  A    between atoms: C_20  and  O_21
REMARK                            x       y       z     vdW  Elec       q    Type
REMARK                         _______ _______ _______ _____ _____    ______ ____
ROOT
ATOM      1  C   UNL     1      33.418 -23.200 -16.515  0.00  0.00    +0.064 C 
ATOM      2  C   UNL     1      33.846 -23.757 -15.309  0.00  0.00    +0.064 C 
ATOM      3  C   UNL     1      32.054 -23.082 -16.782  0.00  0.00    +0.022 C 
ATOM      4  C   UNL     1      31.118 -23.522 -15.846  0.00  0.00    +0.077 C 
ATOM      5  C   UNL     1      32.911 -24.197 -14.372  0.00  0.00    +0.016 C 
ATOM      6  C   UNL     1      31.547 -24.078 -14.641  0.00  0.00    +0.008 C 
ENDROOT
BRANCH   2   8
ATOM      7  O   UNL     1      35.689 -26.121 -15.589  0.00  0.00    -0.275 OA
ATOM      8  N   UNL     1      35.207 -23.885 -15.018  0.00  0.00    -0.283 N 
ATOM      9  C   UNL     1      36.017 -25.017 -15.168  0.00  0.00    +0.227 C 
ATOM     10  C   UNL     1      37.438 -24.746 -14.740  0.00  0.00    +0.095 C 
ATOM     11  H   UNL     1      35.651 -23.081 -14.665  0.00  0.00    +0.155 HD
ENDBRANCH   2   8
BRANCH   1  13
ATOM     12  O   UNL     1      33.011 -22.371 -19.379  0.00  0.00    -0.272 OA
ATOM     13  N   UNL     1      34.337 -22.753 -17.468  0.00  0.00    -0.281 N 
ATOM     14  C   UNL     1      34.091 -22.376 -18.793  0.00  0.00    +0.256 C 
ATOM     15  H   UNL     1      35.274 -22.697 -17.171  0.00  0.00    +0.155 HD
BRANCH  14  16
ATOM     16  C   UNL     1      35.354 -21.950 -19.509  0.00  0.00    +0.223 C 
BRANCH  16  17
ATOM     17  O   UNL     1      36.371 -21.738 -18.551  0.00  0.00    -0.374 OA
ATOM     18  H   UNL     1      36.014 -21.891 -17.663  0.00  0.00    +0.211 HD
ENDBRANCH  16  17
ENDBRANCH  14  16
ENDBRANCH   1  13
BRANCH   4  20
ATOM     19  O   UNL     1      28.803 -24.071 -15.600  0.00  0.00    -0.245 OA
ATOM     20  C   UNL     1      29.697 -23.398 -16.125  0.00  0.00    +0.338 C 
BRANCH  20  21
ATOM     21  O   UNL     1      29.429 -22.435 -17.049  0.00  0.00    -0.477 OA
ATOM     22  H   UNL     1      29.893 -21.622 -17.027  0.00  0.00    +0.295 HD
ENDBRANCH  20  21
ENDBRANCH   4  20
TORSDOF 6
ENDMDL
MODEL 8
REMARK VINA RESULT:      -7.7      8.316     11.354
REMARK  Name = 446324
REMARK  6 active torsions:
REMARK  status: ('A' for Active; 'I' for Inactive)
REMARK    1  A    between atoms: C_1  and  N_13
REMARK    2  A    between atoms: C_2  and  N_8
REMARK    3  A    between atoms: C_4  and  C_20
REMARK    4  A    between atoms: C_14  and  C_16
REMARK    5  A    between atoms: C_16  and  O_17
REMARK    6  A    between atoms: C_20  and  O_21
REMARK                            x       y       z     vdW  Elec       q    Type
REMARK                         _______ _______ _______ _____ _____    ______ ____
ROOT
ATOM      1  C   UNL     1      34.321 -16.016 -22.631  0.00  0.00    +0.064 C 
ATOM      2  C   UNL     1      34.500 -16.229 -23.998  0.00  0.00    +0.064 C 
ATOM      3  C   UNL     1      34.693 -17.002 -21.717  0.00  0.00    +0.022 C 
ATOM      4  C   UNL     1      35.244 -18.201 -22.169  0.00  0.00    +0.077 C 
ATOM      5  C   UNL     1      35.051 -17.428 -24.451  0.00  0.00    +0.016 C 
ATOM      6  C   UNL     1      35.423 -18.413 -23.537  0.00  0.00    +0.008 C 
ENDROOT
BRANCH   2   8
ATOM      7  O   UNL     1      32.731 -16.420 -26.427  0.00  0.00    -0.275 OA
ATOM      8  N   UNL     1      34.134 -15.256 -24.933  0.00  0.00    -0.283 N 
ATOM      9  C   UNL     1      33.304 -15.404 -26.050  0.00  0.00    +0.227 C 
ATOM     10  C   UNL     1      33.159 -14.109 -26.810  0.00  0.00    +0.095 C 
ATOM     11  H   UNL     1      34.506 -14.357 -24.787  0.00  0.00    +0.155 HD
ENDBRANCH   2   8
BRANCH   1  13
ATOM     12  O   UNL     1      31.858 -15.529 -20.973  0.00  0.00    -0.272 OA
ATOM     13  N   UNL     1      33.770 -14.823 -22.154  0.00  0.00    -0.281 N 
ATOM     14  C   UNL     1      32.617 -14.654 -21.380  0.00  0.00    +0.256 C 
ATOM     15  H   UNL     1      34.253 -13.999 -22.394  0.00  0.00    +0.155 HD
BRANCH  14  16
ATOM     16  C   UNL     1      32.349 -13.198 -21.065  0.00  0.00    +0.223 C 
BRANCH  16  17
ATOM     17  O   UNL     1      31.575 -12.641 -22.108  0.00  0.00    -0.374 OA
ATOM     18  H   UNL     1      31.431 -13.310 -22.795  0.00  0.00    +0.211 HD
ENDBRANCH  16  17
ENDBRANCH  14  16
ENDBRANCH   1  13
BRANCH   4  20
ATOM     19  O   UNL     1      36.675 -19.231 -20.553  0.00  0.00    -0.245 OA
ATOM     20  C   UNL     1      35.633 -19.228 -21.217  0.00  0.00    +0.338 C 
BRANCH  20  21
ATOM     21  O   UNL     1      34.709 -20.223 -21.118  0.00  0.00    -0.477 OA
ATOM     22  H   UNL     1      33.904 -20.163 -21.592  0.00  0.00    +0.295 HD
ENDBRANCH  20  21
ENDBRANCH   4  20
TORSDOF 6
ENDMDL
MODEL 9
REMARK VINA RESULT:      -7.6      1.882      5.865
REMARK  Name = 446324
REMARK  6 active torsions:
REMARK  status: ('A' for Active; 'I' for Inactive)
REMARK    1  A    between atoms: C_1  and  N_13
REMARK    2  A    between atoms: C_2  and  N_8
REMARK    3  A    between atoms: C_4  and  C_20
REMARK    4  A    between atoms: C_14  and  C_16
REMARK    5  A    between atoms: C_16  and  O_17
REMARK    6  A    between atoms: C_20  and  O_21
REMARK                            x       y       z     vdW  Elec       q    Type
REMARK                         _______ _______ _______ _____ _____    ______ ____
ROOT
ATOM      1  C   UNL     1      33.671 -23.563 -15.387  0.00  0.00    +0.064 C 
ATOM      2  C   UNL     1      34.903 -23.215 -14.833  0.00  0.00    +0.064 C 
ATOM      3  C   UNL     1      33.425 -23.335 -16.741  0.00  0.00    +0.022 C 
ATOM      4  C   UNL     1      34.410 -22.758 -17.541  0.00  0.00    +0.077 C 
ATOM      5  C   UNL     1      35.889 -22.638 -15.634  0.00  0.00    +0.016 C 
ATOM      6  C   UNL     1      35.643 -22.410 -16.988  0.00  0.00    +0.008 C 
ENDROOT
BRANCH   2   8
ATOM      7  O   UNL     1      36.420 -25.433 -13.477  0.00  0.00    -0.275 OA
ATOM      8  N   UNL     1      35.173 -23.433 -13.479  0.00  0.00    -0.283 N 
ATOM      9  C   UNL     1      35.887 -24.490 -12.903  0.00  0.00    +0.227 C 
ATOM     10  C   UNL     1      35.955 -24.362 -11.401  0.00  0.00    +0.095 C 
ATOM     11  H   UNL     1      34.818 -22.761 -12.855  0.00  0.00    +0.155 HD
ENDBRANCH   2   8
BRANCH   1  13
ATOM     12  O   UNL     1      30.941 -22.539 -14.641  0.00  0.00    -0.272 OA
ATOM     13  N   UNL     1      32.668 -24.143 -14.603  0.00  0.00    -0.281 N 
ATOM     14  C   UNL     1      31.409 -23.619 -14.290  0.00  0.00    +0.256 C 
ATOM     15  H   UNL     1      32.874 -25.027 -14.225  0.00  0.00    +0.155 HD
BRANCH  14  16
ATOM     16  C   UNL     1      30.606 -24.553 -13.410  0.00  0.00    +0.223 C 
BRANCH  16  17
ATOM     17  O   UNL     1      29.829 -25.399 -14.232  0.00  0.00    -0.374 OA
ATOM     18  H   UNL     1      29.116 -24.884 -14.641  0.00  0.00    +0.211 HD
ENDBRANCH  16  17
ENDBRANCH  14  16
ENDBRANCH   1  13
BRANCH   4  20
ATOM     19  O   UNL     1      33.038 -22.397 -19.468  0.00  0.00    -0.245 OA
ATOM     20  C   UNL     1      34.155 -22.522 -18.953  0.00  0.00    +0.338 C 
BRANCH  20  21
ATOM     21  O   UNL     1      35.301 -22.444 -19.683  0.00  0.00    -0.477 OA
ATOM     22  H   UNL     1      35.497 -21.666 -20.166  0.00  0.00    +0.295 HD
ENDBRANCH  20  21
ENDBRANCH   4  20
TORSDOF 6
ENDMDL
