MODEL 1
REMARK VINA RESULT:      -7.4      0.000      0.000
REMARK  Name = 1649
REMARK  1 active torsions:
REMARK  status: ('A' for Active; 'I' for Inactive)
REMARK    1  A    between atoms: C_6  and  N_14
REMARK                            x       y       z     vdW  Elec       q    Type
REMARK                         _______ _______ _______ _____ _____    ______ ____
ROOT
ATOM      1 BR   UNL     1      33.666 -23.007 -18.332  0.00  0.00    -0.029 Br
ATOM      2  N   UNL     1      32.605 -20.930 -20.047  0.00  0.00    -0.269 N 
ATOM      3  N   UNL     1      32.873 -19.870 -20.834  0.00  0.00    -0.170 NA
ATOM      4  C   UNL     1      34.755 -20.769 -19.934  0.00  0.00    +0.044 A 
ATOM      5  C   UNL     1      34.210 -19.740 -20.786  0.00  0.00    +0.125 A 
ATOM      6  C   UNL     1      35.058 -18.807 -21.411  0.00  0.00    +0.162 C 
ATOM      7  C   UNL     1      36.091 -20.984 -19.622  0.00  0.00    +0.004 C 
ATOM      8  C   UNL     1      33.702 -21.511 -19.479  0.00  0.00    +0.109 A 
ATOM      9  C   UNL     1      36.425 -18.998 -21.113  0.00  0.00    +0.026 C 
ATOM     10  C   UNL     1      36.915 -20.037 -20.260  0.00  0.00    +0.002 C 
ATOM     11  H   UNL     1      31.690 -21.260 -19.894  0.00  0.00    +0.190 HD
ENDROOT
BRANCH   6  14
ATOM     12  O   UNL     1      34.061 -16.753 -21.738  0.00  0.00    -0.126 OA
ATOM     13  O   UNL     1      34.650 -17.921 -23.502  0.00  0.00    -0.126 OA
ATOM     14  N   UNL     1      34.569 -17.784 -22.253  0.00  0.00    +0.059 N 
ENDBRANCH   6  14
TORSDOF 1
ENDMDL
MODEL 2
REMARK VINA RESULT:      -7.4      4.096      5.251
REMARK  Name = 1649
REMARK  1 active torsions:
REMARK  status: ('A' for Active; 'I' for Inactive)
REMARK    1  A    between atoms: C_6  and  N_14
REMARK                            x       y       z     vdW  Elec       q    Type
REMARK                         _______ _______ _______ _____ _____    ______ ____
ROOT
ATOM      1 BR   UNL     1      33.878 -13.576 -23.259  0.00  0.00    -0.029 Br
ATOM      2  N   UNL     1      34.614 -15.216 -20.989  0.00  0.00    -0.269 N 
ATOM      3  N   UNL     1      34.977 -16.436 -20.549  0.00  0.00    -0.170 NA
ATOM      4  C   UNL     1      34.636 -16.399 -22.795  0.00  0.00    +0.044 A 
ATOM      5  C   UNL     1      35.001 -17.203 -21.654  0.00  0.00    +0.125 A 
ATOM      6  C   UNL     1      35.311 -18.567 -21.810  0.00  0.00    +0.162 C 
ATOM      7  C   UNL     1      34.540 -16.810 -24.118  0.00  0.00    +0.004 C 
ATOM      8  C   UNL     1      34.395 -15.136 -22.334  0.00  0.00    +0.109 A 
ATOM      9  C   UNL     1      35.222 -19.016 -23.146  0.00  0.00    +0.026 C 
ATOM     10  C   UNL     1      34.855 -18.177 -24.244  0.00  0.00    +0.002 C 
ATOM     11  H   UNL     1      34.514 -14.443 -20.388  0.00  0.00    +0.190 HD
ENDROOT
BRANCH   6  14
ATOM     12  O   UNL     1      34.789 -20.082 -20.151  0.00  0.00    -0.126 OA
ATOM     13  O   UNL     1      36.873 -19.419 -20.342  0.00  0.00    -0.126 OA
ATOM     14  N   UNL     1      35.673 -19.391 -20.722  0.00  0.00    +0.059 N 
ENDBRANCH   6  14
TORSDOF 1
ENDMDL
MODEL 3
REMARK VINA RESULT:      -7.3      3.646      4.481
REMARK  Name = 1649
REMARK  1 active torsions:
REMARK  status: ('A' for Active; 'I' for Inactive)
REMARK    1  A    between atoms: C_6  and  N_14
REMARK                            x       y       z     vdW  Elec       q    Type
REMARK                         _______ _______ _______ _____ _____    ______ ____
ROOT
ATOM      1 BR   UNL     1      34.810 -18.103 -22.608  0.00  0.00    -0.029 Br
ATOM      2  N   UNL     1      32.865 -19.750 -21.234  0.00  0.00    -0.269 N 
ATOM      3  N   UNL     1      32.649 -20.714 -20.319  0.00  0.00    -0.170 NA
ATOM      4  C   UNL     1      34.855 -20.219 -20.539  0.00  0.00    +0.044 A 
ATOM      5  C   UNL     1      33.874 -21.032 -19.863  0.00  0.00    +0.125 A 
ATOM      6  C   UNL     1      34.270 -21.975 -18.896  0.00  0.00    +0.162 C 
ATOM      7  C   UNL     1      36.232 -20.236 -20.358  0.00  0.00    +0.004 C 
ATOM      8  C   UNL     1      34.177 -19.412 -21.408  0.00  0.00    +0.109 A 
ATOM      9  C   UNL     1      35.666 -22.017 -18.688  0.00  0.00    +0.026 C 
ATOM     10  C   UNL     1      36.599 -21.187 -19.386  0.00  0.00    +0.002 C 
ATOM     11  H   UNL     1      32.136 -19.323 -21.738  0.00  0.00    +0.190 HD
ENDROOT
BRANCH   6  14
ATOM     12  O   UNL     1      33.712 -23.919 -17.787  0.00  0.00    -0.126 OA
ATOM     13  O   UNL     1      32.169 -22.376 -18.033  0.00  0.00    -0.126 OA
ATOM     14  N   UNL     1      33.345 -22.791 -18.210  0.00  0.00    +0.059 N 
ENDBRANCH   6  14
TORSDOF 1
ENDMDL
MODEL 4
REMARK VINA RESULT:      -7.1      6.569      7.920
REMARK  Name = 1649
REMARK  1 active torsions:
REMARK  status: ('A' for Active; 'I' for Inactive)
REMARK    1  A    between atoms: C_6  and  N_14
REMARK                            x       y       z     vdW  Elec       q    Type
REMARK                         _______ _______ _______ _____ _____    ______ ____
ROOT
ATOM      1 BR   UNL     1      34.716 -23.770 -15.233  0.00  0.00    -0.029 Br
ATOM      2  N   UNL     1      32.683 -22.752 -17.025  0.00  0.00    -0.269 N 
ATOM      3  N   UNL     1      31.368 -22.652 -17.300  0.00  0.00    -0.170 NA
ATOM      4  C   UNL     1      31.761 -23.832 -15.399  0.00  0.00    +0.044 A 
ATOM      5  C   UNL     1      30.760 -23.318 -16.302  0.00  0.00    +0.125 A 
ATOM      6  C   UNL     1      29.393 -23.548 -16.060  0.00  0.00    +0.162 C 
ATOM      7  C   UNL     1      31.552 -24.574 -14.244  0.00  0.00    +0.004 C 
ATOM      8  C   UNL     1      32.978 -23.452 -15.891  0.00  0.00    +0.109 A 
ATOM      9  C   UNL     1      29.146 -24.301 -14.891  0.00  0.00    +0.026 C 
ATOM     10  C   UNL     1      30.177 -24.789 -14.027  0.00  0.00    +0.002 C 
ATOM     11  H   UNL     1      33.376 -22.351 -17.597  0.00  0.00    +0.190 HD
ENDROOT
BRANCH   6  14
ATOM     12  O   UNL     1      28.123 -21.832 -16.932  0.00  0.00    -0.126 OA
ATOM     13  O   UNL     1      27.752 -23.874 -17.648  0.00  0.00    -0.126 OA
ATOM     14  N   UNL     1      28.380 -23.064 -16.916  0.00  0.00    +0.059 N 
ENDBRANCH   6  14
TORSDOF 1
ENDMDL
MODEL 5
REMARK VINA RESULT:      -7.1      4.564      5.757
REMARK  Name = 1649
REMARK  1 active torsions:
REMARK  status: ('A' for Active; 'I' for Inactive)
REMARK    1  A    between atoms: C_6  and  N_14
REMARK                            x       y       z     vdW  Elec       q    Type
REMARK                         _______ _______ _______ _____ _____    ______ ____
ROOT
ATOM      1 BR   UNL     1      33.094 -14.631 -26.057  0.00  0.00    -0.029 Br
ATOM      2  N   UNL     1      34.354 -17.084 -25.177  0.00  0.00    -0.269 N 
ATOM      3  N   UNL     1      34.869 -17.781 -24.146  0.00  0.00    -0.170 NA
ATOM      4  C   UNL     1      34.097 -15.744 -23.504  0.00  0.00    +0.044 A 
ATOM      5  C   UNL     1      34.724 -16.972 -23.081  0.00  0.00    +0.125 A 
ATOM      6  C   UNL     1      35.080 -17.166 -21.733  0.00  0.00    +0.162 C 
ATOM      7  C   UNL     1      33.771 -14.649 -22.714  0.00  0.00    +0.004 C 
ATOM      8  C   UNL     1      33.874 -15.849 -24.848  0.00  0.00    +0.109 A 
ATOM      9  C   UNL     1      34.762 -16.070 -20.903  0.00  0.00    +0.026 C 
ATOM     10  C   UNL     1      34.138 -14.871 -21.372  0.00  0.00    +0.002 C 
ATOM     11  H   UNL     1      34.327 -17.437 -26.095  0.00  0.00    +0.190 HD
ENDROOT
BRANCH   6  14
ATOM     12  O   UNL     1      35.033 -19.158 -20.571  0.00  0.00    -0.126 OA
ATOM     13  O   UNL     1      36.896 -18.581 -21.581  0.00  0.00    -0.126 OA
ATOM     14  N   UNL     1      35.696 -18.351 -21.276  0.00  0.00    +0.059 N 
ENDBRANCH   6  14
TORSDOF 1
ENDMDL
MODEL 6
REMARK VINA RESULT:      -7.1      4.169      5.438
REMARK  Name = 1649
REMARK  1 active torsions:
REMARK  status: ('A' for Active; 'I' for Inactive)
REMARK    1  A    between atoms: C_6  and  N_14
REMARK                            x       y       z     vdW  Elec       q    Type
REMARK                         _______ _______ _______ _____ _____    ______ ____
ROOT
ATOM      1 BR   UNL     1      36.053 -18.689 -21.344  0.00  0.00    -0.029 Br
ATOM      2  N   UNL     1      35.126 -18.592 -24.085  0.00  0.00    -0.269 N 
ATOM      3  N   UNL     1      34.548 -17.858 -25.055  0.00  0.00    -0.170 NA
ATOM      4  C   UNL     1      34.766 -16.697 -23.114  0.00  0.00    +0.044 A 
ATOM      5  C   UNL     1      34.309 -16.664 -24.482  0.00  0.00    +0.125 A 
ATOM      6  C   UNL     1      33.721 -15.500 -25.012  0.00  0.00    +0.162 C 
ATOM      7  C   UNL     1      34.704 -15.670 -22.181  0.00  0.00    +0.004 C 
ATOM      8  C   UNL     1      35.282 -17.942 -22.894  0.00  0.00    +0.109 A 
ATOM      9  C   UNL     1      33.643 -14.437 -24.087  0.00  0.00    +0.026 C 
ATOM     10  C   UNL     1      34.112 -14.520 -22.739  0.00  0.00    +0.002 C 
ATOM     11  H   UNL     1      35.413 -19.523 -24.223  0.00  0.00    +0.190 HD
ENDROOT
BRANCH   6  14
ATOM     12  O   UNL     1      32.338 -16.193 -26.723  0.00  0.00    -0.126 OA
ATOM     13  O   UNL     1      33.780 -14.589 -27.130  0.00  0.00    -0.126 OA
ATOM     14  N   UNL     1      33.260 -15.424 -26.345  0.00  0.00    +0.059 N 
ENDBRANCH   6  14
TORSDOF 1
ENDMDL
MODEL 7
REMARK VINA RESULT:      -7.1      3.592      4.743
REMARK  Name = 1649
REMARK  1 active torsions:
REMARK  status: ('A' for Active; 'I' for Inactive)
REMARK    1  A    between atoms: C_6  and  N_14
REMARK                            x       y       z     vdW  Elec       q    Type
REMARK                         _______ _______ _______ _____ _____    ______ ____
ROOT
ATOM      1 BR   UNL     1      36.040 -19.450 -20.954  0.00  0.00    -0.029 Br
ATOM      2  N   UNL     1      35.032 -16.748 -20.702  0.00  0.00    -0.269 N 
ATOM      3  N   UNL     1      34.507 -15.677 -21.326  0.00  0.00    -0.170 NA
ATOM      4  C   UNL     1      34.925 -17.388 -22.761  0.00  0.00    +0.044 A 
ATOM      5  C   UNL     1      34.425 -16.042 -22.618  0.00  0.00    +0.125 A 
ATOM      6  C   UNL     1      33.955 -15.332 -23.739  0.00  0.00    +0.162 C 
ATOM      7  C   UNL     1      35.013 -18.134 -23.929  0.00  0.00    +0.004 C 
ATOM      8  C   UNL     1      35.304 -17.808 -21.517  0.00  0.00    +0.109 A 
ATOM      9  C   UNL     1      34.031 -16.064 -24.943  0.00  0.00    +0.026 C 
ATOM     10  C   UNL     1      34.535 -17.399 -25.032  0.00  0.00    +0.002 C 
ATOM     11  H   UNL     1      35.207 -16.765 -19.733  0.00  0.00    +0.190 HD
ENDROOT
BRANCH   6  14
ATOM     12  O   UNL     1      32.347 -13.811 -23.088  0.00  0.00    -0.126 OA
ATOM     13  O   UNL     1      34.134 -13.064 -24.122  0.00  0.00    -0.126 OA
ATOM     14  N   UNL     1      33.458 -14.014 -23.645  0.00  0.00    +0.059 N 
ENDBRANCH   6  14
TORSDOF 1
ENDMDL
MODEL 8
REMARK VINA RESULT:      -7.0      3.888      4.879
REMARK  Name = 1649
REMARK  1 active torsions:
REMARK  status: ('A' for Active; 'I' for Inactive)
REMARK    1  A    between atoms: C_6  and  N_14
REMARK                            x       y       z     vdW  Elec       q    Type
REMARK                         _______ _______ _______ _____ _____    ______ ____
ROOT
ATOM      1 BR   UNL     1      35.226 -17.253 -22.999  0.00  0.00    -0.029 Br
ATOM      2  N   UNL     1      36.786 -18.873 -21.175  0.00  0.00    -0.269 N 
ATOM      3  N   UNL     1      36.784 -19.860 -20.260  0.00  0.00    -0.170 NA
ATOM      4  C   UNL     1      34.706 -19.442 -21.076  0.00  0.00    +0.044 A 
ATOM      5  C   UNL     1      35.497 -20.241 -20.172  0.00  0.00    +0.125 A 
ATOM      6  C   UNL     1      34.891 -21.232 -19.377  0.00  0.00    +0.162 C 
ATOM      7  C   UNL     1      33.335 -19.518 -21.288  0.00  0.00    +0.004 C 
ATOM      8  C   UNL     1      35.561 -18.578 -21.701  0.00  0.00    +0.109 A 
ATOM      9  C   UNL     1      33.496 -21.335 -19.570  0.00  0.00    +0.026 C 
ATOM     10  C   UNL     1      32.757 -20.517 -20.481  0.00  0.00    +0.002 C 
ATOM     11  H   UNL     1      37.606 -18.400 -21.445  0.00  0.00    +0.190 HD
ENDROOT
BRANCH   6  14
ATOM     12  O   UNL     1      35.029 -22.924 -17.816  0.00  0.00    -0.126 OA
ATOM     13  O   UNL     1      36.866 -21.852 -18.359  0.00  0.00    -0.126 OA
ATOM     14  N   UNL     1      35.626 -22.037 -18.480  0.00  0.00    +0.059 N 
ENDBRANCH   6  14
TORSDOF 1
ENDMDL
MODEL 9
REMARK VINA RESULT:      -7.0      4.232      5.367
REMARK  Name = 1649
REMARK  1 active torsions:
REMARK  status: ('A' for Active; 'I' for Inactive)
REMARK    1  A    between atoms: C_6  and  N_14
REMARK                            x       y       z     vdW  Elec       q    Type
REMARK                         _______ _______ _______ _____ _____    ______ ____
ROOT
ATOM      1 BR   UNL     1      36.102 -18.754 -21.242  0.00  0.00    -0.029 Br
ATOM      2  N   UNL     1      35.559 -17.336 -23.707  0.00  0.00    -0.269 N 
ATOM      3  N   UNL     1      34.977 -16.272 -24.292  0.00  0.00    -0.170 NA
ATOM      4  C   UNL     1      34.675 -16.287 -22.040  0.00  0.00    +0.044 A 
ATOM      5  C   UNL     1      34.413 -15.592 -23.278  0.00  0.00    +0.125 A 
ATOM      6  C   UNL     1      33.669 -14.397 -23.283  0.00  0.00    +0.162 C 
ATOM      7  C   UNL     1      34.268 -15.917 -20.765  0.00  0.00    +0.004 C 
ATOM      8  C   UNL     1      35.409 -17.396 -22.352  0.00  0.00    +0.109 A 
ATOM      9  C   UNL     1      33.241 -13.994 -22.000  0.00  0.00    +0.026 C 
ATOM     10  C   UNL     1      33.527 -14.720 -20.801  0.00  0.00    +0.002 C 
ATOM     11  H   UNL     1      36.054 -18.017 -24.217  0.00  0.00    +0.190 HD
ENDROOT
BRANCH   6  14
ATOM     12  O   UNL     1      33.859 -12.526 -24.618  0.00  0.00    -0.126 OA
ATOM     13  O   UNL     1      32.676 -14.221 -25.357  0.00  0.00    -0.126 OA
ATOM     14  N   UNL     1      33.390 -13.685 -24.470  0.00  0.00    +0.059 N 
ENDBRANCH   6  14
TORSDOF 1
ENDMDL
