MODEL 1
REMARK VINA RESULT:      -7.9      0.000      0.000
REMARK  Name = 61122
REMARK  10 active torsions:
REMARK  status: ('A' for Active; 'I' for Inactive)
REMARK    1  A    between atoms: N_1  and  C_19
REMARK    2  A    between atoms: C_2  and  C_8
REMARK    3  A    between atoms: C_2  and  C_15
REMARK    4  A    between atoms: C_15  and  O_16
REMARK    5  A    between atoms: O_16  and  C_17
REMARK    6  A    between atoms: C_19  and  C_20
REMARK    7  A    between atoms: C_20  and  O_21
REMARK    8  A    between atoms: O_21  and  C_22
REMARK    9  A    between atoms: C_22  and  C_23
REMARK   10  A    between atoms: C_23  and  O_24
REMARK                            x       y       z     vdW  Elec       q    Type
REMARK                         _______ _______ _______ _____ _____    ______ ____
ROOT
ATOM      1  N   UNL     1      35.997 -20.312 -20.613  0.00  0.00    +0.389 N 
ATOM      2  C   UNL     1      34.800 -18.269 -22.430  0.00  0.00    +0.104 C 
ATOM      3  C   UNL     1      36.324 -18.437 -22.183  0.00  0.00    -0.008 C 
ATOM      4  C   UNL     1      34.151 -19.646 -22.129  0.00  0.00    -0.008 C 
ATOM      5  C   UNL     1      36.634 -19.003 -20.794  0.00  0.00    -0.076 C 
ATOM      6  C   UNL     1      34.540 -20.216 -20.759  0.00  0.00    -0.076 C 
ATOM      7  H   UNL     1      36.345 -20.933 -21.342  0.00  0.00    -0.080 HD
ENDROOT
BRANCH   2   8
ATOM      8  C   UNL     1      34.214 -17.067 -21.675  0.00  0.00    -0.013 C 
ATOM      9  C   UNL     1      32.859 -17.045 -21.344  0.00  0.00    -0.004 C 
ATOM     10  C   UNL     1      35.035 -15.997 -21.320  0.00  0.00    -0.004 C 
ATOM     11  C   UNL     1      32.326 -15.953 -20.658  0.00  0.00    -0.000 C 
ATOM     12  C   UNL     1      34.502 -14.905 -20.635  0.00  0.00    -0.000 C 
ATOM     13  C   UNL     1      33.147 -14.883 -20.304  0.00  0.00    -0.000 C 
ENDBRANCH   2   8
BRANCH   2  15
ATOM     14  O   UNL     1      34.208 -18.868 -24.700  0.00  0.00    -0.250 OA
ATOM     15  C   UNL     1      34.596 -18.020 -23.910  0.00  0.00    +0.320 C 
BRANCH  15  16
ATOM     16  O   UNL     1      34.908 -16.725 -24.200  0.00  0.00    -0.448 OA
BRANCH  16  17
ATOM     17  C   UNL     1      34.064 -16.091 -25.167  0.00  0.00    +0.209 C 
ATOM     18  C   UNL     1      33.468 -14.840 -24.558  0.00  0.00    +0.051 C 
ENDBRANCH  16  17
ENDBRANCH  15  16
ENDBRANCH   2  15
BRANCH   1  19
ATOM     19  C   UNL     1      36.347 -20.879 -19.312  0.00  0.00    -0.045 C 
BRANCH  19  20
ATOM     20  C   UNL     1      35.380 -21.989 -18.932  0.00  0.00    +0.120 C 
BRANCH  20  21
ATOM     21  O   UNL     1      35.675 -22.419 -17.609  0.00  0.00    -0.353 OA
BRANCH  21  22
ATOM     22  C   UNL     1      36.913 -21.894 -17.152  0.00  0.00    +0.174 C 
BRANCH  22  23
ATOM     23  C   UNL     1      37.290 -22.575 -15.851  0.00  0.00    +0.169 C 
BRANCH  23  24
ATOM     24  O   UNL     1      38.519 -23.268 -16.030  0.00  0.00    -0.379 OA
ATOM     25  H   UNL     1      38.437 -23.885 -16.773  0.00  0.00    +0.211 HD
ENDBRANCH  23  24
ENDBRANCH  22  23
ENDBRANCH  21  22
ENDBRANCH  20  21
ENDBRANCH  19  20
ENDBRANCH   1  19
TORSDOF 10
ENDMDL
MODEL 2
REMARK VINA RESULT:      -7.2      5.672      8.619
REMARK  Name = 61122
REMARK  10 active torsions:
REMARK  status: ('A' for Active; 'I' for Inactive)
REMARK    1  A    between atoms: N_1  and  C_19
REMARK    2  A    between atoms: C_2  and  C_8
REMARK    3  A    between atoms: C_2  and  C_15
REMARK    4  A    between atoms: C_15  and  O_16
REMARK    5  A    between atoms: O_16  and  C_17
REMARK    6  A    between atoms: C_19  and  C_20
REMARK    7  A    between atoms: C_20  and  O_21
REMARK    8  A    between atoms: O_21  and  C_22
REMARK    9  A    between atoms: C_22  and  C_23
REMARK   10  A    between atoms: C_23  and  O_24
REMARK                            x       y       z     vdW  Elec       q    Type
REMARK                         _______ _______ _______ _____ _____    ______ ____
ROOT
ATOM      1  N   UNL     1      36.712 -24.349 -13.591  0.00  0.00    +0.389 N 
ATOM      2  C   UNL     1      34.550 -23.782 -15.569  0.00  0.00    +0.104 C 
ATOM      3  C   UNL     1      35.464 -22.698 -14.936  0.00  0.00    -0.008 C 
ATOM      4  C   UNL     1      35.341 -25.115 -15.510  0.00  0.00    -0.008 C 
ATOM      5  C   UNL     1      35.959 -23.090 -13.540  0.00  0.00    -0.076 C 
ATOM      6  C   UNL     1      35.883 -25.442 -14.112  0.00  0.00    -0.076 C 
ATOM      7  H   UNL     1      37.496 -24.219 -14.229  0.00  0.00    -0.080 HD
ENDROOT
BRANCH   2   8
ATOM      8  C   UNL     1      33.147 -23.802 -14.943  0.00  0.00    -0.013 C 
ATOM      9  C   UNL     1      32.725 -24.913 -14.212  0.00  0.00    -0.004 C 
ATOM     10  C   UNL     1      32.294 -22.711 -15.107  0.00  0.00    -0.004 C 
ATOM     11  C   UNL     1      31.451 -24.931 -13.644  0.00  0.00    -0.000 C 
ATOM     12  C   UNL     1      31.020 -22.729 -14.540  0.00  0.00    -0.000 C 
ATOM     13  C   UNL     1      30.598 -23.840 -13.808  0.00  0.00    -0.000 C 
ENDBRANCH   2   8
BRANCH   2  15
ATOM     14  O   UNL     1      33.513 -23.918 -17.752  0.00  0.00    -0.250 OA
ATOM     15  C   UNL     1      34.388 -23.450 -17.037  0.00  0.00    +0.320 C 
BRANCH  15  16
ATOM     16  O   UNL     1      35.355 -22.567 -17.414  0.00  0.00    -0.448 OA
BRANCH  16  17
ATOM     17  C   UNL     1      35.223 -22.037 -18.737  0.00  0.00    +0.209 C 
ATOM     18  C   UNL     1      36.504 -21.323 -19.113  0.00  0.00    +0.051 C 
ENDBRANCH  16  17
ENDBRANCH  15  16
ENDBRANCH   2  15
BRANCH   1  19
ATOM     19  C   UNL     1      37.238 -24.687 -12.270  0.00  0.00    -0.045 C 
BRANCH  19  20
ATOM     20  C   UNL     1      38.516 -25.500 -12.394  0.00  0.00    +0.120 C 
BRANCH  20  21
ATOM     21  O   UNL     1      39.444 -24.777 -13.193  0.00  0.00    -0.353 OA
BRANCH  21  22
ATOM     22  C   UNL     1      40.179 -25.640 -14.049  0.00  0.00    +0.174 C 
BRANCH  22  23
ATOM     23  C   UNL     1      40.019 -25.170 -15.482  0.00  0.00    +0.169 C 
BRANCH  23  24
ATOM     24  O   UNL     1      39.085 -24.097 -15.517  0.00  0.00    -0.379 OA
ATOM     25  H   UNL     1      38.350 -24.290 -14.914  0.00  0.00    +0.211 HD
ENDBRANCH  23  24
ENDBRANCH  22  23
ENDBRANCH  21  22
ENDBRANCH  20  21
ENDBRANCH  19  20
ENDBRANCH   1  19
TORSDOF 10
ENDMDL
MODEL 3
REMARK VINA RESULT:      -7.1      8.769     13.102
REMARK  Name = 61122
REMARK  10 active torsions:
REMARK  status: ('A' for Active; 'I' for Inactive)
REMARK    1  A    between atoms: N_1  and  C_19
REMARK    2  A    between atoms: C_2  and  C_8
REMARK    3  A    between atoms: C_2  and  C_15
REMARK    4  A    between atoms: C_15  and  O_16
REMARK    5  A    between atoms: O_16  and  C_17
REMARK    6  A    between atoms: C_19  and  C_20
REMARK    7  A    between atoms: C_20  and  O_21
REMARK    8  A    between atoms: O_21  and  C_22
REMARK    9  A    between atoms: C_22  and  C_23
REMARK   10  A    between atoms: C_23  and  O_24
REMARK                            x       y       z     vdW  Elec       q    Type
REMARK                         _______ _______ _______ _____ _____    ______ ____
ROOT
ATOM      1  N   UNL     1      31.479  -5.878 -22.959  0.00  0.00    +0.389 N 
ATOM      2  C   UNL     1      32.691  -8.604 -22.861  0.00  0.00    +0.104 C 
ATOM      3  C   UNL     1      31.594  -8.169 -23.869  0.00  0.00    -0.008 C 
ATOM      4  C   UNL     1      33.433  -7.310 -22.433  0.00  0.00    -0.008 C 
ATOM      5  C   UNL     1      30.690  -7.063 -23.313  0.00  0.00    -0.076 C 
ATOM      6  C   UNL     1      32.493  -6.199 -21.948  0.00  0.00    -0.076 C 
ATOM      7  H   UNL     1      31.962  -5.561 -23.798  0.00  0.00    -0.080 HD
ENDROOT
BRANCH   2   8
ATOM      8  C   UNL     1      32.129  -9.467 -21.722  0.00  0.00    -0.013 C 
ATOM      9  C   UNL     1      31.327 -10.570 -22.013  0.00  0.00    -0.004 C 
ATOM     10  C   UNL     1      32.421  -9.148 -20.395  0.00  0.00    -0.004 C 
ATOM     11  C   UNL     1      30.816 -11.354 -20.977  0.00  0.00    -0.000 C 
ATOM     12  C   UNL     1      31.910  -9.931 -19.360  0.00  0.00    -0.000 C 
ATOM     13  C   UNL     1      31.107 -11.035 -19.651  0.00  0.00    -0.000 C 
ENDBRANCH   2   8
BRANCH   2  15
ATOM     14  O   UNL     1      34.911  -9.265 -23.563  0.00  0.00    -0.250 OA
ATOM     15  C   UNL     1      33.703  -9.444 -23.611  0.00  0.00    +0.320 C 
BRANCH  15  16
ATOM     16  O   UNL     1      33.054 -10.406 -24.327  0.00  0.00    -0.448 OA
BRANCH  16  17
ATOM     17  C   UNL     1      33.877 -11.471 -24.812  0.00  0.00    +0.209 C 
ATOM     18  C   UNL     1      33.723 -12.669 -23.901  0.00  0.00    +0.051 C 
ENDBRANCH  16  17
ENDBRANCH  15  16
ENDBRANCH   2  15
BRANCH   1  19
ATOM     19  C   UNL     1      30.608  -4.802 -22.490  0.00  0.00    -0.045 C 
BRANCH  19  20
ATOM     20  C   UNL     1      30.996  -3.479 -23.130  0.00  0.00    +0.120 C 
BRANCH  20  21
ATOM     21  O   UNL     1      30.707  -3.541 -24.521  0.00  0.00    -0.353 OA
BRANCH  21  22
ATOM     22  C   UNL     1      31.811  -3.110 -25.304  0.00  0.00    +0.174 C 
BRANCH  22  23
ATOM     23  C   UNL     1      32.241  -4.241 -26.219  0.00  0.00    +0.169 C 
BRANCH  23  24
ATOM     24  O   UNL     1      32.946  -5.213 -25.456  0.00  0.00    -0.379 OA
ATOM     25  H   UNL     1      33.879  -5.216 -25.721  0.00  0.00    +0.211 HD
ENDBRANCH  23  24
ENDBRANCH  22  23
ENDBRANCH  21  22
ENDBRANCH  20  21
ENDBRANCH  19  20
ENDBRANCH   1  19
TORSDOF 10
ENDMDL
MODEL 4
REMARK VINA RESULT:      -7.0      2.097      3.541
REMARK  Name = 61122
REMARK  10 active torsions:
REMARK  status: ('A' for Active; 'I' for Inactive)
REMARK    1  A    between atoms: N_1  and  C_19
REMARK    2  A    between atoms: C_2  and  C_8
REMARK    3  A    between atoms: C_2  and  C_15
REMARK    4  A    between atoms: C_15  and  O_16
REMARK    5  A    between atoms: O_16  and  C_17
REMARK    6  A    between atoms: C_19  and  C_20
REMARK    7  A    between atoms: C_20  and  O_21
REMARK    8  A    between atoms: O_21  and  C_22
REMARK    9  A    between atoms: C_22  and  C_23
REMARK   10  A    between atoms: C_23  and  O_24
REMARK                            x       y       z     vdW  Elec       q    Type
REMARK                         _______ _______ _______ _____ _____    ______ ____
ROOT
ATOM      1  N   UNL     1      35.029 -20.367 -20.035  0.00  0.00    +0.389 N 
ATOM      2  C   UNL     1      34.541 -17.709 -21.301  0.00  0.00    +0.104 C 
ATOM      3  C   UNL     1      33.430 -18.607 -20.694  0.00  0.00    -0.008 C 
ATOM      4  C   UNL     1      35.862 -18.097 -20.583  0.00  0.00    -0.008 C 
ATOM      5  C   UNL     1      33.781 -20.098 -20.757  0.00  0.00    -0.076 C 
ATOM      6  C   UNL     1      36.146 -19.604 -20.604  0.00  0.00    -0.076 C 
ATOM      7  H   UNL     1      34.903 -20.066 -19.069  0.00  0.00    -0.080 HD
ENDROOT
BRANCH   2   8
ATOM      8  C   UNL     1      34.566 -17.764 -22.835  0.00  0.00    -0.013 C 
ATOM      9  C   UNL     1      34.652 -16.584 -23.574  0.00  0.00    -0.004 C 
ATOM     10  C   UNL     1      34.504 -18.993 -23.491  0.00  0.00    -0.004 C 
ATOM     11  C   UNL     1      34.674 -16.634 -24.969  0.00  0.00    -0.000 C 
ATOM     12  C   UNL     1      34.526 -19.043 -24.884  0.00  0.00    -0.000 C 
ATOM     13  C   UNL     1      34.611 -17.863 -25.624  0.00  0.00    -0.000 C 
ENDBRANCH   2   8
BRANCH   2  15
ATOM     14  O   UNL     1      35.099 -15.484 -20.528  0.00  0.00    -0.250 OA
ATOM     15  C   UNL     1      34.248 -16.278 -20.902  0.00  0.00    +0.320 C 
BRANCH  15  16
ATOM     16  O   UNL     1      32.913 -16.035 -21.029  0.00  0.00    -0.448 OA
BRANCH  16  17
ATOM     17  C   UNL     1      32.510 -14.681 -20.796  0.00  0.00    +0.209 C 
ATOM     18  C   UNL     1      32.439 -13.952 -22.121  0.00  0.00    +0.051 C 
ENDBRANCH  16  17
ENDBRANCH  15  16
ENDBRANCH   2  15
BRANCH   1  19
ATOM     19  C   UNL     1      35.327 -21.799 -20.041  0.00  0.00    -0.045 C 
BRANCH  19  20
ATOM     20  C   UNL     1      34.167 -22.591 -19.460  0.00  0.00    +0.120 C 
BRANCH  20  21
ATOM     21  O   UNL     1      34.549 -23.096 -18.187  0.00  0.00    -0.353 OA
BRANCH  21  22
ATOM     22  C   UNL     1      33.442 -23.166 -17.299  0.00  0.00    +0.174 C 
BRANCH  22  23
ATOM     23  C   UNL     1      33.946 -23.480 -15.903  0.00  0.00    +0.169 C 
BRANCH  23  24
ATOM     24  O   UNL     1      35.230 -24.085 -15.999  0.00  0.00    -0.379 OA
ATOM     25  H   UNL     1      35.278 -24.839 -15.392  0.00  0.00    +0.211 HD
ENDBRANCH  23  24
ENDBRANCH  22  23
ENDBRANCH  21  22
ENDBRANCH  20  21
ENDBRANCH  19  20
ENDBRANCH   1  19
TORSDOF 10
ENDMDL
MODEL 5
REMARK VINA RESULT:      -6.9      7.659     11.469
REMARK  Name = 61122
REMARK  10 active torsions:
REMARK  status: ('A' for Active; 'I' for Inactive)
REMARK    1  A    between atoms: N_1  and  C_19
REMARK    2  A    between atoms: C_2  and  C_8
REMARK    3  A    between atoms: C_2  and  C_15
REMARK    4  A    between atoms: C_15  and  O_16
REMARK    5  A    between atoms: O_16  and  C_17
REMARK    6  A    between atoms: C_19  and  C_20
REMARK    7  A    between atoms: C_20  and  O_21
REMARK    8  A    between atoms: O_21  and  C_22
REMARK    9  A    between atoms: C_22  and  C_23
REMARK   10  A    between atoms: C_23  and  O_24
REMARK                            x       y       z     vdW  Elec       q    Type
REMARK                         _______ _______ _______ _____ _____    ______ ____
ROOT
ATOM      1  N   UNL     1      34.121  -9.987 -24.181  0.00  0.00    +0.389 N 
ATOM      2  C   UNL     1      32.806  -7.611 -22.944  0.00  0.00    +0.104 C 
ATOM      3  C   UNL     1      32.083  -8.950 -23.254  0.00  0.00    -0.008 C 
ATOM      4  C   UNL     1      34.311  -7.951 -22.780  0.00  0.00    -0.008 C 
ATOM      5  C   UNL     1      32.707  -9.693 -24.440  0.00  0.00    -0.076 C 
ATOM      6  C   UNL     1      34.886  -8.756 -23.953  0.00  0.00    -0.076 C 
ATOM      7  H   UNL     1      34.174 -10.551 -23.334  0.00  0.00    -0.080 HD
ENDROOT
BRANCH   2   8
ATOM      8  C   UNL     1      32.469  -6.515 -23.965  0.00  0.00    -0.013 C 
ATOM      9  C   UNL     1      31.208  -5.919 -23.959  0.00  0.00    -0.004 C 
ATOM     10  C   UNL     1      33.424  -6.114 -24.900  0.00  0.00    -0.004 C 
ATOM     11  C   UNL     1      30.902  -4.923 -24.887  0.00  0.00    -0.000 C 
ATOM     12  C   UNL     1      33.118  -5.120 -25.828  0.00  0.00    -0.000 C 
ATOM     13  C   UNL     1      31.857  -4.523 -25.822  0.00  0.00    -0.000 C 
ENDBRANCH   2   8
BRANCH   2  15
ATOM     14  O   UNL     1      32.529  -6.007 -21.152  0.00  0.00    -0.250 OA
ATOM     15  C   UNL     1      32.330  -7.132 -21.589  0.00  0.00    +0.320 C 
BRANCH  15  16
ATOM     16  O   UNL     1      31.662  -8.139 -20.958  0.00  0.00    -0.448 OA
BRANCH  16  17
ATOM     17  C   UNL     1      32.236  -8.578 -19.723  0.00  0.00    +0.209 C 
ATOM     18  C   UNL     1      31.721  -9.966 -19.405  0.00  0.00    +0.051 C 
ENDBRANCH  16  17
ENDBRANCH  15  16
ENDBRANCH   2  15
BRANCH   1  19
ATOM     19  C   UNL     1      34.697 -10.753 -25.286  0.00  0.00    -0.045 C 
BRANCH  19  20
ATOM     20  C   UNL     1      33.819 -11.947 -25.627  0.00  0.00    +0.120 C 
BRANCH  20  21
ATOM     21  O   UNL     1      33.885 -12.883 -24.558  0.00  0.00    -0.353 OA
BRANCH  21  22
ATOM     22  C   UNL     1      32.978 -13.959 -24.751  0.00  0.00    +0.174 C 
BRANCH  22  23
ATOM     23  C   UNL     1      32.842 -14.232 -26.237  0.00  0.00    +0.169 C 
BRANCH  23  24
ATOM     24  O   UNL     1      33.623 -15.373 -26.571  0.00  0.00    -0.379 OA
ATOM     25  H   UNL     1      34.407 -15.094 -27.069  0.00  0.00    +0.211 HD
ENDBRANCH  23  24
ENDBRANCH  22  23
ENDBRANCH  21  22
ENDBRANCH  20  21
ENDBRANCH  19  20
ENDBRANCH   1  19
TORSDOF 10
ENDMDL
MODEL 6
REMARK VINA RESULT:      -6.7      8.933     13.529
REMARK  Name = 61122
REMARK  10 active torsions:
REMARK  status: ('A' for Active; 'I' for Inactive)
REMARK    1  A    between atoms: N_1  and  C_19
REMARK    2  A    between atoms: C_2  and  C_8
REMARK    3  A    between atoms: C_2  and  C_15
REMARK    4  A    between atoms: C_15  and  O_16
REMARK    5  A    between atoms: O_16  and  C_17
REMARK    6  A    between atoms: C_19  and  C_20
REMARK    7  A    between atoms: C_20  and  O_21
REMARK    8  A    between atoms: O_21  and  C_22
REMARK    9  A    between atoms: C_22  and  C_23
REMARK   10  A    between atoms: C_23  and  O_24
REMARK                            x       y       z     vdW  Elec       q    Type
REMARK                         _______ _______ _______ _____ _____    ______ ____
ROOT
ATOM      1  N   UNL     1      31.580  -5.922 -23.007  0.00  0.00    +0.389 N 
ATOM      2  C   UNL     1      32.735  -8.672 -22.894  0.00  0.00    +0.104 C 
ATOM      3  C   UNL     1      31.651  -8.217 -23.909  0.00  0.00    -0.008 C 
ATOM      4  C   UNL     1      33.502  -7.392 -22.467  0.00  0.00    -0.008 C 
ATOM      5  C   UNL     1      30.768  -7.092 -23.361  0.00  0.00    -0.076 C 
ATOM      6  C   UNL     1      32.583  -6.260 -21.991  0.00  0.00    -0.076 C 
ATOM      7  H   UNL     1      32.073  -5.618 -23.845  0.00  0.00    -0.080 HD
ENDROOT
BRANCH   2   8
ATOM      8  C   UNL     1      32.151  -9.519 -21.755  0.00  0.00    -0.013 C 
ATOM      9  C   UNL     1      31.389 -10.651 -22.046  0.00  0.00    -0.004 C 
ATOM     10  C   UNL     1      32.380  -9.158 -20.427  0.00  0.00    -0.004 C 
ATOM     11  C   UNL     1      30.858 -11.421 -21.011  0.00  0.00    -0.000 C 
ATOM     12  C   UNL     1      31.849  -9.927 -19.392  0.00  0.00    -0.000 C 
ATOM     13  C   UNL     1      31.088 -11.059 -19.684  0.00  0.00    -0.000 C 
ENDBRANCH   2   8
BRANCH   2  15
ATOM     14  O   UNL     1      34.941  -9.350 -23.625  0.00  0.00    -0.250 OA
ATOM     15  C   UNL     1      33.732  -9.535 -23.637  0.00  0.00    +0.320 C 
BRANCH  15  16
ATOM     16  O   UNL     1      33.071 -10.525 -24.301  0.00  0.00    -0.448 OA
BRANCH  16  17
ATOM     17  C   UNL     1      33.897 -11.567 -24.831  0.00  0.00    +0.209 C 
ATOM     18  C   UNL     1      33.717 -12.814 -23.991  0.00  0.00    +0.051 C 
ENDBRANCH  16  17
ENDBRANCH  15  16
ENDBRANCH   2  15
BRANCH   1  19
ATOM     19  C   UNL     1      30.729  -4.827 -22.545  0.00  0.00    -0.045 C 
BRANCH  19  20
ATOM     20  C   UNL     1      31.132  -3.518 -23.206  0.00  0.00    +0.120 C 
BRANCH  20  21
ATOM     21  O   UNL     1      31.579  -3.791 -24.528  0.00  0.00    -0.353 OA
BRANCH  21  22
ATOM     22  C   UNL     1      31.327  -2.699 -25.400  0.00  0.00    +0.174 C 
BRANCH  22  23
ATOM     23  C   UNL     1      30.285  -1.794 -24.772  0.00  0.00    +0.169 C 
BRANCH  23  24
ATOM     24  O   UNL     1      29.060  -1.935 -25.482  0.00  0.00    -0.379 OA
ATOM     25  H   UNL     1      29.066  -1.351 -26.256  0.00  0.00    +0.211 HD
ENDBRANCH  23  24
ENDBRANCH  22  23
ENDBRANCH  21  22
ENDBRANCH  20  21
ENDBRANCH  19  20
ENDBRANCH   1  19
TORSDOF 10
ENDMDL
MODEL 7
REMARK VINA RESULT:      -6.6      3.029      7.533
REMARK  Name = 61122
REMARK  10 active torsions:
REMARK  status: ('A' for Active; 'I' for Inactive)
REMARK    1  A    between atoms: N_1  and  C_19
REMARK    2  A    between atoms: C_2  and  C_8
REMARK    3  A    between atoms: C_2  and  C_15
REMARK    4  A    between atoms: C_15  and  O_16
REMARK    5  A    between atoms: O_16  and  C_17
REMARK    6  A    between atoms: C_19  and  C_20
REMARK    7  A    between atoms: C_20  and  O_21
REMARK    8  A    between atoms: O_21  and  C_22
REMARK    9  A    between atoms: C_22  and  C_23
REMARK   10  A    between atoms: C_23  and  O_24
REMARK                            x       y       z     vdW  Elec       q    Type
REMARK                         _______ _______ _______ _____ _____    ______ ____
ROOT
ATOM      1  N   UNL     1      33.133 -14.877 -20.515  0.00  0.00    +0.389 N 
ATOM      2  C   UNL     1      34.419 -17.431 -21.371  0.00  0.00    +0.104 C 
ATOM      3  C   UNL     1      35.194 -16.194 -20.841  0.00  0.00    -0.008 C 
ATOM      4  C   UNL     1      32.986 -17.338 -20.782  0.00  0.00    -0.008 C 
ATOM      5  C   UNL     1      34.465 -14.877 -21.129  0.00  0.00    -0.076 C 
ATOM      6  C   UNL     1      32.313 -15.982 -21.027  0.00  0.00    -0.076 C 
ATOM      7  H   UNL     1      33.250 -15.013 -19.512  0.00  0.00    -0.080 HD
ENDROOT
BRANCH   2   8
ATOM      8  C   UNL     1      34.513 -17.571 -22.897  0.00  0.00    -0.013 C 
ATOM      9  C   UNL     1      34.664 -16.436 -23.694  0.00  0.00    -0.004 C 
ATOM     10  C   UNL     1      34.448 -18.833 -23.488  0.00  0.00    -0.004 C 
ATOM     11  C   UNL     1      34.748 -16.563 -25.081  0.00  0.00    -0.000 C 
ATOM     12  C   UNL     1      34.532 -18.960 -24.874  0.00  0.00    -0.000 C 
ATOM     13  C   UNL     1      34.682 -17.825 -25.671  0.00  0.00    -0.000 C 
ENDBRANCH   2   8
BRANCH   2  15
ATOM     14  O   UNL     1      36.253 -18.830 -20.636  0.00  0.00    -0.250 OA
ATOM     15  C   UNL     1      35.048 -18.666 -20.762  0.00  0.00    +0.320 C 
BRANCH  15  16
ATOM     16  O   UNL     1      34.068 -19.537 -20.387  0.00  0.00    -0.448 OA
BRANCH  16  17
ATOM     17  C   UNL     1      34.518 -20.842 -20.007  0.00  0.00    +0.209 C 
ATOM     18  C   UNL     1      33.340 -21.638 -19.489  0.00  0.00    +0.051 C 
ENDBRANCH  16  17
ENDBRANCH  15  16
ENDBRANCH   2  15
BRANCH   1  19
ATOM     19  C   UNL     1      32.465 -13.595 -20.736  0.00  0.00    -0.045 C 
BRANCH  19  20
ATOM     20  C   UNL     1      32.168 -13.392 -22.213  0.00  0.00    +0.120 C 
BRANCH  20  21
ATOM     21  O   UNL     1      32.843 -12.223 -22.659  0.00  0.00    -0.353 OA
BRANCH  21  22
ATOM     22  C   UNL     1      33.577 -12.466 -23.851  0.00  0.00    +0.174 C 
BRANCH  22  23
ATOM     23  C   UNL     1      33.830 -11.146 -24.555  0.00  0.00    +0.169 C 
BRANCH  23  24
ATOM     24  O   UNL     1      34.943 -10.503 -23.946  0.00  0.00    -0.379 OA
ATOM     25  H   UNL     1      34.899 -10.621 -22.985  0.00  0.00    +0.211 HD
ENDBRANCH  23  24
ENDBRANCH  22  23
ENDBRANCH  21  22
ENDBRANCH  20  21
ENDBRANCH  19  20
ENDBRANCH   1  19
TORSDOF 10
ENDMDL
MODEL 8
REMARK VINA RESULT:      -6.6      3.411      7.559
REMARK  Name = 61122
REMARK  10 active torsions:
REMARK  status: ('A' for Active; 'I' for Inactive)
REMARK    1  A    between atoms: N_1  and  C_19
REMARK    2  A    between atoms: C_2  and  C_8
REMARK    3  A    between atoms: C_2  and  C_15
REMARK    4  A    between atoms: C_15  and  O_16
REMARK    5  A    between atoms: O_16  and  C_17
REMARK    6  A    between atoms: C_19  and  C_20
REMARK    7  A    between atoms: C_20  and  O_21
REMARK    8  A    between atoms: O_21  and  C_22
REMARK    9  A    between atoms: C_22  and  C_23
REMARK   10  A    between atoms: C_23  and  O_24
REMARK                            x       y       z     vdW  Elec       q    Type
REMARK                         _______ _______ _______ _____ _____    ______ ____
ROOT
ATOM      1  N   UNL     1      32.965 -14.699 -20.305  0.00  0.00    +0.389 N 
ATOM      2  C   UNL     1      34.265 -17.158 -21.385  0.00  0.00    +0.104 C 
ATOM      3  C   UNL     1      35.035 -15.960 -20.766  0.00  0.00    -0.008 C 
ATOM      4  C   UNL     1      32.840 -17.131 -20.771  0.00  0.00    -0.008 C 
ATOM      5  C   UNL     1      34.288 -14.633 -20.935  0.00  0.00    -0.076 C 
ATOM      6  C   UNL     1      32.149 -15.767 -20.895  0.00  0.00    -0.076 C 
ATOM      7  H   UNL     1      33.098 -14.915 -19.318  0.00  0.00    -0.080 HD
ENDROOT
BRANCH   2   8
ATOM      8  C   UNL     1      34.339 -17.171 -22.919  0.00  0.00    -0.013 C 
ATOM      9  C   UNL     1      34.573 -18.368 -23.596  0.00  0.00    -0.004 C 
ATOM     10  C   UNL     1      34.171 -15.987 -23.636  0.00  0.00    -0.004 C 
ATOM     11  C   UNL     1      34.640 -18.380 -24.990  0.00  0.00    -0.000 C 
ATOM     12  C   UNL     1      34.238 -15.998 -25.029  0.00  0.00    -0.000 C 
ATOM     13  C   UNL     1      34.473 -17.195 -25.706  0.00  0.00    -0.000 C 
ENDBRANCH   2   8
BRANCH   2  15
ATOM     14  O   UNL     1      36.112 -18.548 -20.665  0.00  0.00    -0.250 OA
ATOM     15  C   UNL     1      34.916 -18.432 -20.888  0.00  0.00    +0.320 C 
BRANCH  15  16
ATOM     16  O   UNL     1      33.966 -19.398 -20.736  0.00  0.00    -0.448 OA
BRANCH  16  17
ATOM     17  C   UNL     1      34.440 -20.654 -20.241  0.00  0.00    +0.209 C 
ATOM     18  C   UNL     1      33.308 -21.364 -19.529  0.00  0.00    +0.051 C 
ENDBRANCH  16  17
ENDBRANCH  15  16
ENDBRANCH   2  15
BRANCH   1  19
ATOM     19  C   UNL     1      32.280 -13.411 -20.411  0.00  0.00    -0.045 C 
BRANCH  19  20
ATOM     20  C   UNL     1      32.103 -13.015 -21.868  0.00  0.00    +0.120 C 
BRANCH  20  21
ATOM     21  O   UNL     1      31.850 -11.618 -21.935  0.00  0.00    -0.353 OA
BRANCH  21  22
ATOM     22  C   UNL     1      31.373 -11.113 -20.696  0.00  0.00    +0.174 C 
BRANCH  22  23
ATOM     23  C   UNL     1      31.867  -9.690 -20.517  0.00  0.00    +0.169 C 
BRANCH  23  24
ATOM     24  O   UNL     1      32.512  -9.579 -19.254  0.00  0.00    -0.379 OA
ATOM     25  H   UNL     1      33.270 -10.184 -19.224  0.00  0.00    +0.211 HD
ENDBRANCH  23  24
ENDBRANCH  22  23
ENDBRANCH  21  22
ENDBRANCH  20  21
ENDBRANCH  19  20
ENDBRANCH   1  19
TORSDOF 10
ENDMDL
MODEL 9
REMARK VINA RESULT:      -6.6      9.325     12.692
REMARK  Name = 61122
REMARK  10 active torsions:
REMARK  status: ('A' for Active; 'I' for Inactive)
REMARK    1  A    between atoms: N_1  and  C_19
REMARK    2  A    between atoms: C_2  and  C_8
REMARK    3  A    between atoms: C_2  and  C_15
REMARK    4  A    between atoms: C_15  and  O_16
REMARK    5  A    between atoms: O_16  and  C_17
REMARK    6  A    between atoms: C_19  and  C_20
REMARK    7  A    between atoms: C_20  and  O_21
REMARK    8  A    between atoms: O_21  and  C_22
REMARK    9  A    between atoms: C_22  and  C_23
REMARK   10  A    between atoms: C_23  and  O_24
REMARK                            x       y       z     vdW  Elec       q    Type
REMARK                         _______ _______ _______ _____ _____    ______ ____
ROOT
ATOM      1  N   UNL     1      32.080  -9.077 -22.547  0.00  0.00    +0.389 N 
ATOM      2  C   UNL     1      31.808  -6.198 -23.286  0.00  0.00    +0.104 C 
ATOM      3  C   UNL     1      30.731  -7.280 -23.568  0.00  0.00    -0.008 C 
ATOM      4  C   UNL     1      32.638  -6.708 -22.077  0.00  0.00    -0.008 C 
ATOM      5  C   UNL     1      31.335  -8.676 -23.747  0.00  0.00    -0.076 C 
ATOM      6  C   UNL     1      33.168  -8.135 -22.260  0.00  0.00    -0.076 C 
ATOM      7  H   UNL     1      31.434  -9.061 -21.758  0.00  0.00    -0.080 HD
ENDROOT
BRANCH   2   8
ATOM      8  C   UNL     1      32.607  -5.825 -24.543  0.00  0.00    -0.013 C 
ATOM      9  C   UNL     1      33.914  -6.287 -24.701  0.00  0.00    -0.004 C 
ATOM     10  C   UNL     1      32.028  -5.024 -25.527  0.00  0.00    -0.004 C 
ATOM     11  C   UNL     1      34.640  -5.948 -25.844  0.00  0.00    -0.000 C 
ATOM     12  C   UNL     1      32.754  -4.685 -26.669  0.00  0.00    -0.000 C 
ATOM     13  C   UNL     1      34.061  -5.147 -26.827  0.00  0.00    -0.000 C 
ENDBRANCH   2   8
BRANCH   2  15
ATOM     14  O   UNL     1      29.976  -4.943 -22.322  0.00  0.00    -0.250 OA
ATOM     15  C   UNL     1      31.096  -4.948 -22.813  0.00  0.00    +0.320 C 
BRANCH  15  16
ATOM     16  O   UNL     1      31.894  -3.863 -23.022  0.00  0.00    -0.448 OA
BRANCH  16  17
ATOM     17  C   UNL     1      31.250  -2.592 -22.890  0.00  0.00    +0.209 C 
ATOM     18  C   UNL     1      31.321  -1.863 -24.216  0.00  0.00    +0.051 C 
ENDBRANCH  16  17
ENDBRANCH  15  16
ENDBRANCH   2  15
BRANCH   1  19
ATOM     19  C   UNL     1      32.600 -10.435 -22.695  0.00  0.00    -0.045 C 
BRANCH  19  20
ATOM     20  C   UNL     1      31.559 -11.458 -22.268  0.00  0.00    +0.120 C 
BRANCH  20  21
ATOM     21  O   UNL     1      30.895 -10.977 -21.105  0.00  0.00    -0.353 OA
BRANCH  21  22
ATOM     22  C   UNL     1      31.512 -11.454 -19.918  0.00  0.00    +0.174 C 
BRANCH  22  23
ATOM     23  C   UNL     1      31.562 -10.330 -18.900  0.00  0.00    +0.169 C 
BRANCH  23  24
ATOM     24  O   UNL     1      32.641  -9.461 -19.224  0.00  0.00    -0.379 OA
ATOM     25  H   UNL     1      33.318  -9.515 -18.532  0.00  0.00    +0.211 HD
ENDBRANCH  23  24
ENDBRANCH  22  23
ENDBRANCH  21  22
ENDBRANCH  20  21
ENDBRANCH  19  20
ENDBRANCH   1  19
TORSDOF 10
ENDMDL
