MODEL 1
REMARK VINA RESULT:      -9.9      0.000      0.000
REMARK  Name = 5289227
REMARK  6 active torsions:
REMARK  status: ('A' for Active; 'I' for Inactive)
REMARK    1  A    between atoms: N_1  and  C_13
REMARK    2  A    between atoms: C_5  and  C_17
REMARK    3  A    between atoms: C_13  and  C_14
REMARK    4  A    between atoms: C_14  and  C_15
REMARK    5  A    between atoms: C_17  and  C_18
REMARK    6  A    between atoms: C_23  and  O_24
REMARK                            x       y       z     vdW  Elec       q    Type
REMARK                         _______ _______ _______ _____ _____    ______ ____
ROOT
ATOM      1  N   UNL     1      33.562 -23.454 -16.332  0.00  0.00    -0.249 N 
ATOM      2  N   UNL     1      31.984 -22.806 -17.745  0.00  0.00    -0.385 NA
ATOM      3  N   UNL     1      32.257 -23.695 -14.300  0.00  0.00    -0.227 NA
ATOM      4  N   UNL     1      29.912 -23.146 -14.700  0.00  0.00    -0.227 NA
ATOM      5  C   UNL     1      33.264 -23.086 -17.608  0.00  0.00    +0.169 C 
ATOM      6  C   UNL     1      32.419 -23.410 -15.601  0.00  0.00    +0.167 C 
ATOM      7  C   UNL     1      31.444 -23.005 -16.499  0.00  0.00    +0.195 C 
ATOM      8  C   UNL     1      30.150 -22.875 -16.006  0.00  0.00    +0.155 C 
ATOM      9  C   UNL     1      30.966 -23.533 -13.939  0.00  0.00    +0.253 C 
ATOM     10  N   UNL     1      29.099 -22.469 -16.846  0.00  0.00    -0.341 N 
ATOM     11  H   UNL     1      28.187 -22.381 -16.486  0.00  0.00    +0.144 HD
ATOM     12  H   UNL     1      29.274 -22.273 -17.795  0.00  0.00    +0.144 HD
ENDROOT
BRANCH   1  13
ATOM     13  C   UNL     1      34.879 -23.830 -15.830  0.00  0.00    +0.099 C 
BRANCH  13  14
ATOM     14  C   UNL     1      35.624 -22.641 -15.221  0.00  0.00    +0.022 C 
BRANCH  14  15
ATOM     15  C   UNL     1      37.064 -22.576 -15.726  0.00  0.00    +0.002 C 
ATOM     16  C   UNL     1      37.224 -21.533 -16.820  0.00  0.00    +0.000 C 
ENDBRANCH  14  15
ENDBRANCH  13  14
ENDBRANCH   1  13
BRANCH   5  17
ATOM     17  C   UNL     1      34.282 -23.023 -18.676  0.00  0.00    +0.101 C 
BRANCH  17  18
ATOM     18  C   UNL     1      34.260 -21.726 -19.473  0.00  0.00    -0.014 C 
ATOM     19  C   UNL     1      35.455 -21.187 -19.901  0.00  0.00    -0.001 C 
ATOM     20  C   UNL     1      33.046 -21.131 -19.744  0.00  0.00    -0.001 C 
ATOM     21  C   UNL     1      35.436 -19.999 -20.631  0.00  0.00    +0.037 C 
ATOM     22  C   UNL     1      33.026 -19.943 -20.475  0.00  0.00    +0.037 C 
ATOM     23  C   UNL     1      34.221 -19.376 -20.918  0.00  0.00    +0.139 C 
BRANCH  23  24
ATOM     24  O   UNL     1      34.202 -18.217 -21.631  0.00  0.00    -0.471 OA
ATOM     25  C   UNL     1      35.005 -17.142 -21.145  0.00  0.00    +0.252 C 
ENDBRANCH  23  24
ENDBRANCH  17  18
ENDBRANCH   5  17
TORSDOF 6
ENDMDL
MODEL 2
REMARK VINA RESULT:      -9.7      5.089      8.732
REMARK  Name = 5289227
REMARK  6 active torsions:
REMARK  status: ('A' for Active; 'I' for Inactive)
REMARK    1  A    between atoms: N_1  and  C_13
REMARK    2  A    between atoms: C_5  and  C_17
REMARK    3  A    between atoms: C_13  and  C_14
REMARK    4  A    between atoms: C_14  and  C_15
REMARK    5  A    between atoms: C_17  and  C_18
REMARK    6  A    between atoms: C_23  and  O_24
REMARK                            x       y       z     vdW  Elec       q    Type
REMARK                         _______ _______ _______ _____ _____    ______ ____
ROOT
ATOM      1  N   UNL     1      34.715 -16.337 -23.205  0.00  0.00    -0.249 N 
ATOM      2  N   UNL     1      34.248 -16.075 -21.055  0.00  0.00    -0.385 NA
ATOM      3  N   UNL     1      33.461 -14.487 -24.152  0.00  0.00    -0.227 NA
ATOM      4  N   UNL     1      32.307 -13.231 -22.406  0.00  0.00    -0.227 NA
ATOM      5  C   UNL     1      34.899 -16.802 -21.940  0.00  0.00    +0.169 C 
ATOM      6  C   UNL     1      33.901 -15.253 -23.142  0.00  0.00    +0.167 C 
ATOM      7  C   UNL     1      33.620 -15.103 -21.792  0.00  0.00    +0.195 C 
ATOM      8  C   UNL     1      32.790 -14.046 -21.436  0.00  0.00    +0.155 C 
ATOM      9  C   UNL     1      32.667 -13.499 -23.685  0.00  0.00    +0.253 C 
ATOM     10  N   UNL     1      32.453 -13.819 -20.091  0.00  0.00    -0.341 N 
ATOM     11  H   UNL     1      31.865 -13.067 -19.851  0.00  0.00    +0.144 HD
ATOM     12  H   UNL     1      32.805 -14.412 -19.388  0.00  0.00    +0.144 HD
ENDROOT
BRANCH   1  13
ATOM     13  C   UNL     1      35.287 -16.901 -24.423  0.00  0.00    +0.099 C 
BRANCH  13  14
ATOM     14  C   UNL     1      34.226 -17.555 -25.308  0.00  0.00    +0.022 C 
BRANCH  14  15
ATOM     15  C   UNL     1      33.843 -18.936 -24.780  0.00  0.00    +0.002 C 
ATOM     16  C   UNL     1      35.045 -19.865 -24.728  0.00  0.00    +0.000 C 
ENDBRANCH  14  15
ENDBRANCH  13  14
ENDBRANCH   1  13
BRANCH   5  17
ATOM     17  C   UNL     1      35.737 -17.982 -21.641  0.00  0.00    +0.101 C 
BRANCH  17  18
ATOM     18  C   UNL     1      34.972 -19.139 -21.015  0.00  0.00    -0.014 C 
ATOM     19  C   UNL     1      35.681 -20.162 -20.421  0.00  0.00    -0.001 C 
ATOM     20  C   UNL     1      33.594 -19.128 -21.060  0.00  0.00    -0.001 C 
ATOM     21  C   UNL     1      34.981 -21.223 -19.847  0.00  0.00    +0.037 C 
ATOM     22  C   UNL     1      32.893 -20.190 -20.486  0.00  0.00    +0.037 C 
ATOM     23  C   UNL     1      33.586 -21.237 -19.880  0.00  0.00    +0.139 C 
BRANCH  23  24
ATOM     24  O   UNL     1      32.903 -22.272 -19.320  0.00  0.00    -0.471 OA
ATOM     25  C   UNL     1      33.398 -22.784 -18.083  0.00  0.00    +0.252 C 
ENDBRANCH  23  24
ENDBRANCH  17  18
ENDBRANCH   5  17
TORSDOF 6
ENDMDL
MODEL 3
REMARK VINA RESULT:      -9.5      8.334     12.291
REMARK  Name = 5289227
REMARK  6 active torsions:
REMARK  status: ('A' for Active; 'I' for Inactive)
REMARK    1  A    between atoms: N_1  and  C_13
REMARK    2  A    between atoms: C_5  and  C_17
REMARK    3  A    between atoms: C_13  and  C_14
REMARK    4  A    between atoms: C_14  and  C_15
REMARK    5  A    between atoms: C_17  and  C_18
REMARK    6  A    between atoms: C_23  and  O_24
REMARK                            x       y       z     vdW  Elec       q    Type
REMARK                         _______ _______ _______ _____ _____    ______ ____
ROOT
ATOM      1  N   UNL     1      32.311 -11.329 -22.743  0.00  0.00    -0.249 N 
ATOM      2  N   UNL     1      33.813 -12.096 -24.179  0.00  0.00    -0.385 NA
ATOM      3  N   UNL     1      32.903  -8.975 -22.708  0.00  0.00    -0.227 NA
ATOM      4  N   UNL     1      34.788  -8.528 -24.192  0.00  0.00    -0.227 NA
ATOM      5  C   UNL     1      32.800 -12.416 -23.399  0.00  0.00    +0.169 C 
ATOM      6  C   UNL     1      33.042 -10.247 -23.112  0.00  0.00    +0.167 C 
ATOM      7  C   UNL     1      33.975 -10.744 -24.010  0.00  0.00    +0.195 C 
ATOM      8  C   UNL     1      34.870  -9.831 -24.556  0.00  0.00    +0.155 C 
ATOM      9  C   UNL     1      33.823  -8.187 -23.303  0.00  0.00    +0.253 C 
ATOM     10  N   UNL     1      35.849 -10.247 -25.475  0.00  0.00    -0.341 N 
ATOM     11  H   UNL     1      36.477  -9.592 -25.855  0.00  0.00    +0.144 HD
ATOM     12  H   UNL     1      35.906 -11.194 -25.738  0.00  0.00    +0.144 HD
ENDROOT
BRANCH   1  13
ATOM     13  C   UNL     1      31.195 -11.320 -21.802  0.00  0.00    +0.099 C 
BRANCH  13  14
ATOM     14  C   UNL     1      31.636 -11.681 -20.384  0.00  0.00    +0.022 C 
BRANCH  14  15
ATOM     15  C   UNL     1      31.122 -10.661 -19.370  0.00  0.00    +0.002 C 
ATOM     16  C   UNL     1      31.864  -9.339 -19.485  0.00  0.00    +0.000 C 
ENDBRANCH  14  15
ENDBRANCH  13  14
ENDBRANCH   1  13
BRANCH   5  17
ATOM     17  C   UNL     1      32.234 -13.769 -23.229  0.00  0.00    +0.101 C 
BRANCH  17  18
ATOM     18  C   UNL     1      33.154 -14.735 -22.494  0.00  0.00    -0.014 C 
ATOM     19  C   UNL     1      33.942 -15.594 -23.232  0.00  0.00    -0.001 C 
ATOM     20  C   UNL     1      33.171 -14.720 -21.116  0.00  0.00    -0.001 C 
ATOM     21  C   UNL     1      34.784 -16.479 -22.560  0.00  0.00    +0.037 C 
ATOM     22  C   UNL     1      34.014 -15.606 -20.443  0.00  0.00    +0.037 C 
ATOM     23  C   UNL     1      34.820 -16.486 -21.165  0.00  0.00    +0.139 C 
BRANCH  23  24
ATOM     24  O   UNL     1      35.643 -17.349 -20.509  0.00  0.00    -0.471 OA
ATOM     25  C   UNL     1      35.998 -18.552 -21.191  0.00  0.00    +0.252 C 
ENDBRANCH  23  24
ENDBRANCH  17  18
ENDBRANCH   5  17
TORSDOF 6
ENDMDL
MODEL 4
REMARK VINA RESULT:      -9.4      1.701      4.205
REMARK  Name = 5289227
REMARK  6 active torsions:
REMARK  status: ('A' for Active; 'I' for Inactive)
REMARK    1  A    between atoms: N_1  and  C_13
REMARK    2  A    between atoms: C_5  and  C_17
REMARK    3  A    between atoms: C_13  and  C_14
REMARK    4  A    between atoms: C_14  and  C_15
REMARK    5  A    between atoms: C_17  and  C_18
REMARK    6  A    between atoms: C_23  and  O_24
REMARK                            x       y       z     vdW  Elec       q    Type
REMARK                         _______ _______ _______ _____ _____    ______ ____
ROOT
ATOM      1  N   UNL     1      33.390 -23.580 -15.918  0.00  0.00    -0.249 N 
ATOM      2  N   UNL     1      35.239 -23.017 -17.000  0.00  0.00    -0.385 NA
ATOM      3  N   UNL     1      34.326 -24.291 -13.795  0.00  0.00    -0.227 NA
ATOM      4  N   UNL     1      36.758 -24.079 -13.800  0.00  0.00    -0.227 NA
ATOM      5  C   UNL     1      33.926 -23.104 -17.074  0.00  0.00    +0.169 C 
ATOM      6  C   UNL     1      34.404 -23.817 -15.048  0.00  0.00    +0.167 C 
ATOM      7  C   UNL     1      35.551 -23.460 -15.740  0.00  0.00    +0.195 C 
ATOM      8  C   UNL     1      36.760 -23.605 -15.070  0.00  0.00    +0.155 C 
ATOM      9  C   UNL     1      35.558 -24.389 -13.250  0.00  0.00    +0.253 C 
ATOM     10  N   UNL     1      37.973 -23.267 -15.694  0.00  0.00    -0.341 N 
ATOM     11  H   UNL     1      38.823 -23.373 -15.210  0.00  0.00    +0.144 HD
ATOM     12  H   UNL     1      37.972 -22.922 -16.617  0.00  0.00    +0.144 HD
ENDROOT
BRANCH   1  13
ATOM     13  C   UNL     1      31.972 -23.801 -15.653  0.00  0.00    +0.099 C 
BRANCH  13  14
ATOM     14  C   UNL     1      31.361 -22.676 -14.818  0.00  0.00    +0.022 C 
BRANCH  14  15
ATOM     15  C   UNL     1      29.840 -22.650 -14.957  0.00  0.00    +0.002 C 
ATOM     16  C   UNL     1      29.411 -22.758 -16.412  0.00  0.00    +0.000 C 
ENDBRANCH  14  15
ENDBRANCH  13  14
ENDBRANCH   1  13
BRANCH   5  17
ATOM     17  C   UNL     1      33.100 -22.739 -18.243  0.00  0.00    +0.101 C 
BRANCH  17  18
ATOM     18  C   UNL     1      33.760 -21.732 -19.175  0.00  0.00    -0.014 C 
ATOM     19  C   UNL     1      32.975 -20.775 -19.783  0.00  0.00    -0.001 C 
ATOM     20  C   UNL     1      35.121 -21.809 -19.382  0.00  0.00    -0.001 C 
ATOM     21  C   UNL     1      33.579 -19.852 -20.637  0.00  0.00    +0.037 C 
ATOM     22  C   UNL     1      35.725 -20.886 -20.237  0.00  0.00    +0.037 C 
ATOM     23  C   UNL     1      34.954 -19.908 -20.865  0.00  0.00    +0.139 C 
BRANCH  23  24
ATOM     24  O   UNL     1      35.543 -19.007 -21.698  0.00  0.00    -0.471 OA
ATOM     25  C   UNL     1      35.313 -17.625 -21.428  0.00  0.00    +0.252 C 
ENDBRANCH  23  24
ENDBRANCH  17  18
ENDBRANCH   5  17
TORSDOF 6
ENDMDL
MODEL 5
REMARK VINA RESULT:      -9.3      0.825      1.185
REMARK  Name = 5289227
REMARK  6 active torsions:
REMARK  status: ('A' for Active; 'I' for Inactive)
REMARK    1  A    between atoms: N_1  and  C_13
REMARK    2  A    between atoms: C_5  and  C_17
REMARK    3  A    between atoms: C_13  and  C_14
REMARK    4  A    between atoms: C_14  and  C_15
REMARK    5  A    between atoms: C_17  and  C_18
REMARK    6  A    between atoms: C_23  and  O_24
REMARK                            x       y       z     vdW  Elec       q    Type
REMARK                         _______ _______ _______ _____ _____    ______ ____
ROOT
ATOM      1  N   UNL     1      33.705 -23.092 -16.332  0.00  0.00    -0.249 N 
ATOM      2  N   UNL     1      32.080 -22.862 -17.819  0.00  0.00    -0.385 NA
ATOM      3  N   UNL     1      32.408 -23.223 -14.285  0.00  0.00    -0.227 NA
ATOM      4  N   UNL     1      30.019 -23.053 -14.754  0.00  0.00    -0.227 NA
ATOM      5  C   UNL     1      33.383 -22.946 -17.646  0.00  0.00    +0.169 C 
ATOM      6  C   UNL     1      32.554 -23.101 -15.613  0.00  0.00    +0.167 C 
ATOM      7  C   UNL     1      31.549 -22.958 -16.557  0.00  0.00    +0.195 C 
ATOM      8  C   UNL     1      30.241 -22.935 -16.086  0.00  0.00    +0.155 C 
ATOM      9  C   UNL     1      31.101 -23.187 -13.948  0.00  0.00    +0.253 C 
ATOM     10  N   UNL     1      29.160 -22.794 -16.972  0.00  0.00    -0.341 N 
ATOM     11  H   UNL     1      28.239 -22.779 -16.627  0.00  0.00    +0.144 HD
ATOM     12  H   UNL     1      29.325 -22.709 -17.939  0.00  0.00    +0.144 HD
ENDROOT
BRANCH   1  13
ATOM     13  C   UNL     1      35.052 -23.215 -15.783  0.00  0.00    +0.099 C 
BRANCH  13  14
ATOM     14  C   UNL     1      35.362 -24.644 -15.338  0.00  0.00    +0.022 C 
BRANCH  14  15
ATOM     15  C   UNL     1      35.659 -24.703 -13.841  0.00  0.00    +0.002 C 
ATOM     16  C   UNL     1      36.237 -23.390 -13.336  0.00  0.00    +0.000 C 
ENDBRANCH  14  15
ENDBRANCH  13  14
ENDBRANCH   1  13
BRANCH   5  17
ATOM     17  C   UNL     1      34.402 -22.895 -18.714  0.00  0.00    +0.101 C 
BRANCH  17  18
ATOM     18  C   UNL     1      34.379 -21.608 -19.527  0.00  0.00    -0.014 C 
ATOM     19  C   UNL     1      35.576 -21.053 -19.929  0.00  0.00    -0.001 C 
ATOM     20  C   UNL     1      33.162 -21.039 -19.838  0.00  0.00    -0.001 C 
ATOM     21  C   UNL     1      35.556 -19.875 -20.674  0.00  0.00    +0.037 C 
ATOM     22  C   UNL     1      33.142 -19.860 -20.584  0.00  0.00    +0.037 C 
ATOM     23  C   UNL     1      34.338 -19.277 -21.001  0.00  0.00    +0.139 C 
BRANCH  23  24
ATOM     24  O   UNL     1      34.319 -18.127 -21.729  0.00  0.00    -0.471 OA
ATOM     25  C   UNL     1      34.841 -16.955 -21.105  0.00  0.00    +0.252 C 
ENDBRANCH  23  24
ENDBRANCH  17  18
ENDBRANCH   5  17
TORSDOF 6
ENDMDL
MODEL 6
REMARK VINA RESULT:      -9.1      3.581      7.084
REMARK  Name = 5289227
REMARK  6 active torsions:
REMARK  status: ('A' for Active; 'I' for Inactive)
REMARK    1  A    between atoms: N_1  and  C_13
REMARK    2  A    between atoms: C_5  and  C_17
REMARK    3  A    between atoms: C_13  and  C_14
REMARK    4  A    between atoms: C_14  and  C_15
REMARK    5  A    between atoms: C_17  and  C_18
REMARK    6  A    between atoms: C_23  and  O_24
REMARK                            x       y       z     vdW  Elec       q    Type
REMARK                         _______ _______ _______ _____ _____    ______ ____
ROOT
ATOM      1  N   UNL     1      33.181 -23.315 -16.748  0.00  0.00    -0.249 N 
ATOM      2  N   UNL     1      35.385 -23.094 -16.724  0.00  0.00    -0.385 NA
ATOM      3  N   UNL     1      32.642 -22.101 -18.778  0.00  0.00    -0.227 NA
ATOM      4  N   UNL     1      34.662 -21.225 -19.832  0.00  0.00    -0.227 NA
ATOM      5  C   UNL     1      34.342 -23.598 -16.096  0.00  0.00    +0.169 C 
ATOM      6  C   UNL     1      33.483 -22.590 -17.854  0.00  0.00    +0.167 C 
ATOM      7  C   UNL     1      34.863 -22.462 -17.824  0.00  0.00    +0.195 C 
ATOM      8  C   UNL     1      35.451 -21.749 -18.863  0.00  0.00    +0.155 C 
ATOM      9  C   UNL     1      33.326 -21.431 -19.731  0.00  0.00    +0.253 C 
ATOM     10  N   UNL     1      36.844 -21.569 -18.913  0.00  0.00    -0.341 N 
ATOM     11  H   UNL     1      37.249 -21.063 -19.653  0.00  0.00    +0.144 HD
ATOM     12  H   UNL     1      37.415 -21.951 -18.207  0.00  0.00    +0.144 HD
ENDROOT
BRANCH   1  13
ATOM     13  C   UNL     1      31.841 -23.718 -16.334  0.00  0.00    +0.099 C 
BRANCH  13  14
ATOM     14  C   UNL     1      31.283 -22.814 -15.234  0.00  0.00    +0.022 C 
BRANCH  14  15
ATOM     15  C   UNL     1      30.792 -23.633 -14.043  0.00  0.00    +0.002 C 
ATOM     16  C   UNL     1      30.610 -25.097 -14.410  0.00  0.00    +0.000 C 
ENDBRANCH  14  15
ENDBRANCH  13  14
ENDBRANCH   1  13
BRANCH   5  17
ATOM     17  C   UNL     1      34.381 -24.378 -14.843  0.00  0.00    +0.101 C 
BRANCH  17  18
ATOM     18  C   UNL     1      35.768 -24.887 -14.475  0.00  0.00    -0.014 C 
ATOM     19  C   UNL     1      36.226 -26.051 -15.056  0.00  0.00    -0.001 C 
ATOM     20  C   UNL     1      36.524 -24.167 -13.574  0.00  0.00    -0.001 C 
ATOM     21  C   UNL     1      37.496 -26.518 -14.718  0.00  0.00    +0.037 C 
ATOM     22  C   UNL     1      37.795 -24.633 -13.237  0.00  0.00    +0.037 C 
ATOM     23  C   UNL     1      38.281 -25.809 -13.809  0.00  0.00    +0.139 C 
BRANCH  23  24
ATOM     24  O   UNL     1      39.521 -26.263 -13.481  0.00  0.00    -0.471 OA
ATOM     25  C   UNL     1      40.601 -25.873 -14.328  0.00  0.00    +0.252 C 
ENDBRANCH  23  24
ENDBRANCH  17  18
ENDBRANCH   5  17
TORSDOF 6
ENDMDL
MODEL 7
REMARK VINA RESULT:      -8.8      8.477     12.620
REMARK  Name = 5289227
REMARK  6 active torsions:
REMARK  status: ('A' for Active; 'I' for Inactive)
REMARK    1  A    between atoms: N_1  and  C_13
REMARK    2  A    between atoms: C_5  and  C_17
REMARK    3  A    between atoms: C_13  and  C_14
REMARK    4  A    between atoms: C_14  and  C_15
REMARK    5  A    between atoms: C_17  and  C_18
REMARK    6  A    between atoms: C_23  and  O_24
REMARK                            x       y       z     vdW  Elec       q    Type
REMARK                         _______ _______ _______ _____ _____    ______ ____
ROOT
ATOM      1  N   UNL     1      33.499 -11.401 -23.922  0.00  0.00    -0.249 N 
ATOM      2  N   UNL     1      32.140 -10.857 -22.260  0.00  0.00    -0.385 NA
ATOM      3  N   UNL     1      34.636  -9.285 -24.268  0.00  0.00    -0.227 NA
ATOM      4  N   UNL     1      33.817  -7.592 -22.711  0.00  0.00    -0.227 NA
ATOM      5  C   UNL     1      32.529 -11.823 -23.067  0.00  0.00    +0.169 C 
ATOM      6  C   UNL     1      33.753 -10.094 -23.662  0.00  0.00    +0.167 C 
ATOM      7  C   UNL     1      32.897  -9.771 -22.621  0.00  0.00    +0.195 C 
ATOM      8  C   UNL     1      32.949  -8.465 -22.146  0.00  0.00    +0.155 C 
ATOM      9  C   UNL     1      34.595  -8.050 -23.723  0.00  0.00    +0.253 C 
ATOM     10  N   UNL     1      32.116  -8.050 -21.092  0.00  0.00    -0.341 N 
ATOM     11  H   UNL     1      32.162  -7.123 -20.764  0.00  0.00    +0.144 HD
ATOM     12  H   UNL     1      31.486  -8.686 -20.683  0.00  0.00    +0.144 HD
ENDROOT
BRANCH   1  13
ATOM     13  C   UNL     1      34.155 -12.208 -24.946  0.00  0.00    +0.099 C 
BRANCH  13  14
ATOM     14  C   UNL     1      33.545 -11.987 -26.331  0.00  0.00    +0.022 C 
BRANCH  14  15
ATOM     15  C   UNL     1      33.567 -13.273 -27.154  0.00  0.00    +0.002 C 
ATOM     16  C   UNL     1      32.789 -14.386 -26.470  0.00  0.00    +0.000 C 
ENDBRANCH  14  15
ENDBRANCH  13  14
ENDBRANCH   1  13
BRANCH   5  17
ATOM     17  C   UNL     1      32.007 -13.205 -23.076  0.00  0.00    +0.101 C 
BRANCH  17  18
ATOM     18  C   UNL     1      32.908 -14.209 -22.371  0.00  0.00    -0.014 C 
ATOM     19  C   UNL     1      33.007 -14.165 -20.996  0.00  0.00    -0.001 C 
ATOM     20  C   UNL     1      33.596 -15.133 -23.130  0.00  0.00    -0.001 C 
ATOM     21  C   UNL     1      33.833 -15.085 -20.351  0.00  0.00    +0.037 C 
ATOM     22  C   UNL     1      34.423 -16.053 -22.484  0.00  0.00    +0.037 C 
ATOM     23  C   UNL     1      34.542 -16.029 -21.095  0.00  0.00    +0.139 C 
BRANCH  23  24
ATOM     24  O   UNL     1      35.347 -16.927 -20.465  0.00  0.00    -0.471 OA
ATOM     25  C   UNL     1      35.651 -18.132 -21.167  0.00  0.00    +0.252 C 
ENDBRANCH  23  24
ENDBRANCH  17  18
ENDBRANCH   5  17
TORSDOF 6
ENDMDL
MODEL 8
REMARK VINA RESULT:      -8.8      8.276     11.969
REMARK  Name = 5289227
REMARK  6 active torsions:
REMARK  status: ('A' for Active; 'I' for Inactive)
REMARK    1  A    between atoms: N_1  and  C_13
REMARK    2  A    between atoms: C_5  and  C_17
REMARK    3  A    between atoms: C_13  and  C_14
REMARK    4  A    between atoms: C_14  and  C_15
REMARK    5  A    between atoms: C_17  and  C_18
REMARK    6  A    between atoms: C_23  and  O_24
REMARK                            x       y       z     vdW  Elec       q    Type
REMARK                         _______ _______ _______ _____ _____    ______ ____
ROOT
ATOM      1  N   UNL     1      32.449 -10.645 -22.711  0.00  0.00    -0.249 N 
ATOM      2  N   UNL     1      31.723 -11.890 -21.029  0.00  0.00    -0.385 NA
ATOM      3  N   UNL     1      32.573  -8.477 -21.628  0.00  0.00    -0.227 NA
ATOM      4  N   UNL     1      31.878  -8.628 -19.292  0.00  0.00    -0.227 NA
ATOM      5  C   UNL     1      32.083 -11.888 -22.296  0.00  0.00    +0.169 C 
ATOM      6  C   UNL     1      32.320  -9.794 -21.662  0.00  0.00    +0.167 C 
ATOM      7  C   UNL     1      31.866 -10.588 -20.620  0.00  0.00    +0.195 C 
ATOM      8  C   UNL     1      31.644  -9.959 -19.400  0.00  0.00    +0.155 C 
ATOM      9  C   UNL     1      32.321  -7.979 -20.397  0.00  0.00    +0.253 C 
ATOM     10  N   UNL     1      31.185 -10.686 -18.289  0.00  0.00    -0.341 N 
ATOM     11  H   UNL     1      31.031 -10.230 -17.431  0.00  0.00    +0.144 HD
ATOM     12  H   UNL     1      31.015 -11.653 -18.370  0.00  0.00    +0.144 HD
ENDROOT
BRANCH   1  13
ATOM     13  C   UNL     1      32.902 -10.282 -24.050  0.00  0.00    +0.099 C 
BRANCH  13  14
ATOM     14  C   UNL     1      34.428 -10.262 -24.155  0.00  0.00    +0.022 C 
BRANCH  14  15
ATOM     15  C   UNL     1      34.893 -10.760 -25.521  0.00  0.00    +0.002 C 
ATOM     16  C   UNL     1      33.999 -11.874 -26.043  0.00  0.00    +0.000 C 
ENDBRANCH  14  15
ENDBRANCH  13  14
ENDBRANCH   1  13
BRANCH   5  17
ATOM     17  C   UNL     1      32.103 -13.063 -23.191  0.00  0.00    +0.101 C 
BRANCH  17  18
ATOM     18  C   UNL     1      32.960 -14.213 -22.680  0.00  0.00    -0.014 C 
ATOM     19  C   UNL     1      32.573 -14.872 -21.532  0.00  0.00    -0.001 C 
ATOM     20  C   UNL     1      34.095 -14.560 -23.382  0.00  0.00    -0.001 C 
ATOM     21  C   UNL     1      33.358 -15.925 -21.064  0.00  0.00    +0.037 C 
ATOM     22  C   UNL     1      34.880 -15.614 -22.913  0.00  0.00    +0.037 C 
ATOM     23  C   UNL     1      34.512 -16.297 -21.754  0.00  0.00    +0.139 C 
BRANCH  23  24
ATOM     24  O   UNL     1      35.277 -17.325 -21.297  0.00  0.00    -0.471 OA
ATOM     25  C   UNL     1      35.916 -18.144 -22.275  0.00  0.00    +0.252 C 
ENDBRANCH  23  24
ENDBRANCH  17  18
ENDBRANCH   5  17
TORSDOF 6
ENDMDL
MODEL 9
REMARK VINA RESULT:      -8.8      8.703     12.411
REMARK  Name = 5289227
REMARK  6 active torsions:
REMARK  status: ('A' for Active; 'I' for Inactive)
REMARK    1  A    between atoms: N_1  and  C_13
REMARK    2  A    between atoms: C_5  and  C_17
REMARK    3  A    between atoms: C_13  and  C_14
REMARK    4  A    between atoms: C_14  and  C_15
REMARK    5  A    between atoms: C_17  and  C_18
REMARK    6  A    between atoms: C_23  and  O_24
REMARK                            x       y       z     vdW  Elec       q    Type
REMARK                         _______ _______ _______ _____ _____    ______ ____
ROOT
ATOM      1  N   UNL     1      32.187 -11.016 -22.561  0.00  0.00    -0.249 N 
ATOM      2  N   UNL     1      33.710 -11.973 -23.854  0.00  0.00    -0.385 NA
ATOM      3  N   UNL     1      32.776  -8.679 -22.848  0.00  0.00    -0.227 NA
ATOM      4  N   UNL     1      34.682  -8.440 -24.355  0.00  0.00    -0.227 NA
ATOM      5  C   UNL     1      32.687 -12.183 -23.051  0.00  0.00    +0.169 C 
ATOM      6  C   UNL     1      32.922  -9.995 -23.068  0.00  0.00    +0.167 C 
ATOM      7  C   UNL     1      33.868 -10.610 -23.875  0.00  0.00    +0.195 C 
ATOM      8  C   UNL     1      34.770  -9.781 -24.532  0.00  0.00    +0.155 C 
ATOM      9  C   UNL     1      33.704  -7.980 -23.536  0.00  0.00    +0.253 C 
ATOM     10  N   UNL     1      35.762 -10.318 -25.369  0.00  0.00    -0.341 N 
ATOM     11  H   UNL     1      36.395  -9.721 -25.829  0.00  0.00    +0.144 HD
ATOM     12  H   UNL     1      35.824 -11.293 -25.496  0.00  0.00    +0.144 HD
ENDROOT
BRANCH   1  13
ATOM     13  C   UNL     1      31.058 -10.879 -21.646  0.00  0.00    +0.099 C 
BRANCH  13  14
ATOM     14  C   UNL     1      31.311 -11.580 -20.311  0.00  0.00    +0.022 C 
BRANCH  14  15
ATOM     15  C   UNL     1      31.213 -10.599 -19.145  0.00  0.00    +0.002 C 
ATOM     16  C   UNL     1      32.085  -9.374 -19.372  0.00  0.00    +0.000 C 
ENDBRANCH  14  15
ENDBRANCH  13  14
ENDBRANCH   1  13
BRANCH   5  17
ATOM     17  C   UNL     1      32.120 -13.501 -22.700  0.00  0.00    +0.101 C 
BRANCH  17  18
ATOM     18  C   UNL     1      33.148 -14.622 -22.652  0.00  0.00    -0.014 C 
ATOM     19  C   UNL     1      33.533 -15.120 -21.424  0.00  0.00    -0.001 C 
ATOM     20  C   UNL     1      33.662 -15.106 -23.836  0.00  0.00    -0.001 C 
ATOM     21  C   UNL     1      34.476 -16.147 -21.380  0.00  0.00    +0.037 C 
ATOM     22  C   UNL     1      34.605 -16.134 -23.792  0.00  0.00    +0.037 C 
ATOM     23  C   UNL     1      35.012 -16.654 -22.564  0.00  0.00    +0.139 C 
BRANCH  23  24
ATOM     24  O   UNL     1      35.931 -17.657 -22.520  0.00  0.00    -0.471 OA
ATOM     25  C   UNL     1      35.464 -18.978 -22.788  0.00  0.00    +0.252 C 
ENDBRANCH  23  24
ENDBRANCH  17  18
ENDBRANCH   5  17
TORSDOF 6
ENDMDL
