MODEL 1
REMARK VINA RESULT:      -9.0      0.000      0.000
REMARK  Name = 11703255
REMARK  6 active torsions:
REMARK  status: ('A' for Active; 'I' for Inactive)
REMARK    1  A    between atoms: S_1  and  C_4
REMARK    2  A    between atoms: S_1  and  N_15
REMARK    3  A    between atoms: C_7  and  C_11
REMARK    4  A    between atoms: C_11  and  O_12
REMARK    5  A    between atoms: O_12  and  C_13
REMARK    6  A    between atoms: N_15  and  C_19
REMARK                            x       y       z     vdW  Elec       q    Type
REMARK                         _______ _______ _______ _____ _____    ______ ____
ROOT
ATOM      1  S   UNL     1      34.453 -16.269 -21.449  0.00  0.00    +0.056 S 
ATOM      2  O   UNL     1      35.093 -16.004 -20.173  0.00  0.00    -0.154 OA
ATOM      3  O   UNL     1      33.164 -16.932 -21.499  0.00  0.00    -0.154 OA
ENDROOT
BRANCH   1   4
ATOM      4  C   UNL     1      35.597 -17.218 -22.418  0.00  0.00    +0.177 C 
ATOM      5  C   UNL     1      35.613 -16.746 -23.877  0.00  0.00    +0.031 C 
ATOM      6  C   UNL     1      34.412 -17.272 -24.663  0.00  0.00    +0.007 C 
ATOM      7  C   UNL     1      35.200 -18.657 -22.274  0.00  0.00    +0.073 C 
ATOM      8  C   UNL     1      34.322 -18.799 -24.607  0.00  0.00    +0.026 C 
ATOM      9  C   UNL     1      34.640 -19.375 -23.257  0.00  0.00    -0.022 C 
BRANCH   7  11
ATOM     10  O   UNL     1      36.524 -19.193 -20.383  0.00  0.00    -0.245 OA
ATOM     11  C   UNL     1      35.499 -19.361 -21.022  0.00  0.00    +0.339 C 
BRANCH  11  12
ATOM     12  O   UNL     1      34.465 -20.190 -20.734  0.00  0.00    -0.446 OA
BRANCH  12  13
ATOM     13  C   UNL     1      34.766 -21.249 -19.819  0.00  0.00    +0.209 C 
ATOM     14  C   UNL     1      33.478 -21.750 -19.203  0.00  0.00    +0.051 C 
ENDBRANCH  12  13
ENDBRANCH  11  12
ENDBRANCH   7  11
ENDBRANCH   1   4
BRANCH   1  15
ATOM     15  N   UNL     1      34.428 -14.804 -22.346  0.00  0.00    -0.218 N 
ATOM     16  H   UNL     1      35.087 -14.632 -23.057  0.00  0.00    +0.173 HD
BRANCH  15  19
ATOM     17 CL   UNL     1      33.625 -12.868 -24.566  0.00  0.00    -0.081 Cl
ATOM     18  F   UNL     1      30.502 -11.101 -21.006  0.00  0.00    -0.204 F 
ATOM     19  C   UNL     1      33.413 -13.835 -22.024  0.00  0.00    +0.075 C 
ATOM     20  C   UNL     1      32.977 -12.910 -22.966  0.00  0.00    +0.074 C 
ATOM     21  C   UNL     1      32.876 -13.846 -20.740  0.00  0.00    +0.019 C 
ATOM     22  C   UNL     1      31.992 -11.984 -22.621  0.00  0.00    +0.042 C 
ATOM     23  C   UNL     1      31.890 -12.921 -20.395  0.00  0.00    +0.031 C 
ATOM     24  C   UNL     1      31.449 -11.989 -21.335  0.00  0.00    +0.141 C 
ENDBRANCH  15  19
ENDBRANCH   1  15
TORSDOF 6
ENDMDL
MODEL 2
REMARK VINA RESULT:      -8.7      2.185      3.107
REMARK  Name = 11703255
REMARK  6 active torsions:
REMARK  status: ('A' for Active; 'I' for Inactive)
REMARK    1  A    between atoms: S_1  and  C_4
REMARK    2  A    between atoms: S_1  and  N_15
REMARK    3  A    between atoms: C_7  and  C_11
REMARK    4  A    between atoms: C_11  and  O_12
REMARK    5  A    between atoms: O_12  and  C_13
REMARK    6  A    between atoms: N_15  and  C_19
REMARK                            x       y       z     vdW  Elec       q    Type
REMARK                         _______ _______ _______ _____ _____    ______ ____
ROOT
ATOM      1  S   UNL     1      32.668 -14.107 -21.598  0.00  0.00    +0.056 S 
ATOM      2  O   UNL     1      33.098 -13.713 -20.269  0.00  0.00    -0.154 OA
ATOM      3  O   UNL     1      31.916 -15.333 -21.792  0.00  0.00    -0.154 OA
ENDROOT
BRANCH   1   4
ATOM      4  C   UNL     1      34.122 -14.189 -22.612  0.00  0.00    +0.177 C 
ATOM      5  C   UNL     1      33.909 -13.463 -23.946  0.00  0.00    +0.031 C 
ATOM      6  C   UNL     1      33.097 -14.303 -24.932  0.00  0.00    +0.007 C 
ATOM      7  C   UNL     1      34.452 -15.641 -22.783  0.00  0.00    +0.073 C 
ATOM      8  C   UNL     1      33.738 -15.671 -25.177  0.00  0.00    +0.026 C 
ATOM      9  C   UNL     1      34.294 -16.308 -23.936  0.00  0.00    -0.022 C 
BRANCH   7  11
ATOM     10  O   UNL     1      35.052 -15.972 -20.515  0.00  0.00    -0.245 OA
ATOM     11  C   UNL     1      35.052 -16.377 -21.665  0.00  0.00    +0.339 C 
BRANCH  11  12
ATOM     12  O   UNL     1      35.576 -17.535 -22.140  0.00  0.00    -0.446 OA
BRANCH  12  13
ATOM     13  C   UNL     1      35.576 -18.630 -21.219  0.00  0.00    +0.209 C 
ATOM     14  C   UNL     1      34.233 -19.324 -21.277  0.00  0.00    +0.051 C 
ENDBRANCH  12  13
ENDBRANCH  11  12
ENDBRANCH   7  11
ENDBRANCH   1   4
BRANCH   1  15
ATOM     15  N   UNL     1      31.864 -12.769 -22.316  0.00  0.00    -0.218 N 
ATOM     16  H   UNL     1      31.442 -12.846 -23.201  0.00  0.00    +0.173 HD
BRANCH  15  19
ATOM     17 CL   UNL     1      32.892 -10.282 -23.757  0.00  0.00    -0.081 Cl
ATOM     18  F   UNL     1      31.685  -8.045 -19.389  0.00  0.00    -0.204 F 
ATOM     19  C   UNL     1      31.828 -11.533 -21.579  0.00  0.00    +0.075 C 
ATOM     20  C   UNL     1      32.273 -10.344 -22.147  0.00  0.00    +0.074 C 
ATOM     21  C   UNL     1      31.335 -11.556 -20.278  0.00  0.00    +0.019 C 
ATOM     22  C   UNL     1      32.225  -9.163 -21.405  0.00  0.00    +0.042 C 
ATOM     23  C   UNL     1      31.287 -10.375 -19.537  0.00  0.00    +0.031 C 
ATOM     24  C   UNL     1      31.732  -9.179 -20.100  0.00  0.00    +0.141 C 
ENDBRANCH  15  19
ENDBRANCH   1  15
TORSDOF 6
ENDMDL
MODEL 3
REMARK VINA RESULT:      -8.5      8.780     12.089
REMARK  Name = 11703255
REMARK  6 active torsions:
REMARK  status: ('A' for Active; 'I' for Inactive)
REMARK    1  A    between atoms: S_1  and  C_4
REMARK    2  A    between atoms: S_1  and  N_15
REMARK    3  A    between atoms: C_7  and  C_11
REMARK    4  A    between atoms: C_11  and  O_12
REMARK    5  A    between atoms: O_12  and  C_13
REMARK    6  A    between atoms: N_15  and  C_19
REMARK                            x       y       z     vdW  Elec       q    Type
REMARK                         _______ _______ _______ _____ _____    ______ ____
ROOT
ATOM      1  S   UNL     1      34.148 -24.070 -14.021  0.00  0.00    +0.056 S 
ATOM      2  O   UNL     1      34.356 -25.138 -14.982  0.00  0.00    -0.154 OA
ATOM      3  O   UNL     1      33.600 -24.359 -12.709  0.00  0.00    -0.154 OA
ENDROOT
BRANCH   1   4
ATOM      4  C   UNL     1      33.101 -22.867 -14.801  0.00  0.00    +0.177 C 
ATOM      5  C   UNL     1      31.769 -22.724 -14.054  0.00  0.00    +0.031 C 
ATOM      6  C   UNL     1      30.805 -23.866 -14.377  0.00  0.00    +0.007 C 
ATOM      7  C   UNL     1      32.928 -23.299 -16.226  0.00  0.00    +0.073 C 
ATOM      8  C   UNL     1      30.552 -23.986 -15.882  0.00  0.00    +0.026 C 
ATOM      9  C   UNL     1      31.783 -23.789 -16.720  0.00  0.00    -0.022 C 
BRANCH   7  11
ATOM     10  O   UNL     1      35.144 -22.723 -16.842  0.00  0.00    -0.245 OA
ATOM     11  C   UNL     1      34.036 -23.114 -17.170  0.00  0.00    +0.339 C 
BRANCH  11  12
ATOM     12  O   UNL     1      33.606 -23.449 -18.412  0.00  0.00    -0.446 OA
BRANCH  12  13
ATOM     13  C   UNL     1      34.132 -22.651 -19.477  0.00  0.00    +0.209 C 
ATOM     14  C   UNL     1      33.371 -21.345 -19.538  0.00  0.00    +0.051 C 
ENDBRANCH  12  13
ENDBRANCH  11  12
ENDBRANCH   7  11
ENDBRANCH   1   4
BRANCH   1  15
ATOM     15  N   UNL     1      35.609 -23.175 -13.896  0.00  0.00    -0.218 N 
ATOM     16  H   UNL     1      35.604 -22.191 -13.903  0.00  0.00    +0.173 HD
BRANCH  15  19
ATOM     17 CL   UNL     1      36.491 -23.942 -11.076  0.00  0.00    -0.081 Cl
ATOM     18  F   UNL     1      40.377 -26.015 -13.555  0.00  0.00    -0.204 F 
ATOM     19  C   UNL     1      36.840 -23.911 -13.781  0.00  0.00    +0.075 C 
ATOM     20  C   UNL     1      37.328 -24.308 -12.541  0.00  0.00    +0.074 C 
ATOM     21  C   UNL     1      37.536 -24.218 -14.947  0.00  0.00    +0.019 C 
ATOM     22  C   UNL     1      38.526 -25.020 -12.465  0.00  0.00    +0.042 C 
ATOM     23  C   UNL     1      38.733 -24.930 -14.870  0.00  0.00    +0.031 C 
ATOM     24  C   UNL     1      39.228 -25.330 -13.630  0.00  0.00    +0.141 C 
ENDBRANCH  15  19
ENDBRANCH   1  15
TORSDOF 6
ENDMDL
MODEL 4
REMARK VINA RESULT:      -8.5      8.282     10.921
REMARK  Name = 11703255
REMARK  6 active torsions:
REMARK  status: ('A' for Active; 'I' for Inactive)
REMARK    1  A    between atoms: S_1  and  C_4
REMARK    2  A    between atoms: S_1  and  N_15
REMARK    3  A    between atoms: C_7  and  C_11
REMARK    4  A    between atoms: C_11  and  O_12
REMARK    5  A    between atoms: O_12  and  C_13
REMARK    6  A    between atoms: N_15  and  C_19
REMARK                            x       y       z     vdW  Elec       q    Type
REMARK                         _______ _______ _______ _____ _____    ______ ____
ROOT
ATOM      1  S   UNL     1      35.139 -23.883 -13.833  0.00  0.00    +0.056 S 
ATOM      2  O   UNL     1      36.134 -23.105 -13.117  0.00  0.00    -0.154 OA
ATOM      3  O   UNL     1      34.380 -24.913 -13.148  0.00  0.00    -0.154 OA
ENDROOT
BRANCH   1   4
ATOM      4  C   UNL     1      35.962 -24.635 -15.214  0.00  0.00    +0.177 C 
ATOM      5  C   UNL     1      36.188 -26.133 -14.975  0.00  0.00    +0.031 C 
ATOM      6  C   UNL     1      37.374 -26.393 -14.046  0.00  0.00    +0.007 C 
ATOM      7  C   UNL     1      37.238 -23.877 -15.425  0.00  0.00    +0.073 C 
ATOM      8  C   UNL     1      38.659 -25.745 -14.569  0.00  0.00    +0.026 C 
ATOM      9  C   UNL     1      38.452 -24.376 -15.150  0.00  0.00    -0.022 C 
BRANCH   7  11
ATOM     10  O   UNL     1      37.829 -21.591 -15.625  0.00  0.00    -0.245 OA
ATOM     11  C   UNL     1      37.188 -22.545 -16.035  0.00  0.00    +0.339 C 
BRANCH  11  12
ATOM     12  O   UNL     1      36.334 -22.582 -17.088  0.00  0.00    -0.446 OA
BRANCH  12  13
ATOM     13  C   UNL     1      36.651 -21.693 -18.165  0.00  0.00    +0.209 C 
ATOM     14  C   UNL     1      35.571 -21.793 -19.220  0.00  0.00    +0.051 C 
ENDBRANCH  12  13
ENDBRANCH  11  12
ENDBRANCH   7  11
ENDBRANCH   1   4
BRANCH   1  15
ATOM     15  N   UNL     1      34.097 -22.789 -14.650  0.00  0.00    -0.218 N 
ATOM     16  H   UNL     1      34.437 -21.944 -15.020  0.00  0.00    +0.173 HD
BRANCH  15  19
ATOM     17 CL   UNL     1      33.085 -23.382 -17.470  0.00  0.00    -0.081 Cl
ATOM     18  F   UNL     1      28.725 -24.173 -15.038  0.00  0.00    -0.204 F 
ATOM     19  C   UNL     1      32.709 -23.151 -14.777  0.00  0.00    +0.075 C 
ATOM     20  C   UNL     1      32.151 -23.440 -16.018  0.00  0.00    +0.074 C 
ATOM     21  C   UNL     1      31.934 -23.203 -13.623  0.00  0.00    +0.019 C 
ATOM     22  C   UNL     1      30.803 -23.785 -16.106  0.00  0.00    +0.042 C 
ATOM     23  C   UNL     1      30.585 -23.549 -13.711  0.00  0.00    +0.031 C 
ATOM     24  C   UNL     1      30.020 -23.839 -14.953  0.00  0.00    +0.141 C 
ENDBRANCH  15  19
ENDBRANCH   1  15
TORSDOF 6
ENDMDL
MODEL 5
REMARK VINA RESULT:      -8.2      3.282      4.677
REMARK  Name = 11703255
REMARK  6 active torsions:
REMARK  status: ('A' for Active; 'I' for Inactive)
REMARK    1  A    between atoms: S_1  and  C_4
REMARK    2  A    between atoms: S_1  and  N_15
REMARK    3  A    between atoms: C_7  and  C_11
REMARK    4  A    between atoms: C_11  and  O_12
REMARK    5  A    between atoms: O_12  and  C_13
REMARK    6  A    between atoms: N_15  and  C_19
REMARK                            x       y       z     vdW  Elec       q    Type
REMARK                         _______ _______ _______ _____ _____    ______ ____
ROOT
ATOM      1  S   UNL     1      32.904 -13.211 -23.400  0.00  0.00    +0.056 S 
ATOM      2  O   UNL     1      32.437 -13.191 -24.774  0.00  0.00    -0.154 OA
ATOM      3  O   UNL     1      34.254 -12.788 -23.078  0.00  0.00    -0.154 OA
ENDROOT
BRANCH   1   4
ATOM      4  C   UNL     1      32.690 -14.868 -22.802  0.00  0.00    +0.177 C 
ATOM      5  C   UNL     1      32.374 -14.879 -21.301  0.00  0.00    +0.031 C 
ATOM      6  C   UNL     1      33.626 -14.666 -20.450  0.00  0.00    +0.007 C 
ATOM      7  C   UNL     1      33.943 -15.618 -23.140  0.00  0.00    +0.073 C 
ATOM      8  C   UNL     1      34.710 -15.699 -20.765  0.00  0.00    +0.026 C 
ATOM      9  C   UNL     1      34.847 -16.006 -22.228  0.00  0.00    -0.022 C 
BRANCH   7  11
ATOM     10  O   UNL     1      33.650 -15.495 -25.489  0.00  0.00    -0.245 OA
ATOM     11  C   UNL     1      34.180 -16.028 -24.528  0.00  0.00    +0.339 C 
BRANCH  11  12
ATOM     12  O   UNL     1      35.059 -17.062 -24.530  0.00  0.00    -0.446 OA
BRANCH  12  13
ATOM     13  C   UNL     1      34.520 -18.323 -24.939  0.00  0.00    +0.209 C 
ATOM     14  C   UNL     1      34.874 -19.369 -23.905  0.00  0.00    +0.051 C 
ENDBRANCH  12  13
ENDBRANCH  11  12
ENDBRANCH   7  11
ENDBRANCH   1   4
BRANCH   1  15
ATOM     15  N   UNL     1      31.751 -12.381 -22.434  0.00  0.00    -0.218 N 
ATOM     16  H   UNL     1      30.958 -12.844 -22.079  0.00  0.00    +0.173 HD
BRANCH  15  19
ATOM     17 CL   UNL     1      31.438 -11.482 -19.533  0.00  0.00    -0.081 Cl
ATOM     18  F   UNL     1      32.662  -6.980 -21.477  0.00  0.00    -0.204 F 
ATOM     19  C   UNL     1      31.982 -10.988 -22.160  0.00  0.00    +0.075 C 
ATOM     20  C   UNL     1      31.865 -10.478 -20.871  0.00  0.00    +0.074 C 
ATOM     21  C   UNL     1      32.326 -10.156 -23.221  0.00  0.00    +0.019 C 
ATOM     22  C   UNL     1      32.095  -9.122 -20.640  0.00  0.00    +0.042 C 
ATOM     23  C   UNL     1      32.556  -8.799 -22.990  0.00  0.00    +0.031 C 
ATOM     24  C   UNL     1      32.440  -8.282 -21.700  0.00  0.00    +0.141 C 
ENDBRANCH  15  19
ENDBRANCH   1  15
TORSDOF 6
ENDMDL
MODEL 6
REMARK VINA RESULT:      -8.1      8.136     11.105
REMARK  Name = 11703255
REMARK  6 active torsions:
REMARK  status: ('A' for Active; 'I' for Inactive)
REMARK    1  A    between atoms: S_1  and  C_4
REMARK    2  A    between atoms: S_1  and  N_15
REMARK    3  A    between atoms: C_7  and  C_11
REMARK    4  A    between atoms: C_11  and  O_12
REMARK    5  A    between atoms: O_12  and  C_13
REMARK    6  A    between atoms: N_15  and  C_19
REMARK                            x       y       z     vdW  Elec       q    Type
REMARK                         _______ _______ _______ _____ _____    ______ ____
ROOT
ATOM      1  S   UNL     1      36.908 -23.492 -14.943  0.00  0.00    +0.056 S 
ATOM      2  O   UNL     1      37.641 -24.018 -16.081  0.00  0.00    -0.154 OA
ATOM      3  O   UNL     1      37.607 -22.804 -13.875  0.00  0.00    -0.154 OA
ENDROOT
BRANCH   1   4
ATOM      4  C   UNL     1      36.014 -24.849 -14.230  0.00  0.00    +0.177 C 
ATOM      5  C   UNL     1      34.732 -24.366 -13.540  0.00  0.00    +0.031 C 
ATOM      6  C   UNL     1      35.015 -23.749 -12.170  0.00  0.00    +0.007 C 
ATOM      7  C   UNL     1      36.954 -25.546 -13.293  0.00  0.00    +0.073 C 
ATOM      8  C   UNL     1      35.769 -24.719 -11.256  0.00  0.00    +0.026 C 
ATOM      9  C   UNL     1      36.840 -25.502 -11.958  0.00  0.00    -0.022 C 
BRANCH   7  11
ATOM     10  O   UNL     1      37.828 -27.260 -14.676  0.00  0.00    -0.245 OA
ATOM     11  C   UNL     1      38.019 -26.390 -13.843  0.00  0.00    +0.339 C 
BRANCH  11  12
ATOM     12  O   UNL     1      39.197 -26.028 -13.273  0.00  0.00    -0.446 OA
BRANCH  12  13
ATOM     13  C   UNL     1      40.355 -26.207 -14.095  0.00  0.00    +0.209 C 
ATOM     14  C   UNL     1      40.509 -25.003 -14.998  0.00  0.00    +0.051 C 
ENDBRANCH  12  13
ENDBRANCH  11  12
ENDBRANCH   7  11
ENDBRANCH   1   4
BRANCH   1  15
ATOM     15  N   UNL     1      35.607 -22.544 -15.542  0.00  0.00    -0.218 N 
ATOM     16  H   UNL     1      34.894 -22.225 -14.944  0.00  0.00    +0.173 HD
BRANCH  15  19
ATOM     17 CL   UNL     1      33.125 -23.376 -17.113  0.00  0.00    -0.081 Cl
ATOM     18  F   UNL     1      35.655 -21.289 -20.959  0.00  0.00    -0.204 F 
ATOM     19  C   UNL     1      35.595 -22.230 -16.946  0.00  0.00    +0.075 C 
ATOM     20  C   UNL     1      34.511 -22.566 -17.750  0.00  0.00    +0.074 C 
ATOM     21  C   UNL     1      36.700 -21.578 -17.486  0.00  0.00    +0.019 C 
ATOM     22  C   UNL     1      34.532 -22.248 -19.108  0.00  0.00    +0.042 C 
ATOM     23  C   UNL     1      36.721 -21.260 -18.844  0.00  0.00    +0.031 C 
ATOM     24  C   UNL     1      35.637 -21.596 -19.655  0.00  0.00    +0.141 C 
ENDBRANCH  15  19
ENDBRANCH   1  15
TORSDOF 6
ENDMDL
MODEL 7
REMARK VINA RESULT:      -8.1      4.029      7.110
REMARK  Name = 11703255
REMARK  6 active torsions:
REMARK  status: ('A' for Active; 'I' for Inactive)
REMARK    1  A    between atoms: S_1  and  C_4
REMARK    2  A    between atoms: S_1  and  N_15
REMARK    3  A    between atoms: C_7  and  C_11
REMARK    4  A    between atoms: C_11  and  O_12
REMARK    5  A    between atoms: O_12  and  C_13
REMARK    6  A    between atoms: N_15  and  C_19
REMARK                            x       y       z     vdW  Elec       q    Type
REMARK                         _______ _______ _______ _____ _____    ______ ____
ROOT
ATOM      1  S   UNL     1      34.908 -17.907 -22.771  0.00  0.00    +0.056 S 
ATOM      2  O   UNL     1      36.140 -18.452 -23.314  0.00  0.00    -0.154 OA
ATOM      3  O   UNL     1      33.627 -18.279 -23.342  0.00  0.00    -0.154 OA
ENDROOT
BRANCH   1   4
ATOM      4  C   UNL     1      35.048 -16.140 -22.840  0.00  0.00    +0.177 C 
ATOM      5  C   UNL     1      35.017 -15.526 -21.435  0.00  0.00    +0.031 C 
ATOM      6  C   UNL     1      33.597 -15.456 -20.871  0.00  0.00    +0.007 C 
ATOM      7  C   UNL     1      33.935 -15.649 -23.716  0.00  0.00    +0.073 C 
ATOM      8  C   UNL     1      32.655 -14.686 -21.800  0.00  0.00    +0.026 C 
ATOM      9  C   UNL     1      32.865 -14.984 -23.256  0.00  0.00    -0.022 C 
BRANCH   7  11
ATOM     10  O   UNL     1      34.920 -16.468 -25.710  0.00  0.00    -0.245 OA
ATOM     11  C   UNL     1      34.034 -15.827 -25.169  0.00  0.00    +0.339 C 
BRANCH  11  12
ATOM     12  O   UNL     1      33.001 -15.173 -25.757  0.00  0.00    -0.446 OA
BRANCH  12  13
ATOM     13  C   UNL     1      33.347 -14.383 -26.899  0.00  0.00    +0.209 C 
ATOM     14  C   UNL     1      33.384 -12.925 -26.497  0.00  0.00    +0.051 C 
ENDBRANCH  12  13
ENDBRANCH  11  12
ENDBRANCH   7  11
ENDBRANCH   1   4
BRANCH   1  15
ATOM     15  N   UNL     1      34.922 -18.154 -21.071  0.00  0.00    -0.218 N 
ATOM     16  H   UNL     1      35.095 -17.409 -20.451  0.00  0.00    +0.173 HD
BRANCH  15  19
ATOM     17 CL   UNL     1      37.367 -19.863 -20.421  0.00  0.00    -0.081 Cl
ATOM     18  F   UNL     1      33.847 -23.275 -19.193  0.00  0.00    -0.204 F 
ATOM     19  C   UNL     1      34.670 -19.484 -20.583  0.00  0.00    +0.075 C 
ATOM     20  C   UNL     1      35.716 -20.341 -20.258  0.00  0.00    +0.074 C 
ATOM     21  C   UNL     1      33.348 -19.895 -20.443  0.00  0.00    +0.019 C 
ATOM     22  C   UNL     1      35.437 -21.625 -19.787  0.00  0.00    +0.042 C 
ATOM     23  C   UNL     1      33.069 -21.179 -19.973  0.00  0.00    +0.031 C 
ATOM     24  C   UNL     1      34.114 -22.043 -19.646  0.00  0.00    +0.141 C 
ENDBRANCH  15  19
ENDBRANCH   1  15
TORSDOF 6
ENDMDL
MODEL 8
REMARK VINA RESULT:      -8.1      1.663      2.107
REMARK  Name = 11703255
REMARK  6 active torsions:
REMARK  status: ('A' for Active; 'I' for Inactive)
REMARK    1  A    between atoms: S_1  and  C_4
REMARK    2  A    between atoms: S_1  and  N_15
REMARK    3  A    between atoms: C_7  and  C_11
REMARK    4  A    between atoms: C_11  and  O_12
REMARK    5  A    between atoms: O_12  and  C_13
REMARK    6  A    between atoms: N_15  and  C_19
REMARK                            x       y       z     vdW  Elec       q    Type
REMARK                         _______ _______ _______ _____ _____    ______ ____
ROOT
ATOM      1  S   UNL     1      34.148 -15.836 -22.038  0.00  0.00    +0.056 S 
ATOM      2  O   UNL     1      34.849 -14.765 -21.353  0.00  0.00    -0.154 OA
ATOM      3  O   UNL     1      33.334 -16.775 -21.290  0.00  0.00    -0.154 OA
ENDROOT
BRANCH   1   4
ATOM      4  C   UNL     1      35.365 -16.761 -22.939  0.00  0.00    +0.177 C 
ATOM      5  C   UNL     1      35.326 -16.419 -24.434  0.00  0.00    +0.031 C 
ATOM      6  C   UNL     1      34.172 -17.117 -25.152  0.00  0.00    +0.007 C 
ATOM      7  C   UNL     1      35.101 -18.211 -22.665  0.00  0.00    +0.073 C 
ATOM      8  C   UNL     1      34.220 -18.635 -24.963  0.00  0.00    +0.026 C 
ATOM      9  C   UNL     1      34.600 -19.060 -23.574  0.00  0.00    -0.022 C 
BRANCH   7  11
ATOM     10  O   UNL     1      36.028 -18.133 -20.485  0.00  0.00    -0.245 OA
ATOM     11  C   UNL     1      35.473 -18.773 -21.363  0.00  0.00    +0.339 C 
BRANCH  11  12
ATOM     12  O   UNL     1      35.096 -20.076 -21.330  0.00  0.00    -0.446 OA
BRANCH  12  13
ATOM     13  C   UNL     1      34.378 -20.476 -20.158  0.00  0.00    +0.209 C 
ATOM     14  C   UNL     1      32.899 -20.255 -20.387  0.00  0.00    +0.051 C 
ENDBRANCH  12  13
ENDBRANCH  11  12
ENDBRANCH   7  11
ENDBRANCH   1   4
BRANCH   1  15
ATOM     15  N   UNL     1      33.259 -15.146 -23.336  0.00  0.00    -0.218 N 
ATOM     16  H   UNL     1      32.777 -15.713 -23.979  0.00  0.00    +0.173 HD
BRANCH  15  19
ATOM     17 CL   UNL     1      31.789 -13.610 -21.144  0.00  0.00    -0.081 Cl
ATOM     18  F   UNL     1      33.249  -9.611 -23.869  0.00  0.00    -0.204 F 
ATOM     19  C   UNL     1      33.242 -13.711 -23.451  0.00  0.00    +0.075 C 
ATOM     20  C   UNL     1      32.600 -12.921 -22.504  0.00  0.00    +0.074 C 
ATOM     21  C   UNL     1      33.887 -13.130 -24.539  0.00  0.00    +0.019 C 
ATOM     22  C   UNL     1      32.602 -11.533 -22.646  0.00  0.00    +0.042 C 
ATOM     23  C   UNL     1      33.889 -11.742 -24.681  0.00  0.00    +0.031 C 
ATOM     24  C   UNL     1      33.246 -10.944 -23.735  0.00  0.00    +0.141 C 
ENDBRANCH  15  19
ENDBRANCH   1  15
TORSDOF 6
ENDMDL
MODEL 9
REMARK VINA RESULT:      -8.1      3.735      6.879
REMARK  Name = 11703255
REMARK  6 active torsions:
REMARK  status: ('A' for Active; 'I' for Inactive)
REMARK    1  A    between atoms: S_1  and  C_4
REMARK    2  A    between atoms: S_1  and  N_15
REMARK    3  A    between atoms: C_7  and  C_11
REMARK    4  A    between atoms: C_11  and  O_12
REMARK    5  A    between atoms: O_12  and  C_13
REMARK    6  A    between atoms: N_15  and  C_19
REMARK                            x       y       z     vdW  Elec       q    Type
REMARK                         _______ _______ _______ _____ _____    ______ ____
ROOT
ATOM      1  S   UNL     1      35.668 -18.257 -21.722  0.00  0.00    +0.056 S 
ATOM      2  O   UNL     1      35.527 -17.854 -20.334  0.00  0.00    -0.154 OA
ATOM      3  O   UNL     1      36.807 -17.813 -22.503  0.00  0.00    -0.154 OA
ENDROOT
BRANCH   1   4
ATOM      4  C   UNL     1      34.192 -17.747 -22.564  0.00  0.00    +0.177 C 
ATOM      5  C   UNL     1      33.979 -18.555 -23.850  0.00  0.00    +0.031 C 
ATOM      6  C   UNL     1      34.874 -18.066 -24.989  0.00  0.00    +0.007 C 
ATOM      7  C   UNL     1      34.321 -16.274 -22.814  0.00  0.00    +0.073 C 
ATOM      8  C   UNL     1      34.674 -16.574 -25.268  0.00  0.00    +0.026 C 
ATOM      9  C   UNL     1      34.523 -15.742 -24.028  0.00  0.00    -0.022 C 
BRANCH   7  11
ATOM     10  O   UNL     1      35.071 -14.858 -21.068  0.00  0.00    -0.245 OA
ATOM     11  C   UNL     1      34.143 -15.339 -21.698  0.00  0.00    +0.339 C 
BRANCH  11  12
ATOM     12  O   UNL     1      32.815 -15.127 -21.517  0.00  0.00    -0.446 OA
BRANCH  12  13
ATOM     13  C   UNL     1      32.435 -13.762 -21.321  0.00  0.00    +0.209 C 
ATOM     14  C   UNL     1      32.287 -13.093 -22.670  0.00  0.00    +0.051 C 
ENDBRANCH  12  13
ENDBRANCH  11  12
ENDBRANCH   7  11
ENDBRANCH   1   4
BRANCH   1  15
ATOM     15  N   UNL     1      35.494 -19.965 -21.799  0.00  0.00    -0.218 N 
ATOM     16  H   UNL     1      35.486 -20.436 -22.663  0.00  0.00    +0.173 HD
BRANCH  15  19
ATOM     17 CL   UNL     1      32.653 -20.486 -20.811  0.00  0.00    -0.081 Cl
ATOM     18  F   UNL     1      35.087 -22.747 -17.003  0.00  0.00    -0.204 F 
ATOM     19  C   UNL     1      35.362 -20.684 -20.560  0.00  0.00    +0.075 C 
ATOM     20  C   UNL     1      34.111 -20.972 -20.025  0.00  0.00    +0.074 C 
ATOM     21  C   UNL     1      36.522 -21.086 -19.904  0.00  0.00    +0.019 C 
ATOM     22  C   UNL     1      34.018 -21.670 -18.820  0.00  0.00    +0.042 C 
ATOM     23  C   UNL     1      36.429 -21.784 -18.700  0.00  0.00    +0.031 C 
ATOM     24  C   UNL     1      35.178 -22.076 -18.158  0.00  0.00    +0.141 C 
ENDBRANCH  15  19
ENDBRANCH   1  15
TORSDOF 6
ENDMDL
