MODEL 1
REMARK VINA RESULT:      -6.6      0.000      0.000
REMARK  Name = 448431
REMARK  4 active torsions:
REMARK  status: ('A' for Active; 'I' for Inactive)
REMARK    1  A    between atoms: C_2  and  O_7
REMARK    2  A    between atoms: C_4  and  O_9
REMARK    3  A    between atoms: C_5  and  C_12
REMARK    4  A    between atoms: C_12  and  O_13
REMARK                            x       y       z     vdW  Elec       q    Type
REMARK                         _______ _______ _______ _____ _____    ______ ____
ROOT
ATOM      1  O   UNL     1      38.281 -26.793 -14.099  0.00  0.00    -0.342 OA
ATOM      2  C   UNL     1      37.775 -24.399 -12.578  0.00  0.00    +0.143 C 
ATOM      3  C   UNL     1      39.155 -24.746 -13.134  0.00  0.00    +0.073 C 
ATOM      4  C   UNL     1      36.932 -25.666 -12.415  0.00  0.00    +0.167 C 
ATOM      5  C   UNL     1      39.028 -25.613 -14.379  0.00  0.00    +0.216 C 
ATOM      6  C   UNL     1      36.948 -26.494 -13.694  0.00  0.00    +0.174 C 
ENDROOT
BRANCH   2   7
ATOM      7  O   UNL     1      37.950 -23.761 -11.317  0.00  0.00    -0.382 OA
ATOM      8  H   UNL     1      37.853 -24.414 -10.607  0.00  0.00    +0.210 HD
ENDBRANCH   2   7
BRANCH   4   9
ATOM      9  O   UNL     1      35.583 -25.324 -12.118  0.00  0.00    -0.379 OA
ATOM     10  H   UNL     1      35.542 -24.406 -11.812  0.00  0.00    +0.211 HD
ENDBRANCH   4   9
BRANCH   5  12
ATOM     11  O   UNL     1      41.211 -26.593 -14.081  0.00  0.00    -0.248 OA
ATOM     12  C   UNL     1      40.364 -26.111 -14.819  0.00  0.00    +0.341 C 
BRANCH  12  13
ATOM     13  O   UNL     1      40.517 -25.956 -16.157  0.00  0.00    -0.479 OA
ATOM     14  H   UNL     1      41.092 -25.295 -16.488  0.00  0.00    +0.295 HD
ENDBRANCH  12  13
ENDBRANCH   5  12
TORSDOF 4
ENDMDL
MODEL 2
REMARK VINA RESULT:      -6.5      1.407      2.226
REMARK  Name = 448431
REMARK  4 active torsions:
REMARK  status: ('A' for Active; 'I' for Inactive)
REMARK    1  A    between atoms: C_2  and  O_7
REMARK    2  A    between atoms: C_4  and  O_9
REMARK    3  A    between atoms: C_5  and  C_12
REMARK    4  A    between atoms: C_12  and  O_13
REMARK                            x       y       z     vdW  Elec       q    Type
REMARK                         _______ _______ _______ _____ _____    ______ ____
ROOT
ATOM      1  O   UNL     1      39.009 -24.547 -13.140  0.00  0.00    -0.342 OA
ATOM      2  C   UNL     1      36.732 -26.099 -13.981  0.00  0.00    +0.143 C 
ATOM      3  C   UNL     1      37.957 -25.885 -14.868  0.00  0.00    +0.073 C 
ATOM      4  C   UNL     1      36.621 -24.977 -12.946  0.00  0.00    +0.167 C 
ATOM      5  C   UNL     1      39.199 -25.652 -14.019  0.00  0.00    +0.216 C 
ATOM      6  C   UNL     1      37.946 -24.778 -12.219  0.00  0.00    +0.174 C 
ENDROOT
BRANCH   2   7
ATOM      7  O   UNL     1      35.577 -26.116 -14.812  0.00  0.00    -0.382 OA
ATOM      8  H   UNL     1      34.842 -25.679 -14.355  0.00  0.00    +0.210 HD
ENDBRANCH   2   7
BRANCH   4   9
ATOM      9  O   UNL     1      35.623 -25.294 -11.981  0.00  0.00    -0.379 OA
ATOM     10  H   UNL     1      35.614 -26.251 -11.829  0.00  0.00    +0.211 HD
ENDBRANCH   4   9
BRANCH   5  12
ATOM     11  O   UNL     1      41.194 -24.415 -14.574  0.00  0.00    -0.248 OA
ATOM     12  C   UNL     1      40.359 -25.257 -14.871  0.00  0.00    +0.341 C 
BRANCH  12  13
ATOM     13  O   UNL     1      40.363 -25.959 -16.031  0.00  0.00    -0.479 OA
ATOM     14  H   UNL     1      39.699 -26.600 -16.192  0.00  0.00    +0.295 HD
ENDBRANCH  12  13
ENDBRANCH   5  12
TORSDOF 4
ENDMDL
MODEL 3
REMARK VINA RESULT:      -6.3      7.563      9.496
REMARK  Name = 448431
REMARK  4 active torsions:
REMARK  status: ('A' for Active; 'I' for Inactive)
REMARK    1  A    between atoms: C_2  and  O_7
REMARK    2  A    between atoms: C_4  and  O_9
REMARK    3  A    between atoms: C_5  and  C_12
REMARK    4  A    between atoms: C_12  and  O_13
REMARK                            x       y       z     vdW  Elec       q    Type
REMARK                         _______ _______ _______ _____ _____    ______ ____
ROOT
ATOM      1  O   UNL     1      29.481 -24.876 -15.893  0.00  0.00    -0.342 OA
ATOM      2  C   UNL     1      31.011 -23.269 -14.055  0.00  0.00    +0.143 C 
ATOM      3  C   UNL     1      30.193 -22.665 -15.195  0.00  0.00    +0.073 C 
ATOM      4  C   UNL     1      31.376 -24.721 -14.372  0.00  0.00    +0.167 C 
ATOM      5  C   UNL     1      29.024 -23.570 -15.554  0.00  0.00    +0.216 C 
ATOM      6  C   UNL     1      30.142 -25.507 -14.800  0.00  0.00    +0.174 C 
ENDROOT
BRANCH   2   7
ATOM      7  O   UNL     1      32.192 -22.491 -13.892  0.00  0.00    -0.382 OA
ATOM      8  H   UNL     1      32.467 -22.136 -14.751  0.00  0.00    +0.210 HD
ENDBRANCH   2   7
BRANCH   4   9
ATOM      9  O   UNL     1      31.934 -25.351 -13.224  0.00  0.00    -0.379 OA
ATOM     10  H   UNL     1      32.771 -25.776 -13.464  0.00  0.00    +0.211 HD
ENDBRANCH   4   9
BRANCH   5  12
ATOM     11  O   UNL     1      28.264 -21.915 -17.136  0.00  0.00    -0.248 OA
ATOM     12  C   UNL     1      28.333 -23.084 -16.784  0.00  0.00    +0.341 C 
BRANCH  12  13
ATOM     13  O   UNL     1      27.784 -24.119 -17.466  0.00  0.00    -0.479 OA
ATOM     14  H   UNL     1      27.628 -24.042 -18.387  0.00  0.00    +0.295 HD
ENDBRANCH  12  13
ENDBRANCH   5  12
TORSDOF 4
ENDMDL
MODEL 4
REMARK VINA RESULT:      -6.3      2.324      4.237
REMARK  Name = 448431
REMARK  4 active torsions:
REMARK  status: ('A' for Active; 'I' for Inactive)
REMARK    1  A    between atoms: C_2  and  O_7
REMARK    2  A    between atoms: C_4  and  O_9
REMARK    3  A    between atoms: C_5  and  C_12
REMARK    4  A    between atoms: C_12  and  O_13
REMARK                            x       y       z     vdW  Elec       q    Type
REMARK                         _______ _______ _______ _____ _____    ______ ____
ROOT
ATOM      1  O   UNL     1      36.756 -25.654 -12.337  0.00  0.00    -0.342 OA
ATOM      2  C   UNL     1      37.366 -24.458 -14.886  0.00  0.00    +0.143 C 
ATOM      3  C   UNL     1      37.038 -23.630 -13.645  0.00  0.00    +0.073 C 
ATOM      4  C   UNL     1      36.772 -25.863 -14.763  0.00  0.00    +0.167 C 
ATOM      5  C   UNL     1      37.413 -24.390 -12.380  0.00  0.00    +0.216 C 
ATOM      6  C   UNL     1      37.143 -26.491 -13.424  0.00  0.00    +0.174 C 
ENDROOT
BRANCH   2   7
ATOM      7  O   UNL     1      36.822 -23.793 -16.021  0.00  0.00    -0.382 OA
ATOM      8  H   UNL     1      36.097 -23.213 -15.741  0.00  0.00    +0.210 HD
ENDBRANCH   2   7
BRANCH   4   9
ATOM      9  O   UNL     1      37.266 -26.700 -15.802  0.00  0.00    -0.379 OA
ATOM     10  H   UNL     1      37.806 -27.407 -15.419  0.00  0.00    +0.211 HD
ENDBRANCH   4   9
BRANCH   5  12
ATOM     11  O   UNL     1      36.262 -24.178 -10.271  0.00  0.00    -0.248 OA
ATOM     12  C   UNL     1      36.926 -23.674 -11.165  0.00  0.00    +0.341 C 
BRANCH  12  13
ATOM     13  O   UNL     1      37.318 -22.376 -11.184  0.00  0.00    -0.479 OA
ATOM     14  H   UNL     1      36.972 -21.792 -11.830  0.00  0.00    +0.295 HD
ENDBRANCH  12  13
ENDBRANCH   5  12
TORSDOF 4
ENDMDL
MODEL 5
REMARK VINA RESULT:      -6.3      1.820      4.366
REMARK  Name = 448431
REMARK  4 active torsions:
REMARK  status: ('A' for Active; 'I' for Inactive)
REMARK    1  A    between atoms: C_2  and  O_7
REMARK    2  A    between atoms: C_4  and  O_9
REMARK    3  A    between atoms: C_5  and  C_12
REMARK    4  A    between atoms: C_12  and  O_13
REMARK                            x       y       z     vdW  Elec       q    Type
REMARK                         _______ _______ _______ _____ _____    ______ ____
ROOT
ATOM      1  O   UNL     1      35.906 -24.088 -13.296  0.00  0.00    -0.342 OA
ATOM      2  C   UNL     1      37.449 -26.446 -13.896  0.00  0.00    +0.143 C 
ATOM      3  C   UNL     1      37.735 -25.559 -12.686  0.00  0.00    +0.073 C 
ATOM      4  C   UNL     1      36.715 -25.651 -14.978  0.00  0.00    +0.167 C 
ATOM      5  C   UNL     1      36.469 -24.848 -12.231  0.00  0.00    +0.216 C 
ATOM      6  C   UNL     1      35.517 -24.915 -14.390  0.00  0.00    +0.174 C 
ENDROOT
BRANCH   2   7
ATOM      7  O   UNL     1      38.690 -26.930 -14.398  0.00  0.00    -0.382 OA
ATOM      8  H   UNL     1      38.687 -26.885 -15.367  0.00  0.00    +0.210 HD
ENDBRANCH   2   7
BRANCH   4   9
ATOM      9  O   UNL     1      36.248 -26.525 -16.000  0.00  0.00    -0.379 OA
ATOM     10  H   UNL     1      36.817 -27.308 -16.040  0.00  0.00    +0.211 HD
ENDBRANCH   4   9
BRANCH   5  12
ATOM     11  O   UNL     1      37.480 -22.853 -11.328  0.00  0.00    -0.248 OA
ATOM     12  C   UNL     1      36.775 -23.840 -11.174  0.00  0.00    +0.341 C 
BRANCH  12  13
ATOM     13  O   UNL     1      36.165 -24.167 -10.008  0.00  0.00    -0.479 OA
ATOM     14  H   UNL     1      35.333 -24.597 -10.020  0.00  0.00    +0.295 HD
ENDBRANCH  12  13
ENDBRANCH   5  12
TORSDOF 4
ENDMDL
MODEL 6
REMARK VINA RESULT:      -6.2      2.044      2.739
REMARK  Name = 448431
REMARK  4 active torsions:
REMARK  status: ('A' for Active; 'I' for Inactive)
REMARK    1  A    between atoms: C_2  and  O_7
REMARK    2  A    between atoms: C_4  and  O_9
REMARK    3  A    between atoms: C_5  and  C_12
REMARK    4  A    between atoms: C_12  and  O_13
REMARK                            x       y       z     vdW  Elec       q    Type
REMARK                         _______ _______ _______ _____ _____    ______ ____
ROOT
ATOM      1  O   UNL     1      35.779 -25.225 -14.913  0.00  0.00    -0.342 OA
ATOM      2  C   UNL     1      35.789 -24.629 -12.094  0.00  0.00    +0.143 C 
ATOM      3  C   UNL     1      36.746 -25.637 -12.727  0.00  0.00    +0.073 C 
ATOM      4  C   UNL     1      34.538 -24.465 -12.960  0.00  0.00    +0.167 C 
ATOM      5  C   UNL     1      37.003 -25.288 -14.186  0.00  0.00    +0.216 C 
ATOM      6  C   UNL     1      34.918 -24.204 -14.413  0.00  0.00    +0.174 C 
ENDROOT
BRANCH   2   7
ATOM      7  O   UNL     1      35.431 -25.106 -10.801  0.00  0.00    -0.382 OA
ATOM      8  H   UNL     1      34.761 -24.521 -10.414  0.00  0.00    +0.210 HD
ENDBRANCH   2   7
BRANCH   4   9
ATOM      9  O   UNL     1      33.759 -23.368 -12.497  0.00  0.00    -0.379 OA
ATOM     10  H   UNL     1      32.941 -23.311 -13.014  0.00  0.00    +0.211 HD
ENDBRANCH   4   9
BRANCH   5  12
ATOM     11  O   UNL     1      38.881 -26.768 -14.504  0.00  0.00    -0.248 OA
ATOM     12  C   UNL     1      37.783 -26.367 -14.861  0.00  0.00    +0.341 C 
BRANCH  12  13
ATOM     13  O   UNL     1      37.108 -26.846 -15.934  0.00  0.00    -0.479 OA
ATOM     14  H   UNL     1      37.560 -27.339 -16.590  0.00  0.00    +0.295 HD
ENDBRANCH  12  13
ENDBRANCH   5  12
TORSDOF 4
ENDMDL
MODEL 7
REMARK VINA RESULT:      -6.2      1.633      4.614
REMARK  Name = 448431
REMARK  4 active torsions:
REMARK  status: ('A' for Active; 'I' for Inactive)
REMARK    1  A    between atoms: C_2  and  O_7
REMARK    2  A    between atoms: C_4  and  O_9
REMARK    3  A    between atoms: C_5  and  C_12
REMARK    4  A    between atoms: C_12  and  O_13
REMARK                            x       y       z     vdW  Elec       q    Type
REMARK                         _______ _______ _______ _____ _____    ______ ____
ROOT
ATOM      1  O   UNL     1      37.923 -25.295 -12.030  0.00  0.00    -0.342 OA
ATOM      2  C   UNL     1      37.060 -25.210 -14.778  0.00  0.00    +0.143 C 
ATOM      3  C   UNL     1      36.095 -25.042 -13.606  0.00  0.00    +0.073 C 
ATOM      4  C   UNL     1      38.309 -25.976 -14.336  0.00  0.00    +0.167 C 
ATOM      5  C   UNL     1      36.819 -24.471 -12.394  0.00  0.00    +0.216 C 
ATOM      6  C   UNL     1      38.897 -25.366 -13.069  0.00  0.00    +0.174 C 
ENDROOT
BRANCH   2   7
ATOM      7  O   UNL     1      36.387 -25.922 -15.811  0.00  0.00    -0.382 OA
ATOM      8  H   UNL     1      35.433 -25.923 -15.635  0.00  0.00    +0.210 HD
ENDBRANCH   2   7
BRANCH   4   9
ATOM      9  O   UNL     1      39.300 -25.932 -15.356  0.00  0.00    -0.379 OA
ATOM     10  H   UNL     1      38.872 -25.978 -16.225  0.00  0.00    +0.211 HD
ENDBRANCH   4   9
BRANCH   5  12
ATOM     11  O   UNL     1      36.257 -24.094 -10.079  0.00  0.00    -0.248 OA
ATOM     12  C   UNL     1      35.933 -24.481 -11.193  0.00  0.00    +0.341 C 
BRANCH  12  13
ATOM     13  O   UNL     1      34.712 -24.980 -11.502  0.00  0.00    -0.479 OA
ATOM     14  H   UNL     1      34.333 -24.806 -12.341  0.00  0.00    +0.295 HD
ENDBRANCH  12  13
ENDBRANCH   5  12
TORSDOF 4
ENDMDL
MODEL 8
REMARK VINA RESULT:      -6.2      1.443      2.046
REMARK  Name = 448431
REMARK  4 active torsions:
REMARK  status: ('A' for Active; 'I' for Inactive)
REMARK    1  A    between atoms: C_2  and  O_7
REMARK    2  A    between atoms: C_4  and  O_9
REMARK    3  A    between atoms: C_5  and  C_12
REMARK    4  A    between atoms: C_12  and  O_13
REMARK                            x       y       z     vdW  Elec       q    Type
REMARK                         _______ _______ _______ _____ _____    ______ ____
ROOT
ATOM      1  O   UNL     1      38.578 -24.392 -14.986  0.00  0.00    -0.342 OA
ATOM      2  C   UNL     1      37.299 -25.002 -12.478  0.00  0.00    +0.143 C 
ATOM      3  C   UNL     1      38.433 -25.849 -13.052  0.00  0.00    +0.073 C 
ATOM      4  C   UNL     1      36.586 -24.236 -13.595  0.00  0.00    +0.167 C 
ATOM      5  C   UNL     1      39.332 -25.006 -13.945  0.00  0.00    +0.216 C 
ATOM      6  C   UNL     1      37.592 -23.500 -14.472  0.00  0.00    +0.174 C 
ENDROOT
BRANCH   2   7
ATOM      7  O   UNL     1      36.385 -25.870 -11.817  0.00  0.00    -0.382 OA
ATOM      8  H   UNL     1      35.834 -26.322 -12.475  0.00  0.00    +0.210 HD
ENDBRANCH   2   7
BRANCH   4   9
ATOM      9  O   UNL     1      35.689 -23.280 -13.041  0.00  0.00    -0.379 OA
ATOM     10  H   UNL     1      34.785 -23.627 -13.076  0.00  0.00    +0.211 HD
ENDBRANCH   4   9
BRANCH   5  12
ATOM     11  O   UNL     1      40.488 -25.889 -15.869  0.00  0.00    -0.248 OA
ATOM     12  C   UNL     1      40.327 -25.860 -14.657  0.00  0.00    +0.341 C 
BRANCH  12  13
ATOM     13  O   UNL     1      41.034 -26.609 -13.776  0.00  0.00    -0.479 OA
ATOM     14  H   UNL     1      41.499 -26.194 -13.076  0.00  0.00    +0.295 HD
ENDBRANCH  12  13
ENDBRANCH   5  12
TORSDOF 4
ENDMDL
MODEL 9
REMARK VINA RESULT:      -6.1      1.962      3.078
REMARK  Name = 448431
REMARK  4 active torsions:
REMARK  status: ('A' for Active; 'I' for Inactive)
REMARK    1  A    between atoms: C_2  and  O_7
REMARK    2  A    between atoms: C_4  and  O_9
REMARK    3  A    between atoms: C_5  and  C_12
REMARK    4  A    between atoms: C_12  and  O_13
REMARK                            x       y       z     vdW  Elec       q    Type
REMARK                         _______ _______ _______ _____ _____    ______ ____
ROOT
ATOM      1  O   UNL     1      38.291 -24.917 -13.314  0.00  0.00    -0.342 OA
ATOM      2  C   UNL     1      35.852 -24.165 -11.978  0.00  0.00    +0.143 C 
ATOM      3  C   UNL     1      35.891 -25.198 -13.102  0.00  0.00    +0.073 C 
ATOM      4  C   UNL     1      37.055 -23.224 -12.076  0.00  0.00    +0.167 C 
ATOM      5  C   UNL     1      37.252 -25.878 -13.158  0.00  0.00    +0.216 C 
ATOM      6  C   UNL     1      38.351 -24.015 -12.212  0.00  0.00    +0.174 C 
ENDROOT
BRANCH   2   7
ATOM      7  O   UNL     1      34.640 -23.427 -12.092  0.00  0.00    -0.382 OA
ATOM      8  H   UNL     1      34.035 -23.686 -11.381  0.00  0.00    +0.210 HD
ENDBRANCH   2   7
BRANCH   4   9
ATOM      9  O   UNL     1      37.144 -22.415 -10.908  0.00  0.00    -0.379 OA
ATOM     10  H   UNL     1      37.914 -21.830 -10.978  0.00  0.00    +0.211 HD
ENDBRANCH   4   9
BRANCH   5  12
ATOM     11  O   UNL     1      38.400 -27.240 -14.784  0.00  0.00    -0.248 OA
ATOM     12  C   UNL     1      37.362 -26.749 -14.365  0.00  0.00    +0.341 C 
BRANCH  12  13
ATOM     13  O   UNL     1      36.149 -26.924 -14.943  0.00  0.00    -0.479 OA
ATOM     14  H   UNL     1      35.797 -27.786 -15.042  0.00  0.00    +0.295 HD
ENDBRANCH  12  13
ENDBRANCH   5  12
TORSDOF 4
ENDMDL
