MODEL 1
REMARK VINA RESULT:      -9.1      0.000      0.000
REMARK  Name = 444612
REMARK  5 active torsions:
REMARK  status: ('A' for Active; 'I' for Inactive)
REMARK    1  A    between atoms: N_5  and  C_12
REMARK    2  A    between atoms: C_6  and  O_26
REMARK    3  A    between atoms: C_11  and  S_20
REMARK    4  A    between atoms: C_17  and  O_18
REMARK    5  A    between atoms: S_20  and  N_23
REMARK                            x       y       z     vdW  Elec       q    Type
REMARK                         _______ _______ _______ _____ _____    ______ ____
ROOT
ATOM      1  S   UNL     1      34.625 -17.806 -23.510  0.00  0.00    +0.082 S 
ATOM      2  S   UNL     1      34.074 -15.862 -25.698  0.00  0.00    -0.047 S 
ATOM      3  O   UNL     1      36.065 -17.751 -23.672  0.00  0.00    -0.149 OA
ATOM      4  O   UNL     1      33.807 -18.786 -24.194  0.00  0.00    -0.149 OA
ATOM      5  N   UNL     1      34.209 -17.750 -21.825  0.00  0.00    -0.187 N 
ATOM      6  C   UNL     1      33.521 -15.333 -21.749  0.00  0.00    +0.156 C 
ATOM      7  C   UNL     1      34.452 -16.417 -21.158  0.00  0.00    +0.150 C 
ATOM      8  C   UNL     1      33.614 -15.207 -23.245  0.00  0.00    +0.033 C 
ATOM      9  C   UNL     1      34.058 -16.232 -24.049  0.00  0.00    +0.154 C 
ATOM     10  C   UNL     1      33.264 -14.070 -24.035  0.00  0.00    +0.027 C 
ATOM     11  C   UNL     1      33.463 -14.289 -25.385  0.00  0.00    +0.152 C 
ENDROOT
BRANCH   5  12
ATOM     12  C   UNL     1      34.604 -18.930 -21.087  0.00  0.00    +0.069 C 
ATOM     13  C   UNL     1      33.632 -19.803 -20.610  0.00  0.00    +0.019 C 
ATOM     14  C   UNL     1      35.952 -19.182 -20.858  0.00  0.00    +0.019 C 
ATOM     15  C   UNL     1      34.012 -20.940 -19.898  0.00  0.00    +0.038 C 
ATOM     16  C   UNL     1      36.334 -20.319 -20.145  0.00  0.00    +0.038 C 
ATOM     17  C   UNL     1      35.362 -21.199 -19.664  0.00  0.00    +0.139 C 
BRANCH  17  18
ATOM     18  O   UNL     1      35.734 -22.308 -18.970  0.00  0.00    -0.471 OA
ATOM     19  C   UNL     1      36.199 -22.114 -17.635  0.00  0.00    +0.252 C 
ENDBRANCH  17  18
ENDBRANCH   5  12
BRANCH  11  20
ATOM     20  S   UNL     1      33.221 -13.295 -26.813  0.00  0.00    +0.063 S 
ATOM     21  O   UNL     1      33.438 -11.918 -26.383  0.00  0.00    -0.153 OA
ATOM     22  O   UNL     1      34.066 -13.894 -27.838  0.00  0.00    -0.153 OA
BRANCH  20  23
ATOM     23  N   UNL     1      31.583 -13.436 -27.311  0.00  0.00    -0.203 NA
ATOM     24  H   UNL     1      31.375 -14.411 -27.523  0.00  0.00    +0.144 HD
ATOM     25  H   UNL     1      31.430 -12.866 -28.143  0.00  0.00    +0.144 HD
ENDBRANCH  20  23
ENDBRANCH  11  20
BRANCH   6  26
ATOM     26  O   UNL     1      32.185 -15.632 -21.340  0.00  0.00    -0.378 OA
ATOM     27  H   UNL     1      31.586 -15.540 -22.097  0.00  0.00    +0.211 HD
ENDBRANCH   6  26
TORSDOF 5
ENDMDL
MODEL 2
REMARK VINA RESULT:      -9.0      2.105      3.076
REMARK  Name = 444612
REMARK  5 active torsions:
REMARK  status: ('A' for Active; 'I' for Inactive)
REMARK    1  A    between atoms: N_5  and  C_12
REMARK    2  A    between atoms: C_6  and  O_26
REMARK    3  A    between atoms: C_11  and  S_20
REMARK    4  A    between atoms: C_17  and  O_18
REMARK    5  A    between atoms: S_20  and  N_23
REMARK                            x       y       z     vdW  Elec       q    Type
REMARK                         _______ _______ _______ _____ _____    ______ ____
ROOT
ATOM      1  S   UNL     1      34.010 -16.536 -21.190  0.00  0.00    +0.082 S 
ATOM      2  S   UNL     1      33.696 -13.738 -22.160  0.00  0.00    -0.047 S 
ATOM      3  O   UNL     1      32.633 -16.657 -20.751  0.00  0.00    -0.149 OA
ATOM      4  O   UNL     1      35.067 -16.096 -20.305  0.00  0.00    -0.149 OA
ATOM      5  N   UNL     1      34.497 -17.972 -22.038  0.00  0.00    -0.187 N 
ATOM      6  C   UNL     1      34.306 -17.045 -24.367  0.00  0.00    +0.156 C 
ATOM      7  C   UNL     1      33.852 -18.156 -23.391  0.00  0.00    +0.150 C 
ATOM      8  C   UNL     1      34.070 -15.653 -23.848  0.00  0.00    +0.033 C 
ATOM      9  C   UNL     1      33.955 -15.371 -22.505  0.00  0.00    +0.154 C 
ATOM     10  C   UNL     1      33.947 -14.457 -24.620  0.00  0.00    +0.027 C 
ATOM     11  C   UNL     1      33.742 -13.343 -23.829  0.00  0.00    +0.152 C 
ENDROOT
BRANCH   5  12
ATOM     12  C   UNL     1      34.589 -19.144 -21.195  0.00  0.00    +0.069 C 
ATOM     13  C   UNL     1      35.839 -19.627 -20.819  0.00  0.00    +0.019 C 
ATOM     14  C   UNL     1      33.429 -19.780 -20.767  0.00  0.00    +0.019 C 
ATOM     15  C   UNL     1      35.929 -20.757 -20.008  0.00  0.00    +0.038 C 
ATOM     16  C   UNL     1      33.518 -20.911 -19.956  0.00  0.00    +0.038 C 
ATOM     17  C   UNL     1      34.769 -21.400 -19.575  0.00  0.00    +0.139 C 
BRANCH  17  18
ATOM     18  O   UNL     1      34.856 -22.503 -18.783  0.00  0.00    -0.471 OA
ATOM     19  C   UNL     1      33.674 -22.901 -18.090  0.00  0.00    +0.252 C 
ENDBRANCH  17  18
ENDBRANCH   5  12
BRANCH  11  20
ATOM     20  S   UNL     1      33.523 -11.637 -24.188  0.00  0.00    +0.063 S 
ATOM     21  O   UNL     1      33.210 -11.565 -25.611  0.00  0.00    -0.153 OA
ATOM     22  O   UNL     1      32.570 -11.160 -23.194  0.00  0.00    -0.153 OA
BRANCH  20  23
ATOM     23  N   UNL     1      35.017 -10.826 -23.940  0.00  0.00    -0.203 NA
ATOM     24  H   UNL     1      35.777 -11.506 -23.939  0.00  0.00    +0.144 HD
ATOM     25  H   UNL     1      34.995 -10.339 -23.044  0.00  0.00    +0.144 HD
ENDBRANCH  20  23
ENDBRANCH  11  20
BRANCH   6  26
ATOM     26  O   UNL     1      35.687 -17.257 -24.663  0.00  0.00    -0.378 OA
ATOM     27  H   UNL     1      36.107 -16.409 -24.874  0.00  0.00    +0.211 HD
ENDBRANCH   6  26
TORSDOF 5
ENDMDL
MODEL 3
REMARK VINA RESULT:      -8.5     10.068     12.697
REMARK  Name = 444612
REMARK  5 active torsions:
REMARK  status: ('A' for Active; 'I' for Inactive)
REMARK    1  A    between atoms: N_5  and  C_12
REMARK    2  A    between atoms: C_6  and  O_26
REMARK    3  A    between atoms: C_11  and  S_20
REMARK    4  A    between atoms: C_17  and  O_18
REMARK    5  A    between atoms: S_20  and  N_23
REMARK                            x       y       z     vdW  Elec       q    Type
REMARK                         _______ _______ _______ _____ _____    ______ ____
ROOT
ATOM      1  S   UNL     1      32.221 -24.121 -14.120  0.00  0.00    +0.082 S 
ATOM      2  S   UNL     1      34.869 -25.034 -13.108  0.00  0.00    -0.047 S 
ATOM      3  O   UNL     1      32.105 -23.035 -13.166  0.00  0.00    -0.149 OA
ATOM      4  O   UNL     1      31.683 -25.439 -13.860  0.00  0.00    -0.149 OA
ATOM      5  N   UNL     1      31.747 -23.581 -15.702  0.00  0.00    -0.187 N 
ATOM      6  C   UNL     1      34.060 -23.304 -16.648  0.00  0.00    +0.156 C 
ATOM      7  C   UNL     1      32.707 -22.614 -16.354  0.00  0.00    +0.150 C 
ATOM      8  C   UNL     1      34.686 -23.946 -15.440  0.00  0.00    +0.033 C 
ATOM      9  C   UNL     1      33.952 -24.333 -14.342  0.00  0.00    +0.154 C 
ATOM     10  C   UNL     1      36.068 -24.254 -15.250  0.00  0.00    +0.027 C 
ATOM     11  C   UNL     1      36.307 -24.850 -14.027  0.00  0.00    +0.152 C 
ENDROOT
BRANCH   5  12
ATOM     12  C   UNL     1      30.338 -23.277 -15.816  0.00  0.00    +0.069 C 
ATOM     13  C   UNL     1      29.561 -23.945 -16.758  0.00  0.00    +0.019 C 
ATOM     14  C   UNL     1      29.768 -22.319 -14.984  0.00  0.00    +0.019 C 
ATOM     15  C   UNL     1      28.203 -23.651 -16.870  0.00  0.00    +0.038 C 
ATOM     16  C   UNL     1      28.409 -22.024 -15.096  0.00  0.00    +0.038 C 
ATOM     17  C   UNL     1      27.626 -22.691 -16.039  0.00  0.00    +0.139 C 
BRANCH  17  18
ATOM     18  O   UNL     1      26.301 -22.404 -16.147  0.00  0.00    -0.471 OA
ATOM     19  C   UNL     1      25.928 -21.394 -17.083  0.00  0.00    +0.252 C 
ENDBRANCH  17  18
ENDBRANCH   5  12
BRANCH  11  20
ATOM     20  S   UNL     1      37.763 -25.442 -13.242  0.00  0.00    +0.063 S 
ATOM     21  O   UNL     1      38.627 -24.279 -13.073  0.00  0.00    -0.153 OA
ATOM     22  O   UNL     1      37.291 -26.190 -12.083  0.00  0.00    -0.153 OA
BRANCH  20  23
ATOM     23  N   UNL     1      38.556 -26.534 -14.305  0.00  0.00    -0.203 NA
ATOM     24  H   UNL     1      38.502 -27.478 -13.925  0.00  0.00    +0.144 HD
ATOM     25  H   UNL     1      39.535 -26.262 -14.403  0.00  0.00    +0.144 HD
ENDBRANCH  20  23
ENDBRANCH  11  20
BRANCH   6  26
ATOM     26  O   UNL     1      33.848 -24.261 -17.688  0.00  0.00    -0.378 OA
ATOM     27  H   UNL     1      33.326 -23.856 -18.398  0.00  0.00    +0.211 HD
ENDBRANCH   6  26
TORSDOF 5
ENDMDL
MODEL 4
REMARK VINA RESULT:      -7.8      9.991     12.648
REMARK  Name = 444612
REMARK  5 active torsions:
REMARK  status: ('A' for Active; 'I' for Inactive)
REMARK    1  A    between atoms: N_5  and  C_12
REMARK    2  A    between atoms: C_6  and  O_26
REMARK    3  A    between atoms: C_11  and  S_20
REMARK    4  A    between atoms: C_17  and  O_18
REMARK    5  A    between atoms: S_20  and  N_23
REMARK                            x       y       z     vdW  Elec       q    Type
REMARK                         _______ _______ _______ _____ _____    ______ ____
ROOT
ATOM      1  S   UNL     1      34.840 -23.818 -15.746  0.00  0.00    +0.082 S 
ATOM      2  S   UNL     1      37.729 -24.511 -15.541  0.00  0.00    -0.047 S 
ATOM      3  O   UNL     1      34.517 -24.939 -16.605  0.00  0.00    -0.149 OA
ATOM      4  O   UNL     1      35.203 -22.519 -16.273  0.00  0.00    -0.149 OA
ATOM      5  N   UNL     1      33.635 -23.646 -14.506  0.00  0.00    -0.187 N 
ATOM      6  C   UNL     1      34.954 -24.685 -12.636  0.00  0.00    +0.156 C 
ATOM      7  C   UNL     1      33.645 -24.734 -13.459  0.00  0.00    +0.150 C 
ATOM      8  C   UNL     1      36.199 -24.741 -13.477  0.00  0.00    +0.033 C 
ATOM      9  C   UNL     1      36.217 -24.367 -14.801  0.00  0.00    +0.154 C 
ATOM     10  C   UNL     1      37.501 -25.157 -13.059  0.00  0.00    +0.027 C 
ATOM     11  C   UNL     1      38.427 -25.080 -14.081  0.00  0.00    +0.152 C 
ENDROOT
BRANCH   5  12
ATOM     12  C   UNL     1      32.341 -23.234 -15.005  0.00  0.00    +0.069 C 
ATOM     13  C   UNL     1      31.307 -22.975 -14.110  0.00  0.00    +0.019 C 
ATOM     14  C   UNL     1      32.138 -23.101 -16.374  0.00  0.00    +0.019 C 
ATOM     15  C   UNL     1      30.059 -22.579 -14.590  0.00  0.00    +0.038 C 
ATOM     16  C   UNL     1      30.890 -22.705 -16.855  0.00  0.00    +0.038 C 
ATOM     17  C   UNL     1      29.850 -22.444 -15.962  0.00  0.00    +0.139 C 
BRANCH  17  18
ATOM     18  O   UNL     1      28.632 -22.057 -16.431  0.00  0.00    -0.471 OA
ATOM     19  C   UNL     1      27.486 -22.486 -15.698  0.00  0.00    +0.252 C 
ENDBRANCH  17  18
ENDBRANCH   5  12
BRANCH  11  20
ATOM     20  S   UNL     1      40.143 -25.445 -14.178  0.00  0.00    +0.063 S 
ATOM     21  O   UNL     1      40.835 -24.196 -13.878  0.00  0.00    -0.153 OA
ATOM     22  O   UNL     1      40.329 -26.617 -13.333  0.00  0.00    -0.153 OA
BRANCH  20  23
ATOM     23  N   UNL     1      40.523 -25.878 -15.796  0.00  0.00    -0.203 NA
ATOM     24  H   UNL     1      39.690 -25.785 -16.377  0.00  0.00    +0.144 HD
ATOM     25  H   UNL     1      40.851 -26.843 -15.822  0.00  0.00    +0.144 HD
ENDBRANCH  20  23
ENDBRANCH  11  20
BRANCH   6  26
ATOM     26  O   UNL     1      34.925 -23.501 -11.836  0.00  0.00    -0.378 OA
ATOM     27  H   UNL     1      35.458 -23.637 -11.037  0.00  0.00    +0.211 HD
ENDBRANCH   6  26
TORSDOF 5
ENDMDL
MODEL 5
REMARK VINA RESULT:      -7.8      9.955     11.031
REMARK  Name = 444612
REMARK  5 active torsions:
REMARK  status: ('A' for Active; 'I' for Inactive)
REMARK    1  A    between atoms: N_5  and  C_12
REMARK    2  A    between atoms: C_6  and  O_26
REMARK    3  A    between atoms: C_11  and  S_20
REMARK    4  A    between atoms: C_17  and  O_18
REMARK    5  A    between atoms: S_20  and  N_23
REMARK                            x       y       z     vdW  Elec       q    Type
REMARK                         _______ _______ _______ _____ _____    ______ ____
ROOT
ATOM      1  S   UNL     1      33.770 -23.570 -16.249  0.00  0.00    +0.082 S 
ATOM      2  S   UNL     1      30.930 -23.051 -16.982  0.00  0.00    -0.047 S 
ATOM      3  O   UNL     1      34.170 -22.181 -16.362  0.00  0.00    -0.149 OA
ATOM      4  O   UNL     1      33.872 -24.496 -17.357  0.00  0.00    -0.149 OA
ATOM      5  N   UNL     1      34.450 -24.275 -14.814  0.00  0.00    -0.187 N 
ATOM      6  C   UNL     1      32.372 -24.187 -13.403  0.00  0.00    +0.156 C 
ATOM      7  C   UNL     1      33.857 -23.771 -13.520  0.00  0.00    +0.150 C 
ATOM      8  C   UNL     1      31.531 -23.765 -14.576  0.00  0.00    +0.033 C 
ATOM      9  C   UNL     1      32.067 -23.507 -15.817  0.00  0.00    +0.154 C 
ATOM     10  C   UNL     1      30.114 -23.584 -14.598  0.00  0.00    +0.027 C 
ATOM     11  C   UNL     1      29.656 -23.198 -15.842  0.00  0.00    +0.152 C 
ENDROOT
BRANCH   5  12
ATOM     12  C   UNL     1      35.889 -24.416 -14.860  0.00  0.00    +0.069 C 
ATOM     13  C   UNL     1      36.480 -25.604 -14.441  0.00  0.00    +0.019 C 
ATOM     14  C   UNL     1      36.672 -23.363 -15.321  0.00  0.00    +0.019 C 
ATOM     15  C   UNL     1      37.866 -25.741 -14.484  0.00  0.00    +0.038 C 
ATOM     16  C   UNL     1      38.060 -23.499 -15.363  0.00  0.00    +0.038 C 
ATOM     17  C   UNL     1      38.658 -24.689 -14.945  0.00  0.00    +0.139 C 
BRANCH  17  18
ATOM     18  O   UNL     1      40.011 -24.821 -14.987  0.00  0.00    -0.471 OA
ATOM     19  C   UNL     1      40.565 -26.019 -14.444  0.00  0.00    +0.252 C 
ENDBRANCH  17  18
ENDBRANCH   5  12
BRANCH  11  20
ATOM     20  S   UNL     1      28.057 -22.834 -16.475  0.00  0.00    +0.063 S 
ATOM     21  O   UNL     1      27.159 -22.850 -15.326  0.00  0.00    -0.153 OA
ATOM     22  O   UNL     1      28.230 -21.621 -17.264  0.00  0.00    -0.153 OA
BRANCH  20  23
ATOM     23  N   UNL     1      27.580 -24.104 -17.529  0.00  0.00    -0.203 NA
ATOM     24  H   UNL     1      26.911 -23.747 -18.211  0.00  0.00    +0.144 HD
ATOM     25  H   UNL     1      27.148 -24.852 -16.987  0.00  0.00    +0.144 HD
ENDBRANCH  20  23
ENDBRANCH  11  20
BRANCH   6  26
ATOM     26  O   UNL     1      32.327 -25.604 -13.220  0.00  0.00    -0.378 OA
ATOM     27  H   UNL     1      32.400 -25.811 -12.276  0.00  0.00    +0.211 HD
ENDBRANCH   6  26
TORSDOF 5
ENDMDL
MODEL 6
REMARK VINA RESULT:      -7.7      5.743     11.171
REMARK  Name = 444612
REMARK  5 active torsions:
REMARK  status: ('A' for Active; 'I' for Inactive)
REMARK    1  A    between atoms: N_5  and  C_12
REMARK    2  A    between atoms: C_6  and  O_26
REMARK    3  A    between atoms: C_11  and  S_20
REMARK    4  A    between atoms: C_17  and  O_18
REMARK    5  A    between atoms: S_20  and  N_23
REMARK                            x       y       z     vdW  Elec       q    Type
REMARK                         _______ _______ _______ _____ _____    ______ ____
ROOT
ATOM      1  S   UNL     1      36.388 -22.012 -17.371  0.00  0.00    +0.082 S 
ATOM      2  S   UNL     1      37.471 -23.284 -14.905  0.00  0.00    -0.047 S 
ATOM      3  O   UNL     1      37.275 -22.729 -18.265  0.00  0.00    -0.149 OA
ATOM      4  O   UNL     1      36.722 -20.712 -16.829  0.00  0.00    -0.149 OA
ATOM      5  N   UNL     1      34.774 -21.998 -18.013  0.00  0.00    -0.187 N 
ATOM      6  C   UNL     1      33.829 -23.798 -16.534  0.00  0.00    +0.156 C 
ATOM      7  C   UNL     1      34.073 -23.335 -17.990  0.00  0.00    +0.150 C 
ATOM      8  C   UNL     1      35.077 -23.835 -15.695  0.00  0.00    +0.033 C 
ATOM      9  C   UNL     1      36.191 -23.082 -15.990  0.00  0.00    +0.154 C 
ATOM     10  C   UNL     1      35.295 -24.605 -14.511  0.00  0.00    +0.027 C 
ATOM     11  C   UNL     1      36.553 -24.400 -13.979  0.00  0.00    +0.152 C 
ENDROOT
BRANCH   5  12
ATOM     12  C   UNL     1      34.632 -21.208 -19.216  0.00  0.00    +0.069 C 
ATOM     13  C   UNL     1      35.766 -20.786 -19.903  0.00  0.00    +0.019 C 
ATOM     14  C   UNL     1      33.363 -20.876 -19.679  0.00  0.00    +0.019 C 
ATOM     15  C   UNL     1      35.631 -20.024 -21.062  0.00  0.00    +0.038 C 
ATOM     16  C   UNL     1      33.226 -20.112 -20.838  0.00  0.00    +0.038 C 
ATOM     17  C   UNL     1      34.361 -19.686 -21.531  0.00  0.00    +0.139 C 
BRANCH  17  18
ATOM     18  O   UNL     1      34.227 -18.943 -22.662  0.00  0.00    -0.471 OA
ATOM     19  C   UNL     1      35.403 -18.313 -23.170  0.00  0.00    +0.252 C 
ENDBRANCH  17  18
ENDBRANCH   5  12
BRANCH  11  20
ATOM     20  S   UNL     1      37.382 -25.044 -12.570  0.00  0.00    +0.063 S 
ATOM     21  O   UNL     1      36.337 -25.376 -11.608  0.00  0.00    -0.153 OA
ATOM     22  O   UNL     1      38.266 -26.079 -13.092  0.00  0.00    -0.153 OA
BRANCH  20  23
ATOM     23  N   UNL     1      38.348 -23.801 -11.884  0.00  0.00    -0.203 NA
ATOM     24  H   UNL     1      37.940 -23.502 -10.999  0.00  0.00    +0.144 HD
ATOM     25  H   UNL     1      38.389 -23.009 -12.525  0.00  0.00    +0.144 HD
ENDBRANCH  20  23
ENDBRANCH  11  20
BRANCH   6  26
ATOM     26  O   UNL     1      32.846 -22.936 -15.958  0.00  0.00    -0.378 OA
ATOM     27  H   UNL     1      33.076 -22.756 -15.033  0.00  0.00    +0.211 HD
ENDBRANCH   6  26
TORSDOF 5
ENDMDL
MODEL 7
REMARK VINA RESULT:      -7.7      4.757      7.125
REMARK  Name = 444612
REMARK  5 active torsions:
REMARK  status: ('A' for Active; 'I' for Inactive)
REMARK    1  A    between atoms: N_5  and  C_12
REMARK    2  A    between atoms: C_6  and  O_26
REMARK    3  A    between atoms: C_11  and  S_20
REMARK    4  A    between atoms: C_17  and  O_18
REMARK    5  A    between atoms: S_20  and  N_23
REMARK                            x       y       z     vdW  Elec       q    Type
REMARK                         _______ _______ _______ _____ _____    ______ ____
ROOT
ATOM      1  S   UNL     1      33.555 -11.114 -24.181  0.00  0.00    +0.082 S 
ATOM      2  S   UNL     1      33.013  -8.223 -23.710  0.00  0.00    -0.047 S 
ATOM      3  O   UNL     1      34.962 -11.020 -23.849  0.00  0.00    -0.149 OA
ATOM      4  O   UNL     1      33.069 -10.969 -25.537  0.00  0.00    -0.149 OA
ATOM      5  N   UNL     1      32.857 -12.523 -23.442  0.00  0.00    -0.187 N 
ATOM      6  C   UNL     1      31.711 -11.348 -21.538  0.00  0.00    +0.156 C 
ATOM      7  C   UNL     1      32.722 -12.448 -21.939  0.00  0.00    +0.150 C 
ATOM      8  C   UNL     1      32.029  -9.996 -22.114  0.00  0.00    +0.033 C 
ATOM      9  C   UNL     1      32.792  -9.834 -23.248  0.00  0.00    +0.154 C 
ATOM     10  C   UNL     1      31.603  -8.727 -21.614  0.00  0.00    +0.027 C 
ATOM     11  C   UNL     1      32.066  -7.679 -22.387  0.00  0.00    +0.152 C 
ENDROOT
BRANCH   5  12
ATOM     12  C   UNL     1      33.344 -13.770 -23.991  0.00  0.00    +0.069 C 
ATOM     13  C   UNL     1      32.948 -14.165 -25.265  0.00  0.00    +0.019 C 
ATOM     14  C   UNL     1      34.202 -14.567 -23.241  0.00  0.00    +0.019 C 
ATOM     15  C   UNL     1      33.415 -15.367 -25.794  0.00  0.00    +0.038 C 
ATOM     16  C   UNL     1      34.670 -15.770 -23.770  0.00  0.00    +0.038 C 
ATOM     17  C   UNL     1      34.276 -16.171 -25.047  0.00  0.00    +0.139 C 
BRANCH  17  18
ATOM     18  O   UNL     1      34.733 -17.344 -25.563  0.00  0.00    -0.471 OA
ATOM     19  C   UNL     1      34.547 -18.518 -24.774  0.00  0.00    +0.252 C 
ENDBRANCH  17  18
ENDBRANCH   5  12
BRANCH  11  20
ATOM     20  S   UNL     1      31.880  -5.935 -22.282  0.00  0.00    +0.063 S 
ATOM     21  O   UNL     1      32.415  -5.553 -20.980  0.00  0.00    -0.153 OA
ATOM     22  O   UNL     1      32.472  -5.417 -23.509  0.00  0.00    -0.153 OA
BRANCH  20  23
ATOM     23  N   UNL     1      30.203  -5.559 -22.289  0.00  0.00    -0.203 NA
ATOM     24  H   UNL     1      29.743  -6.044 -21.519  0.00  0.00    +0.144 HD
ATOM     25  H   UNL     1      29.792  -5.857 -23.174  0.00  0.00    +0.144 HD
ENDBRANCH  20  23
ENDBRANCH  11  20
BRANCH   6  26
ATOM     26  O   UNL     1      30.409 -11.784 -21.933  0.00  0.00    -0.378 OA
ATOM     27  H   UNL     1      29.739 -11.322 -21.405  0.00  0.00    +0.211 HD
ENDBRANCH   6  26
TORSDOF 5
ENDMDL
MODEL 8
REMARK VINA RESULT:      -7.6      5.727     10.574
REMARK  Name = 444612
REMARK  5 active torsions:
REMARK  status: ('A' for Active; 'I' for Inactive)
REMARK    1  A    between atoms: N_5  and  C_12
REMARK    2  A    between atoms: C_6  and  O_26
REMARK    3  A    between atoms: C_11  and  S_20
REMARK    4  A    between atoms: C_17  and  O_18
REMARK    5  A    between atoms: S_20  and  N_23
REMARK                            x       y       z     vdW  Elec       q    Type
REMARK                         _______ _______ _______ _____ _____    ______ ____
ROOT
ATOM      1  S   UNL     1      31.815 -10.388 -21.995  0.00  0.00    +0.082 S 
ATOM      2  S   UNL     1      32.284 -13.275 -21.430  0.00  0.00    -0.047 S 
ATOM      3  O   UNL     1      32.386  -9.935 -20.742  0.00  0.00    -0.149 OA
ATOM      4  O   UNL     1      30.401 -10.662 -22.146  0.00  0.00    -0.149 OA
ATOM      5  N   UNL     1      32.376  -9.393 -23.304  0.00  0.00    -0.187 N 
ATOM      6  C   UNL     1      34.095 -10.992 -24.204  0.00  0.00    +0.156 C 
ATOM      7  C   UNL     1      33.835  -9.570 -23.653  0.00  0.00    +0.150 C 
ATOM      8  C   UNL     1      33.627 -12.090 -23.288  0.00  0.00    +0.033 C 
ATOM      9  C   UNL     1      32.647 -11.898 -22.341  0.00  0.00    +0.154 C 
ATOM     10  C   UNL     1      34.089 -13.441 -23.260  0.00  0.00    +0.027 C 
ATOM     11  C   UNL     1      33.443 -14.195 -22.299  0.00  0.00    +0.152 C 
ENDROOT
BRANCH   5  12
ATOM     12  C   UNL     1      31.877  -8.036 -23.260  0.00  0.00    +0.069 C 
ATOM     13  C   UNL     1      31.261  -7.491 -24.383  0.00  0.00    +0.019 C 
ATOM     14  C   UNL     1      32.017  -7.286 -22.098  0.00  0.00    +0.019 C 
ATOM     15  C   UNL     1      30.780  -6.183 -24.342  0.00  0.00    +0.038 C 
ATOM     16  C   UNL     1      31.537  -5.976 -22.056  0.00  0.00    +0.038 C 
ATOM     17  C   UNL     1      30.918  -5.425 -23.179  0.00  0.00    +0.139 C 
BRANCH  17  18
ATOM     18  O   UNL     1      30.449  -4.148 -23.138  0.00  0.00    -0.471 OA
ATOM     19  C   UNL     1      31.379  -3.104 -23.423  0.00  0.00    +0.252 C 
ENDBRANCH  17  18
ENDBRANCH   5  12
BRANCH  11  20
ATOM     20  S   UNL     1      33.573 -15.875 -21.800  0.00  0.00    +0.063 S 
ATOM     21  O   UNL     1      32.328 -16.183 -21.106  0.00  0.00    -0.153 OA
ATOM     22  O   UNL     1      33.948 -16.600 -23.007  0.00  0.00    -0.153 OA
BRANCH  20  23
ATOM     23  N   UNL     1      34.854 -16.014 -20.664  0.00  0.00    -0.203 NA
ATOM     24  H   UNL     1      35.622 -15.403 -20.941  0.00  0.00    +0.144 HD
ATOM     25  H   UNL     1      35.180 -16.980 -20.635  0.00  0.00    +0.144 HD
ENDBRANCH  20  23
ENDBRANCH  11  20
BRANCH   6  26
ATOM     26  O   UNL     1      33.468 -11.088 -25.484  0.00  0.00    -0.378 OA
ATOM     27  H   UNL     1      33.155 -11.995 -25.624  0.00  0.00    +0.211 HD
ENDBRANCH   6  26
TORSDOF 5
ENDMDL
MODEL 9
REMARK VINA RESULT:      -7.6      1.662      2.146
REMARK  Name = 444612
REMARK  5 active torsions:
REMARK  status: ('A' for Active; 'I' for Inactive)
REMARK    1  A    between atoms: N_5  and  C_12
REMARK    2  A    between atoms: C_6  and  O_26
REMARK    3  A    between atoms: C_11  and  S_20
REMARK    4  A    between atoms: C_17  and  O_18
REMARK    5  A    between atoms: S_20  and  N_23
REMARK                            x       y       z     vdW  Elec       q    Type
REMARK                         _______ _______ _______ _____ _____    ______ ____
ROOT
ATOM      1  S   UNL     1      34.660 -16.824 -23.040  0.00  0.00    +0.082 S 
ATOM      2  S   UNL     1      34.382 -14.352 -24.678  0.00  0.00    -0.047 S 
ATOM      3  O   UNL     1      36.106 -16.861 -23.138  0.00  0.00    -0.149 OA
ATOM      4  O   UNL     1      33.804 -17.523 -23.976  0.00  0.00    -0.149 OA
ATOM      5  N   UNL     1      34.161 -17.155 -21.409  0.00  0.00    -0.187 N 
ATOM      6  C   UNL     1      33.665 -14.782 -20.743  0.00  0.00    +0.156 C 
ATOM      7  C   UNL     1      34.475 -16.059 -20.418  0.00  0.00    +0.150 C 
ATOM      8  C   UNL     1      33.847 -14.294 -22.154  0.00  0.00    +0.033 C 
ATOM      9  C   UNL     1      34.250 -15.120 -23.178  0.00  0.00    +0.154 C 
ATOM     10  C   UNL     1      33.630 -12.968 -22.640  0.00  0.00    +0.027 C 
ATOM     11  C   UNL     1      33.883 -12.860 -23.994  0.00  0.00    +0.152 C 
ENDROOT
BRANCH   5  12
ATOM     12  C   UNL     1      34.422 -18.512 -20.983  0.00  0.00    +0.069 C 
ATOM     13  C   UNL     1      35.735 -18.950 -20.837  0.00  0.00    +0.019 C 
ATOM     14  C   UNL     1      33.359 -19.371 -20.725  0.00  0.00    +0.019 C 
ATOM     15  C   UNL     1      35.986 -20.259 -20.428  0.00  0.00    +0.038 C 
ATOM     16  C   UNL     1      33.610 -20.681 -20.316  0.00  0.00    +0.038 C 
ATOM     17  C   UNL     1      34.925 -21.125 -20.167  0.00  0.00    +0.139 C 
BRANCH  17  18
ATOM     18  O   UNL     1      35.170 -22.402 -19.768  0.00  0.00    -0.471 OA
ATOM     19  C   UNL     1      34.172 -23.038 -18.970  0.00  0.00    +0.252 C 
ENDBRANCH  17  18
ENDBRANCH   5  12
BRANCH  11  20
ATOM     20  S   UNL     1      33.797 -11.522 -25.130  0.00  0.00    +0.063 S 
ATOM     21  O   UNL     1      33.553 -12.122 -26.436  0.00  0.00    -0.153 OA
ATOM     22  O   UNL     1      32.836 -10.593 -24.549  0.00  0.00    -0.153 OA
BRANCH  20  23
ATOM     23  N   UNL     1      35.330 -10.749 -25.187  0.00  0.00    -0.203 NA
ATOM     24  H   UNL     1      35.357 -10.104 -25.976  0.00  0.00    +0.144 HD
ATOM     25  H   UNL     1      36.061 -11.452 -25.296  0.00  0.00    +0.144 HD
ENDBRANCH  20  23
ENDBRANCH  11  20
BRANCH   6  26
ATOM     26  O   UNL     1      32.289 -15.052 -20.465  0.00  0.00    -0.378 OA
ATOM     27  H   UNL     1      32.202 -15.384 -19.558  0.00  0.00    +0.211 HD
ENDBRANCH   6  26
TORSDOF 5
ENDMDL
