MODEL 1
REMARK VINA RESULT:      -7.1      0.000      0.000
REMARK  Name = 2481
REMARK  4 active torsions:
REMARK  status: ('A' for Active; 'I' for Inactive)
REMARK    1  A    between atoms: C_6  and  C_12
REMARK    2  A    between atoms: C_6  and  C_16
REMARK    3  A    between atoms: C_12  and  C_13
REMARK    4  A    between atoms: C_16  and  C_17
REMARK                            x       y       z     vdW  Elec       q    Type
REMARK                         _______ _______ _______ _____ _____    ______ ____
ROOT
ATOM      1  O   UNL     1      36.989 -26.743 -12.581  0.00  0.00    -0.274 OA
ATOM      2  O   UNL     1      37.558 -22.684 -14.872  0.00  0.00    -0.274 OA
ATOM      3  O   UNL     1      40.475 -26.168 -15.508  0.00  0.00    -0.252 OA
ATOM      4  N   UNL     1      38.672 -26.488 -14.118  0.00  0.00    -0.239 N 
ATOM      5  N   UNL     1      38.956 -24.460 -15.262  0.00  0.00    -0.239 N 
ATOM      6  C   UNL     1      36.829 -24.867 -14.109  0.00  0.00    +0.142 C 
ATOM      7  C   UNL     1      37.492 -26.099 -13.501  0.00  0.00    +0.237 C 
ATOM      8  C   UNL     1      37.803 -23.884 -14.752  0.00  0.00    +0.237 C 
ATOM      9  C   UNL     1      39.431 -25.741 -15.011  0.00  0.00    +0.312 C 
ATOM     10  H   UNL     1      39.008 -27.387 -13.899  0.00  0.00    +0.159 HD
ATOM     11  H   UNL     1      39.497 -23.901 -15.866  0.00  0.00    +0.159 HD
ENDROOT
BRANCH   6  12
ATOM     12  C   UNL     1      36.005 -24.145 -13.035  0.00  0.00    +0.018 C 
BRANCH  12  13
ATOM     13  C   UNL     1      36.731 -24.038 -11.689  0.00  0.00    +0.001 C 
ATOM     14  C   UNL     1      37.398 -22.677 -11.487  0.00  0.00    +0.000 C 
ATOM     15  C   UNL     1      35.739 -24.303 -10.554  0.00  0.00    +0.000 C 
ENDBRANCH  12  13
ENDBRANCH   6  12
BRANCH   6  16
ATOM     16  C   UNL     1      35.890 -25.364 -15.223  0.00  0.00    +0.043 C 
BRANCH  16  17
ATOM     17  C   UNL     1      34.623 -24.576 -15.237  0.00  0.00    -0.025 C 
ATOM     18  C   UNL     1      34.342 -23.639 -16.150  0.00  0.00    -0.005 C 
ENDBRANCH  16  17
ENDBRANCH   6  16
TORSDOF 4
ENDMDL
MODEL 2
REMARK VINA RESULT:      -6.9      2.249      3.848
REMARK  Name = 2481
REMARK  4 active torsions:
REMARK  status: ('A' for Active; 'I' for Inactive)
REMARK    1  A    between atoms: C_6  and  C_12
REMARK    2  A    between atoms: C_6  and  C_16
REMARK    3  A    between atoms: C_12  and  C_13
REMARK    4  A    between atoms: C_16  and  C_17
REMARK                            x       y       z     vdW  Elec       q    Type
REMARK                         _______ _______ _______ _____ _____    ______ ____
ROOT
ATOM      1  O   UNL     1      36.065 -25.967 -15.827  0.00  0.00    -0.274 OA
ATOM      2  O   UNL     1      34.199 -23.861 -12.067  0.00  0.00    -0.274 OA
ATOM      3  O   UNL     1      38.319 -25.867 -11.831  0.00  0.00    -0.252 OA
ATOM      4  N   UNL     1      37.232 -25.830 -13.858  0.00  0.00    -0.239 N 
ATOM      5  N   UNL     1      36.300 -24.778 -11.979  0.00  0.00    -0.239 N 
ATOM      6  C   UNL     1      35.284 -24.373 -14.175  0.00  0.00    +0.142 C 
ATOM      7  C   UNL     1      36.195 -25.475 -14.706  0.00  0.00    +0.237 C 
ATOM      8  C   UNL     1      35.176 -24.327 -12.654  0.00  0.00    +0.237 C 
ATOM      9  C   UNL     1      37.359 -25.502 -12.513  0.00  0.00    +0.312 C 
ATOM     10  H   UNL     1      37.956 -26.371 -14.249  0.00  0.00    +0.159 HD
ATOM     11  H   UNL     1      36.353 -24.564 -11.020  0.00  0.00    +0.159 HD
ENDROOT
BRANCH   6  12
ATOM     12  C   UNL     1      33.883 -24.527 -14.784  0.00  0.00    +0.018 C 
BRANCH  12  13
ATOM     13  C   UNL     1      33.336 -23.221 -15.372  0.00  0.00    +0.001 C 
ATOM     14  C   UNL     1      33.142 -23.294 -16.887  0.00  0.00    +0.000 C 
ATOM     15  C   UNL     1      32.006 -22.878 -14.696  0.00  0.00    +0.000 C 
ENDBRANCH  12  13
ENDBRANCH   6  12
BRANCH   6  16
ATOM     16  C   UNL     1      35.890 -23.032 -14.626  0.00  0.00    +0.043 C 
BRANCH  16  17
ATOM     17  C   UNL     1      36.815 -23.230 -15.779  0.00  0.00    -0.025 C 
ATOM     18  C   UNL     1      37.219 -22.242 -16.585  0.00  0.00    -0.005 C 
ENDBRANCH  16  17
ENDBRANCH   6  16
TORSDOF 4
ENDMDL
MODEL 3
REMARK VINA RESULT:      -6.9      0.946      3.417
REMARK  Name = 2481
REMARK  4 active torsions:
REMARK  status: ('A' for Active; 'I' for Inactive)
REMARK    1  A    between atoms: C_6  and  C_12
REMARK    2  A    between atoms: C_6  and  C_16
REMARK    3  A    between atoms: C_12  and  C_13
REMARK    4  A    between atoms: C_16  and  C_17
REMARK                            x       y       z     vdW  Elec       q    Type
REMARK                         _______ _______ _______ _____ _____    ______ ____
ROOT
ATOM      1  O   UNL     1      37.202 -23.349 -16.210  0.00  0.00    -0.274 OA
ATOM      2  O   UNL     1      36.909 -26.861 -13.106  0.00  0.00    -0.274 OA
ATOM      3  O   UNL     1      40.985 -25.427 -14.651  0.00  0.00    -0.252 OA
ATOM      4  N   UNL     1      39.095 -24.322 -15.355  0.00  0.00    -0.239 N 
ATOM      5  N   UNL     1      38.948 -26.076 -13.805  0.00  0.00    -0.239 N 
ATOM      6  C   UNL     1      36.956 -24.704 -14.214  0.00  0.00    +0.142 C 
ATOM      7  C   UNL     1      37.731 -24.075 -15.368  0.00  0.00    +0.237 C 
ATOM      8  C   UNL     1      37.571 -25.992 -13.675  0.00  0.00    +0.237 C 
ATOM      9  C   UNL     1      39.763 -25.274 -14.594  0.00  0.00    +0.312 C 
ATOM     10  H   UNL     1      39.649 -23.763 -15.947  0.00  0.00    +0.159 HD
ATOM     11  H   UNL     1      39.398 -26.780 -13.283  0.00  0.00    +0.159 HD
ENDROOT
BRANCH   6  12
ATOM     12  C   UNL     1      35.509 -24.969 -14.650  0.00  0.00    +0.018 C 
BRANCH  12  13
ATOM     13  C   UNL     1      34.563 -23.804 -14.337  0.00  0.00    +0.001 C 
ATOM     14  C   UNL     1      34.053 -23.105 -15.598  0.00  0.00    +0.000 C 
ATOM     15  C   UNL     1      33.378 -24.319 -13.515  0.00  0.00    +0.000 C 
ENDBRANCH  12  13
ENDBRANCH   6  12
BRANCH   6  16
ATOM     16  C   UNL     1      36.962 -23.685 -13.060  0.00  0.00    +0.043 C 
BRANCH  16  17
ATOM     17  C   UNL     1      36.885 -24.379 -11.741  0.00  0.00    -0.025 C 
ATOM     18  C   UNL     1      35.893 -24.196 -10.863  0.00  0.00    -0.005 C 
ENDBRANCH  16  17
ENDBRANCH   6  16
TORSDOF 4
ENDMDL
MODEL 4
REMARK VINA RESULT:      -6.9      1.877      2.393
REMARK  Name = 2481
REMARK  4 active torsions:
REMARK  status: ('A' for Active; 'I' for Inactive)
REMARK    1  A    between atoms: C_6  and  C_12
REMARK    2  A    between atoms: C_6  and  C_16
REMARK    3  A    between atoms: C_12  and  C_13
REMARK    4  A    between atoms: C_16  and  C_17
REMARK                            x       y       z     vdW  Elec       q    Type
REMARK                         _______ _______ _______ _____ _____    ______ ____
ROOT
ATOM      1  O   UNL     1      35.745 -25.535 -15.760  0.00  0.00    -0.274 OA
ATOM      2  O   UNL     1      38.150 -23.097 -12.547  0.00  0.00    -0.274 OA
ATOM      3  O   UNL     1      39.970 -26.822 -14.515  0.00  0.00    -0.252 OA
ATOM      4  N   UNL     1      37.894 -26.118 -15.209  0.00  0.00    -0.239 N 
ATOM      5  N   UNL     1      39.095 -24.901 -13.603  0.00  0.00    -0.239 N 
ATOM      6  C   UNL     1      37.077 -23.894 -14.570  0.00  0.00    +0.142 C 
ATOM      7  C   UNL     1      36.812 -25.251 -15.215  0.00  0.00    +0.237 C 
ATOM      8  C   UNL     1      38.124 -23.921 -13.461  0.00  0.00    +0.237 C 
ATOM      9  C   UNL     1      39.058 -25.995 -14.459  0.00  0.00    +0.312 C 
ATOM     10  H   UNL     1      37.831 -26.905 -15.798  0.00  0.00    +0.159 HD
ATOM     11  H   UNL     1      39.896 -24.812 -13.038  0.00  0.00    +0.159 HD
ENDROOT
BRANCH   6  12
ATOM     12  C   UNL     1      35.763 -23.321 -14.021  0.00  0.00    +0.018 C 
BRANCH  12  13
ATOM     13  C   UNL     1      34.960 -24.337 -13.200  0.00  0.00    +0.001 C 
ATOM     14  C   UNL     1      35.161 -24.166 -11.694  0.00  0.00    +0.000 C 
ATOM     15  C   UNL     1      33.474 -24.204 -13.542  0.00  0.00    +0.000 C 
ENDBRANCH  12  13
ENDBRANCH   6  12
BRANCH   6  16
ATOM     16  C   UNL     1      37.614 -22.968 -15.675  0.00  0.00    +0.043 C 
BRANCH  16  17
ATOM     17  C   UNL     1      36.493 -22.397 -16.478  0.00  0.00    -0.025 C 
ATOM     18  C   UNL     1      36.662 -21.772 -17.648  0.00  0.00    -0.005 C 
ENDBRANCH  16  17
ENDBRANCH   6  16
TORSDOF 4
ENDMDL
MODEL 5
REMARK VINA RESULT:      -6.8     17.664     19.703
REMARK  Name = 2481
REMARK  4 active torsions:
REMARK  status: ('A' for Active; 'I' for Inactive)
REMARK    1  A    between atoms: C_6  and  C_12
REMARK    2  A    between atoms: C_6  and  C_16
REMARK    3  A    between atoms: C_12  and  C_13
REMARK    4  A    between atoms: C_16  and  C_17
REMARK                            x       y       z     vdW  Elec       q    Type
REMARK                         _______ _______ _______ _____ _____    ______ ____
ROOT
ATOM      1  O   UNL     1      32.791  -7.236 -19.527  0.00  0.00    -0.274 OA
ATOM      2  O   UNL     1      31.119  -8.787 -23.631  0.00  0.00    -0.274 OA
ATOM      3  O   UNL     1      30.194  -4.535 -22.175  0.00  0.00    -0.252 OA
ATOM      4  N   UNL     1      31.576  -5.856 -20.897  0.00  0.00    -0.239 N 
ATOM      5  N   UNL     1      30.740  -6.631 -22.947  0.00  0.00    -0.239 N 
ATOM      6  C   UNL     1      32.499  -7.928 -21.832  0.00  0.00    +0.142 C 
ATOM      7  C   UNL     1      32.297  -7.010 -20.631  0.00  0.00    +0.237 C 
ATOM      8  C   UNL     1      31.384  -7.857 -22.871  0.00  0.00    +0.237 C 
ATOM      9  C   UNL     1      30.808  -5.593 -22.025  0.00  0.00    +0.312 C 
ATOM     10  H   UNL     1      31.612  -5.147 -20.214  0.00  0.00    +0.159 HD
ATOM     11  H   UNL     1      30.174  -6.479 -23.738  0.00  0.00    +0.159 HD
ENDROOT
BRANCH   6  12
ATOM     12  C   UNL     1      32.660  -9.377 -21.350  0.00  0.00    +0.018 C 
BRANCH  12  13
ATOM     13  C   UNL     1      31.407  -9.921 -20.655  0.00  0.00    +0.001 C 
ATOM     14  C   UNL     1      30.827 -11.146 -21.362  0.00  0.00    +0.000 C 
ATOM     15  C   UNL     1      31.745 -10.273 -19.204  0.00  0.00    +0.000 C 
ENDBRANCH  12  13
ENDBRANCH   6  12
BRANCH   6  16
ATOM     16  C   UNL     1      33.795  -7.477 -22.531  0.00  0.00    +0.043 C 
BRANCH  16  17
ATOM     17  C   UNL     1      33.941  -8.146 -23.857  0.00  0.00    -0.025 C 
ATOM     18  C   UNL     1      34.909  -9.024 -24.143  0.00  0.00    -0.005 C 
ENDBRANCH  16  17
ENDBRANCH   6  16
TORSDOF 4
ENDMDL
MODEL 6
REMARK VINA RESULT:      -6.7      2.803      4.255
REMARK  Name = 2481
REMARK  4 active torsions:
REMARK  status: ('A' for Active; 'I' for Inactive)
REMARK    1  A    between atoms: C_6  and  C_12
REMARK    2  A    between atoms: C_6  and  C_16
REMARK    3  A    between atoms: C_12  and  C_13
REMARK    4  A    between atoms: C_16  and  C_17
REMARK                            x       y       z     vdW  Elec       q    Type
REMARK                         _______ _______ _______ _____ _____    ______ ____
ROOT
ATOM      1  O   UNL     1      36.577 -22.787 -12.165  0.00  0.00    -0.274 OA
ATOM      2  O   UNL     1      36.033 -25.716 -15.795  0.00  0.00    -0.274 OA
ATOM      3  O   UNL     1      32.492 -24.670 -13.071  0.00  0.00    -0.252 OA
ATOM      4  N   UNL     1      34.516 -23.650 -12.678  0.00  0.00    -0.239 N 
ATOM      5  N   UNL     1      34.244 -25.114 -14.491  0.00  0.00    -0.239 N 
ATOM      6  C   UNL     1      36.298 -23.779 -14.360  0.00  0.00    +0.142 C 
ATOM      7  C   UNL     1      35.845 -23.374 -12.961  0.00  0.00    +0.237 C 
ATOM      8  C   UNL     1      35.548 -24.973 -14.942  0.00  0.00    +0.237 C 
ATOM      9  C   UNL     1      33.664 -24.478 -13.401  0.00  0.00    +0.312 C 
ATOM     10  H   UNL     1      34.135 -23.215 -11.882  0.00  0.00    +0.159 HD
ATOM     11  H   UNL     1      33.667 -25.731 -14.998  0.00  0.00    +0.159 HD
ENDROOT
BRANCH   6  12
ATOM     12  C   UNL     1      37.804 -24.076 -14.347  0.00  0.00    +0.018 C 
BRANCH  12  13
ATOM     13  C   UNL     1      38.126 -25.534 -14.000  0.00  0.00    +0.001 C 
ATOM     14  C   UNL     1      39.428 -26.017 -14.642  0.00  0.00    +0.000 C 
ATOM     15  C   UNL     1      38.210 -25.688 -12.480  0.00  0.00    +0.000 C 
ENDBRANCH  12  13
ENDBRANCH   6  12
BRANCH   6  16
ATOM     16  C   UNL     1      36.024 -22.580 -15.286  0.00  0.00    +0.043 C 
BRANCH  16  17
ATOM     17  C   UNL     1      37.091 -22.458 -16.323  0.00  0.00    -0.025 C 
ATOM     18  C   UNL     1      36.952 -21.753 -17.451  0.00  0.00    -0.005 C 
ENDBRANCH  16  17
ENDBRANCH   6  16
TORSDOF 4
ENDMDL
MODEL 7
REMARK VINA RESULT:      -6.7      2.697      4.652
REMARK  Name = 2481
REMARK  4 active torsions:
REMARK  status: ('A' for Active; 'I' for Inactive)
REMARK    1  A    between atoms: C_6  and  C_12
REMARK    2  A    between atoms: C_6  and  C_16
REMARK    3  A    between atoms: C_12  and  C_13
REMARK    4  A    between atoms: C_16  and  C_17
REMARK                            x       y       z     vdW  Elec       q    Type
REMARK                         _______ _______ _______ _____ _____    ______ ____
ROOT
ATOM      1  O   UNL     1      34.166 -24.079 -14.012  0.00  0.00    -0.274 OA
ATOM      2  O   UNL     1      38.129 -22.387 -12.146  0.00  0.00    -0.274 OA
ATOM      3  O   UNL     1      35.310 -25.028  -9.670  0.00  0.00    -0.252 OA
ATOM      4  N   UNL     1      34.789 -24.633 -11.875  0.00  0.00    -0.239 N 
ATOM      5  N   UNL     1      36.768 -23.787 -10.943  0.00  0.00    -0.239 N 
ATOM      6  C   UNL     1      36.467 -23.655 -13.374  0.00  0.00    +0.142 C 
ATOM      7  C   UNL     1      35.030 -24.109 -13.136  0.00  0.00    +0.237 C 
ATOM      8  C   UNL     1      37.193 -23.185 -12.118  0.00  0.00    +0.237 C 
ATOM      9  C   UNL     1      35.610 -24.532 -10.758  0.00  0.00    +0.312 C 
ATOM     10  H   UNL     1      33.946 -25.129 -11.758  0.00  0.00    +0.159 HD
ATOM     11  H   UNL     1      37.349 -23.674 -10.156  0.00  0.00    +0.159 HD
ENDROOT
BRANCH   6  12
ATOM     12  C   UNL     1      36.484 -22.537 -14.426  0.00  0.00    +0.018 C 
BRANCH  12  13
ATOM     13  C   UNL     1      36.638 -23.060 -15.859  0.00  0.00    +0.001 C 
ATOM     14  C   UNL     1      35.391 -22.818 -16.710  0.00  0.00    +0.000 C 
ATOM     15  C   UNL     1      37.850 -22.395 -16.515  0.00  0.00    +0.000 C 
ENDBRANCH  12  13
ENDBRANCH   6  12
BRANCH   6  16
ATOM     16  C   UNL     1      37.240 -24.872 -13.913  0.00  0.00    +0.043 C 
BRANCH  16  17
ATOM     17  C   UNL     1      38.625 -24.907 -13.357  0.00  0.00    -0.025 C 
ATOM     18  C   UNL     1      39.677 -25.403 -14.018  0.00  0.00    -0.005 C 
ENDBRANCH  16  17
ENDBRANCH   6  16
TORSDOF 4
ENDMDL
MODEL 8
REMARK VINA RESULT:      -6.7      2.110      4.184
REMARK  Name = 2481
REMARK  4 active torsions:
REMARK  status: ('A' for Active; 'I' for Inactive)
REMARK    1  A    between atoms: C_6  and  C_12
REMARK    2  A    between atoms: C_6  and  C_16
REMARK    3  A    between atoms: C_12  and  C_13
REMARK    4  A    between atoms: C_16  and  C_17
REMARK                            x       y       z     vdW  Elec       q    Type
REMARK                         _______ _______ _______ _____ _____    ______ ____
ROOT
ATOM      1  O   UNL     1      33.539 -23.959 -12.892  0.00  0.00    -0.274 OA
ATOM      2  O   UNL     1      37.448 -22.634 -15.132  0.00  0.00    -0.274 OA
ATOM      3  O   UNL     1      37.664 -24.560 -10.972  0.00  0.00    -0.252 OA
ATOM      4  N   UNL     1      35.606 -24.349 -11.978  0.00  0.00    -0.239 N 
ATOM      5  N   UNL     1      37.559 -23.686 -13.096  0.00  0.00    -0.239 N 
ATOM      6  C   UNL     1      35.460 -23.790 -14.363  0.00  0.00    +0.142 C 
ATOM      7  C   UNL     1      34.762 -24.010 -13.024  0.00  0.00    +0.237 C 
ATOM      8  C   UNL     1      36.895 -23.286 -14.246  0.00  0.00    +0.237 C 
ATOM      9  C   UNL     1      36.992 -24.237 -11.954  0.00  0.00    +0.312 C 
ATOM     10  H   UNL     1      35.179 -24.706 -11.166  0.00  0.00    +0.159 HD
ATOM     11  H   UNL     1      38.536 -23.567 -13.088  0.00  0.00    +0.159 HD
ENDROOT
BRANCH   6  12
ATOM     12  C   UNL     1      34.640 -22.811 -15.215  0.00  0.00    +0.018 C 
BRANCH  12  13
ATOM     13  C   UNL     1      33.849 -23.503 -16.331  0.00  0.00    +0.001 C 
ATOM     14  C   UNL     1      32.337 -23.419 -16.119  0.00  0.00    +0.000 C 
ATOM     15  C   UNL     1      34.218 -22.875 -17.678  0.00  0.00    +0.000 C 
ENDBRANCH  12  13
ENDBRANCH   6  12
BRANCH   6  16
ATOM     16  C   UNL     1      35.518 -25.156 -15.070  0.00  0.00    +0.043 C 
BRANCH  16  17
ATOM     17  C   UNL     1      36.915 -25.679 -15.097  0.00  0.00    -0.025 C 
ATOM     18  C   UNL     1      37.249 -26.922 -14.731  0.00  0.00    -0.005 C 
ENDBRANCH  16  17
ENDBRANCH   6  16
TORSDOF 4
ENDMDL
MODEL 9
REMARK VINA RESULT:      -6.7     17.499     19.705
REMARK  Name = 2481
REMARK  4 active torsions:
REMARK  status: ('A' for Active; 'I' for Inactive)
REMARK    1  A    between atoms: C_6  and  C_12
REMARK    2  A    between atoms: C_6  and  C_16
REMARK    3  A    between atoms: C_12  and  C_13
REMARK    4  A    between atoms: C_16  and  C_17
REMARK                            x       y       z     vdW  Elec       q    Type
REMARK                         _______ _______ _______ _____ _____    ______ ____
ROOT
ATOM      1  O   UNL     1      31.321  -8.513 -23.627  0.00  0.00    -0.274 OA
ATOM      2  O   UNL     1      32.929  -6.693 -19.608  0.00  0.00    -0.274 OA
ATOM      3  O   UNL     1      31.348 -10.998 -19.770  0.00  0.00    -0.252 OA
ATOM      4  N   UNL     1      31.428  -9.785 -21.722  0.00  0.00    -0.239 N 
ATOM      5  N   UNL     1      32.230  -8.876 -19.714  0.00  0.00    -0.239 N 
ATOM      6  C   UNL     1      32.695  -7.685 -21.808  0.00  0.00    +0.142 C 
ATOM      7  C   UNL     1      31.737  -8.665 -22.479  0.00  0.00    +0.237 C 
ATOM      8  C   UNL     1      32.613  -7.672 -20.285  0.00  0.00    +0.237 C 
ATOM      9  C   UNL     1      31.663  -9.965 -20.364  0.00  0.00    +0.312 C 
ATOM     10  H   UNL     1      30.996 -10.532 -22.197  0.00  0.00    +0.159 HD
ATOM     11  H   UNL     1      32.375  -8.969 -18.744  0.00  0.00    +0.159 HD
ENDROOT
BRANCH   6  12
ATOM     12  C   UNL     1      32.443  -6.270 -22.348  0.00  0.00    +0.018 C 
BRANCH  12  13
ATOM     13  C   UNL     1      30.973  -6.011 -22.695  0.00  0.00    +0.001 C 
ATOM     14  C   UNL     1      30.243  -5.220 -21.609  0.00  0.00    +0.000 C 
ATOM     15  C   UNL     1      30.890  -5.260 -24.026  0.00  0.00    +0.000 C 
ENDBRANCH  12  13
ENDBRANCH   6  12
BRANCH   6  16
ATOM     16  C   UNL     1      34.122  -8.126 -22.180  0.00  0.00    +0.043 C 
BRANCH  16  17
ATOM     17  C   UNL     1      34.591  -7.418 -23.407  0.00  0.00    -0.025 C 
ATOM     18  C   UNL     1      34.721  -8.009 -24.600  0.00  0.00    -0.005 C 
ENDBRANCH  16  17
ENDBRANCH   6  16
TORSDOF 4
ENDMDL
