MODEL 1
REMARK VINA RESULT:      -9.9      0.000      0.000
REMARK  Name = 300471
REMARK  8 active torsions:
REMARK  status: ('A' for Active; 'I' for Inactive)
REMARK    1  A    between atoms: C_1  and  C_4
REMARK    2  A    between atoms: C_1  and  C_18
REMARK    3  A    between atoms: N_3  and  N_6
REMARK    4  A    between atoms: N_6  and  C_9
REMARK    5  A    between atoms: C_9  and  C_10
REMARK    6  A    between atoms: N_17  and  N_20
REMARK    7  A    between atoms: N_20  and  C_23
REMARK    8  A    between atoms: C_23  and  C_24
REMARK                            x       y       z     vdW  Elec       q    Type
REMARK                         _______ _______ _______ _____ _____    ______ ____
ROOT
ATOM      1  C   UNL     1      33.046 -14.314 -23.861  0.00  0.00    +0.173 C 
ENDROOT
BRANCH   1   4
ATOM      2  O   UNL     1      32.584 -13.341 -21.717  0.00  0.00    -0.273 OA
ATOM      3  N   UNL     1      32.544 -11.973 -23.597  0.00  0.00    -0.232 N 
ATOM      4  C   UNL     1      32.689 -13.176 -22.931  0.00  0.00    +0.247 C 
ATOM      5  H   UNL     1      32.645 -11.934 -24.575  0.00  0.00    +0.173 HD
BRANCH   3   6
ATOM      6  N   UNL     1      32.255 -10.817 -22.879  0.00  0.00    -0.230 N 
ATOM      7  C   UNL     1      31.205 -11.041 -21.891  0.00  0.00    +0.136 C 
BRANCH   6   9
ATOM      8  S   UNL     1      34.407  -9.547 -23.995  0.00  0.00    -0.033 S 
ATOM      9  C   UNL     1      32.962  -9.640 -23.124  0.00  0.00    +0.100 C 
BRANCH   9  10
ATOM     10  C   UNL     1      32.387  -8.393 -22.561  0.00  0.00    +0.021 C 
ATOM     11  C   UNL     1      31.423  -7.684 -23.277  0.00  0.00    +0.002 C 
ATOM     12  C   UNL     1      32.811  -7.930 -21.315  0.00  0.00    +0.002 C 
ATOM     13  C   UNL     1      30.882  -6.512 -22.748  0.00  0.00    +0.000 C 
ATOM     14  C   UNL     1      32.271  -6.757 -20.787  0.00  0.00    +0.000 C 
ATOM     15  C   UNL     1      31.307  -6.049 -21.503  0.00  0.00    +0.000 C 
ENDBRANCH   9  10
ENDBRANCH   6   9
ENDBRANCH   3   6
ENDBRANCH   1   4
BRANCH   1  18
ATOM     16  O   UNL     1      35.283 -15.183 -23.635  0.00  0.00    -0.273 OA
ATOM     17  N   UNL     1      33.573 -16.136 -22.387  0.00  0.00    -0.232 N 
ATOM     18  C   UNL     1      34.102 -15.242 -23.303  0.00  0.00    +0.247 C 
ATOM     19  H   UNL     1      32.612 -16.119 -22.173  0.00  0.00    +0.173 HD
BRANCH  17  20
ATOM     20  N   UNL     1      34.412 -17.055 -21.771  0.00  0.00    -0.230 N 
ATOM     21  C   UNL     1      34.981 -16.536 -20.532  0.00  0.00    +0.136 C 
BRANCH  20  23
ATOM     22  S   UNL     1      34.786 -18.759 -23.893  0.00  0.00    -0.033 S 
ATOM     23  C   UNL     1      34.508 -18.351 -22.275  0.00  0.00    +0.100 C 
BRANCH  23  24
ATOM     24  C   UNL     1      34.345 -19.441 -21.288  0.00  0.00    +0.021 C 
ATOM     25  C   UNL     1      35.461 -20.144 -20.834  0.00  0.00    +0.002 C 
ATOM     26  C   UNL     1      33.075 -19.765 -20.809  0.00  0.00    +0.002 C 
ATOM     27  C   UNL     1      35.307 -21.171 -19.902  0.00  0.00    +0.000 C 
ATOM     28  C   UNL     1      32.922 -20.792 -19.879  0.00  0.00    +0.000 C 
ATOM     29  C   UNL     1      34.038 -21.494 -19.425  0.00  0.00    +0.000 C 
ENDBRANCH  23  24
ENDBRANCH  20  23
ENDBRANCH  17  20
ENDBRANCH   1  18
TORSDOF 8
ENDMDL
MODEL 2
REMARK VINA RESULT:      -9.8      0.123     10.262
REMARK  Name = 300471
REMARK  8 active torsions:
REMARK  status: ('A' for Active; 'I' for Inactive)
REMARK    1  A    between atoms: C_1  and  C_4
REMARK    2  A    between atoms: C_1  and  C_18
REMARK    3  A    between atoms: N_3  and  N_6
REMARK    4  A    between atoms: N_6  and  C_9
REMARK    5  A    between atoms: C_9  and  C_10
REMARK    6  A    between atoms: N_17  and  N_20
REMARK    7  A    between atoms: N_20  and  C_23
REMARK    8  A    between atoms: C_23  and  C_24
REMARK                            x       y       z     vdW  Elec       q    Type
REMARK                         _______ _______ _______ _____ _____    ______ ____
ROOT
ATOM      1  C   UNL     1      33.108 -14.309 -23.935  0.00  0.00    +0.173 C 
ENDROOT
BRANCH   1   4
ATOM      2  O   UNL     1      35.304 -15.240 -23.680  0.00  0.00    -0.273 OA
ATOM      3  N   UNL     1      33.561 -16.130 -22.424  0.00  0.00    -0.232 N 
ATOM      4  C   UNL     1      34.118 -15.273 -23.356  0.00  0.00    +0.247 C 
ATOM      5  H   UNL     1      32.598 -16.086 -22.226  0.00  0.00    +0.173 HD
BRANCH   3   6
ATOM      6  N   UNL     1      34.366 -17.053 -21.766  0.00  0.00    -0.230 N 
ATOM      7  C   UNL     1      34.966 -16.488 -20.563  0.00  0.00    +0.136 C 
BRANCH   6   9
ATOM      8  S   UNL     1      34.787 -18.746 -23.875  0.00  0.00    -0.033 S 
ATOM      9  C   UNL     1      34.497 -18.352 -22.257  0.00  0.00    +0.100 C 
BRANCH   9  10
ATOM     10  C   UNL     1      34.360 -19.451 -21.269  0.00  0.00    +0.021 C 
ATOM     11  C   UNL     1      33.103 -19.788 -20.769  0.00  0.00    +0.002 C 
ATOM     12  C   UNL     1      35.490 -20.147 -20.840  0.00  0.00    +0.002 C 
ATOM     13  C   UNL     1      32.974 -20.821 -19.841  0.00  0.00    +0.000 C 
ATOM     14  C   UNL     1      35.362 -21.180 -19.911  0.00  0.00    +0.000 C 
ATOM     15  C   UNL     1      34.104 -21.516 -19.412  0.00  0.00    +0.000 C 
ENDBRANCH   9  10
ENDBRANCH   6   9
ENDBRANCH   3   6
ENDBRANCH   1   4
BRANCH   1  18
ATOM     16  O   UNL     1      32.642 -13.304 -21.793  0.00  0.00    -0.273 OA
ATOM     17  N   UNL     1      32.618 -11.971 -23.694  0.00  0.00    -0.232 N 
ATOM     18  C   UNL     1      32.764 -13.165 -23.008  0.00  0.00    +0.247 C 
ATOM     19  H   UNL     1      32.733 -11.941 -24.671  0.00  0.00    +0.173 HD
BRANCH  17  20
ATOM     20  N   UNL     1      32.310 -10.814 -22.989  0.00  0.00    -0.230 N 
ATOM     21  C   UNL     1      31.317 -11.055 -21.947  0.00  0.00    +0.136 C 
BRANCH  20  23
ATOM     22  S   UNL     1      34.521  -9.555 -24.023  0.00  0.00    -0.033 S 
ATOM     23  C   UNL     1      33.035  -9.646 -23.221  0.00  0.00    +0.100 C 
BRANCH  23  24
ATOM     24  C   UNL     1      32.429  -8.399 -22.707  0.00  0.00    +0.021 C 
ATOM     25  C   UNL     1      32.882  -7.846 -21.508  0.00  0.00    +0.002 C 
ATOM     26  C   UNL     1      31.406  -7.774 -23.420  0.00  0.00    +0.002 C 
ATOM     27  C   UNL     1      32.311  -6.669 -21.024  0.00  0.00    +0.000 C 
ATOM     28  C   UNL     1      30.835  -6.598 -22.934  0.00  0.00    +0.000 C 
ATOM     29  C   UNL     1      31.288  -6.046 -21.736  0.00  0.00    +0.000 C 
ENDBRANCH  23  24
ENDBRANCH  20  23
ENDBRANCH  17  20
ENDBRANCH   1  18
TORSDOF 8
ENDMDL
MODEL 3
REMARK VINA RESULT:      -9.8      3.038      4.481
REMARK  Name = 300471
REMARK  8 active torsions:
REMARK  status: ('A' for Active; 'I' for Inactive)
REMARK    1  A    between atoms: C_1  and  C_4
REMARK    2  A    between atoms: C_1  and  C_18
REMARK    3  A    between atoms: N_3  and  N_6
REMARK    4  A    between atoms: N_6  and  C_9
REMARK    5  A    between atoms: C_9  and  C_10
REMARK    6  A    between atoms: N_17  and  N_20
REMARK    7  A    between atoms: N_20  and  C_23
REMARK    8  A    between atoms: C_23  and  C_24
REMARK                            x       y       z     vdW  Elec       q    Type
REMARK                         _______ _______ _______ _____ _____    ______ ____
ROOT
ATOM      1  C   UNL     1      34.912 -10.387 -24.487  0.00  0.00    +0.173 C 
ENDROOT
BRANCH   1   4
ATOM      2  O   UNL     1      35.033  -8.207 -23.492  0.00  0.00    -0.273 OA
ATOM      3  N   UNL     1      32.942  -9.167 -23.828  0.00  0.00    -0.232 N 
ATOM      4  C   UNL     1      34.324  -9.138 -23.870  0.00  0.00    +0.247 C 
ATOM      5  H   UNL     1      32.454  -9.958 -24.153  0.00  0.00    +0.173 HD
BRANCH   3   6
ATOM      6  N   UNL     1      32.243  -8.075 -23.327  0.00  0.00    -0.230 N 
ATOM      7  C   UNL     1      31.676  -7.258 -24.394  0.00  0.00    +0.136 C 
BRANCH   6   9
ATOM      8  S   UNL     1      32.286  -6.396 -21.166  0.00  0.00    -0.033 S 
ATOM      9  C   UNL     1      32.124  -7.885 -21.950  0.00  0.00    +0.100 C 
BRANCH   9  10
ATOM     10  C   UNL     1      31.843  -9.093 -21.135  0.00  0.00    +0.021 C 
ATOM     11  C   UNL     1      32.242  -9.143 -19.800  0.00  0.00    +0.002 C 
ATOM     12  C   UNL     1      31.181 -10.180 -21.706  0.00  0.00    +0.002 C 
ATOM     13  C   UNL     1      31.978 -10.278 -19.034  0.00  0.00    +0.000 C 
ATOM     14  C   UNL     1      30.917 -11.316 -20.941  0.00  0.00    +0.000 C 
ATOM     15  C   UNL     1      31.316 -11.365 -19.605  0.00  0.00    +0.000 C 
ENDBRANCH   9  10
ENDBRANCH   6   9
ENDBRANCH   3   6
ENDBRANCH   1   4
BRANCH   1  18
ATOM     16  O   UNL     1      32.967 -11.473 -25.409  0.00  0.00    -0.273 OA
ATOM     17  N   UNL     1      34.218 -12.580 -23.798  0.00  0.00    -0.232 N 
ATOM     18  C   UNL     1      33.917 -11.516 -24.631  0.00  0.00    +0.247 C 
ATOM     19  H   UNL     1      35.001 -12.539 -23.201  0.00  0.00    +0.173 HD
BRANCH  17  20
ATOM     20  N   UNL     1      33.407 -13.707 -23.812  0.00  0.00    -0.230 N 
ATOM     21  C   UNL     1      32.296 -13.597 -22.872  0.00  0.00    +0.136 C 
BRANCH  20  23
ATOM     22  S   UNL     1      33.214 -14.605 -26.402  0.00  0.00    -0.033 S 
ATOM     23  C   UNL     1      33.622 -14.704 -24.763  0.00  0.00    +0.100 C 
BRANCH  23  24
ATOM     24  C   UNL     1      34.257 -15.944 -24.265  0.00  0.00    +0.021 C 
ATOM     25  C   UNL     1      34.270 -17.089 -25.061  0.00  0.00    +0.002 C 
ATOM     26  C   UNL     1      34.844 -15.968 -23.000  0.00  0.00    +0.002 C 
ATOM     27  C   UNL     1      34.870 -18.258 -24.592  0.00  0.00    +0.000 C 
ATOM     28  C   UNL     1      35.442 -17.137 -22.531  0.00  0.00    +0.000 C 
ATOM     29  C   UNL     1      35.455 -18.281 -23.327  0.00  0.00    +0.000 C 
ENDBRANCH  23  24
ENDBRANCH  20  23
ENDBRANCH  17  20
ENDBRANCH   1  18
TORSDOF 8
ENDMDL
MODEL 4
REMARK VINA RESULT:      -9.8      1.791      2.353
REMARK  Name = 300471
REMARK  8 active torsions:
REMARK  status: ('A' for Active; 'I' for Inactive)
REMARK    1  A    between atoms: C_1  and  C_4
REMARK    2  A    between atoms: C_1  and  C_18
REMARK    3  A    between atoms: N_3  and  N_6
REMARK    4  A    between atoms: N_6  and  C_9
REMARK    5  A    between atoms: C_9  and  C_10
REMARK    6  A    between atoms: N_17  and  N_20
REMARK    7  A    between atoms: N_20  and  C_23
REMARK    8  A    between atoms: C_23  and  C_24
REMARK                            x       y       z     vdW  Elec       q    Type
REMARK                         _______ _______ _______ _____ _____    ______ ____
ROOT
ATOM      1  C   UNL     1      34.384 -14.653 -21.858  0.00  0.00    +0.173 C 
ENDROOT
BRANCH   1   4
ATOM      2  O   UNL     1      32.522 -14.181 -23.294  0.00  0.00    -0.273 OA
ATOM      3  N   UNL     1      34.136 -12.536 -22.981  0.00  0.00    -0.232 N 
ATOM      4  C   UNL     1      33.576 -13.788 -22.798  0.00  0.00    +0.247 C 
ATOM      5  H   UNL     1      34.987 -12.307 -22.542  0.00  0.00    +0.173 HD
BRANCH   3   6
ATOM      6  N   UNL     1      33.493 -11.603 -23.786  0.00  0.00    -0.230 N 
ATOM      7  C   UNL     1      33.757 -11.836 -25.202  0.00  0.00    +0.136 C 
BRANCH   6   9
ATOM      8  S   UNL     1      31.378 -10.919 -22.189  0.00  0.00    -0.033 S 
ATOM      9  C   UNL     1      32.685 -10.619 -23.218  0.00  0.00    +0.100 C 
BRANCH   9  10
ATOM     10  C   UNL     1      33.013  -9.212 -23.562  0.00  0.00    +0.021 C 
ATOM     11  C   UNL     1      34.344  -8.816 -23.687  0.00  0.00    +0.002 C 
ATOM     12  C   UNL     1      31.988  -8.287 -23.760  0.00  0.00    +0.002 C 
ATOM     13  C   UNL     1      34.652  -7.495 -24.011  0.00  0.00    +0.000 C 
ATOM     14  C   UNL     1      32.296  -6.965 -24.084  0.00  0.00    +0.000 C 
ATOM     15  C   UNL     1      33.627  -6.570 -24.209  0.00  0.00    +0.000 C 
ENDBRANCH   9  10
ENDBRANCH   6   9
ENDBRANCH   3   6
ENDBRANCH   1   4
BRANCH   1  18
ATOM     16  O   UNL     1      35.617 -15.973 -23.454  0.00  0.00    -0.273 OA
ATOM     17  N   UNL     1      34.358 -17.054 -21.831  0.00  0.00    -0.232 N 
ATOM     18  C   UNL     1      34.863 -15.943 -22.485  0.00  0.00    +0.247 C 
ATOM     19  H   UNL     1      33.757 -16.946 -21.058  0.00  0.00    +0.173 HD
BRANCH  17  20
ATOM     20  N   UNL     1      34.707 -18.323 -22.276  0.00  0.00    -0.230 N 
ATOM     21  C   UNL     1      34.233 -18.580 -23.632  0.00  0.00    +0.136 C 
BRANCH  20  23
ATOM     22  S   UNL     1      37.238 -19.040 -21.483  0.00  0.00    -0.033 S 
ATOM     23  C   UNL     1      35.549 -19.121 -21.502  0.00  0.00    +0.100 C 
BRANCH  23  24
ATOM     24  C   UNL     1      34.877 -20.118 -20.639  0.00  0.00    +0.021 C 
ATOM     25  C   UNL     1      35.636 -21.049 -19.929  0.00  0.00    +0.002 C 
ATOM     26  C   UNL     1      33.487 -20.126 -20.533  0.00  0.00    +0.002 C 
ATOM     27  C   UNL     1      35.004 -21.988 -19.115  0.00  0.00    +0.000 C 
ATOM     28  C   UNL     1      32.855 -21.065 -19.719  0.00  0.00    +0.000 C 
ATOM     29  C   UNL     1      33.614 -21.996 -19.010  0.00  0.00    +0.000 C 
ENDBRANCH  23  24
ENDBRANCH  20  23
ENDBRANCH  17  20
ENDBRANCH   1  18
TORSDOF 8
ENDMDL
MODEL 5
REMARK VINA RESULT:      -9.8      1.105      1.843
REMARK  Name = 300471
REMARK  8 active torsions:
REMARK  status: ('A' for Active; 'I' for Inactive)
REMARK    1  A    between atoms: C_1  and  C_4
REMARK    2  A    between atoms: C_1  and  C_18
REMARK    3  A    between atoms: N_3  and  N_6
REMARK    4  A    between atoms: N_6  and  C_9
REMARK    5  A    between atoms: C_9  and  C_10
REMARK    6  A    between atoms: N_17  and  N_20
REMARK    7  A    between atoms: N_20  and  C_23
REMARK    8  A    between atoms: C_23  and  C_24
REMARK                            x       y       z     vdW  Elec       q    Type
REMARK                         _______ _______ _______ _____ _____    ______ ____
ROOT
ATOM      1  C   UNL     1      33.421 -14.488 -23.990  0.00  0.00    +0.173 C 
ENDROOT
BRANCH   1   4
ATOM      2  O   UNL     1      34.064 -13.064 -22.170  0.00  0.00    -0.273 OA
ATOM      3  N   UNL     1      33.022 -12.112 -24.018  0.00  0.00    -0.232 N 
ATOM      4  C   UNL     1      33.534 -13.161 -23.275  0.00  0.00    +0.247 C 
ATOM      5  H   UNL     1      32.614 -12.283 -24.897  0.00  0.00    +0.173 HD
BRANCH   3   6
ATOM      6  N   UNL     1      33.087 -10.816 -23.518  0.00  0.00    -0.230 N 
ATOM      7  C   UNL     1      34.262 -10.104 -24.011  0.00  0.00    +0.136 C 
BRANCH   6   9
ATOM      8  S   UNL     1      31.055 -11.299 -21.751  0.00  0.00    -0.033 S 
ATOM      9  C   UNL     1      32.084 -10.332 -22.679  0.00  0.00    +0.100 C 
BRANCH   9  10
ATOM     10  C   UNL     1      31.924  -8.857 -22.619  0.00  0.00    +0.021 C 
ATOM     11  C   UNL     1      32.432  -8.144 -21.534  0.00  0.00    +0.002 C 
ATOM     12  C   UNL     1      31.266  -8.186 -23.649  0.00  0.00    +0.002 C 
ATOM     13  C   UNL     1      32.282  -6.758 -21.477  0.00  0.00    +0.000 C 
ATOM     14  C   UNL     1      31.115  -6.800 -23.593  0.00  0.00    +0.000 C 
ATOM     15  C   UNL     1      31.624  -6.087 -22.507  0.00  0.00    +0.000 C 
ENDBRANCH   9  10
ENDBRANCH   6   9
ENDBRANCH   3   6
ENDBRANCH   1   4
BRANCH   1  18
ATOM     16  O   UNL     1      35.501 -15.705 -23.929  0.00  0.00    -0.273 OA
ATOM     17  N   UNL     1      33.823 -16.263 -22.424  0.00  0.00    -0.232 N 
ATOM     18  C   UNL     1      34.374 -15.539 -23.468  0.00  0.00    +0.247 C 
ATOM     19  H   UNL     1      32.910 -16.069 -22.111  0.00  0.00    +0.173 HD
BRANCH  17  20
ATOM     20  N   UNL     1      34.572 -17.266 -21.822  0.00  0.00    -0.230 N 
ATOM     21  C   UNL     1      35.251 -16.797 -20.618  0.00  0.00    +0.136 C 
BRANCH  20  23
ATOM     22  S   UNL     1      34.590 -19.033 -23.925  0.00  0.00    -0.033 S 
ATOM     23  C   UNL     1      34.493 -18.573 -22.300  0.00  0.00    +0.100 C 
BRANCH  23  24
ATOM     24  C   UNL     1      34.303 -19.624 -21.277  0.00  0.00    +0.021 C 
ATOM     25  C   UNL     1      33.025 -19.898 -20.788  0.00  0.00    +0.002 C 
ATOM     26  C   UNL     1      35.400 -20.341 -20.800  0.00  0.00    +0.002 C 
ATOM     27  C   UNL     1      32.845 -20.890 -19.824  0.00  0.00    +0.000 C 
ATOM     28  C   UNL     1      35.220 -21.332 -19.835  0.00  0.00    +0.000 C 
ATOM     29  C   UNL     1      33.942 -21.606 -19.348  0.00  0.00    +0.000 C 
ENDBRANCH  23  24
ENDBRANCH  20  23
ENDBRANCH  17  20
ENDBRANCH   1  18
TORSDOF 8
ENDMDL
MODEL 6
REMARK VINA RESULT:      -9.7      1.121     10.279
REMARK  Name = 300471
REMARK  8 active torsions:
REMARK  status: ('A' for Active; 'I' for Inactive)
REMARK    1  A    between atoms: C_1  and  C_4
REMARK    2  A    between atoms: C_1  and  C_18
REMARK    3  A    between atoms: N_3  and  N_6
REMARK    4  A    between atoms: N_6  and  C_9
REMARK    5  A    between atoms: C_9  and  C_10
REMARK    6  A    between atoms: N_17  and  N_20
REMARK    7  A    between atoms: N_20  and  C_23
REMARK    8  A    between atoms: C_23  and  C_24
REMARK                            x       y       z     vdW  Elec       q    Type
REMARK                         _______ _______ _______ _____ _____    ______ ____
ROOT
ATOM      1  C   UNL     1      33.490 -14.501 -24.014  0.00  0.00    +0.173 C 
ENDROOT
BRANCH   1   4
ATOM      2  O   UNL     1      35.528 -15.762 -23.901  0.00  0.00    -0.273 OA
ATOM      3  N   UNL     1      33.809 -16.282 -22.423  0.00  0.00    -0.232 N 
ATOM      4  C   UNL     1      34.392 -15.582 -23.464  0.00  0.00    +0.247 C 
ATOM      5  H   UNL     1      32.891 -16.069 -22.138  0.00  0.00    +0.173 HD
BRANCH   3   6
ATOM      6  N   UNL     1      34.524 -17.285 -21.779  0.00  0.00    -0.230 N 
ATOM      7  C   UNL     1      35.232 -16.778 -20.608  0.00  0.00    +0.136 C 
BRANCH   6   9
ATOM      8  S   UNL     1      34.600 -19.039 -23.877  0.00  0.00    -0.033 S 
ATOM      9  C   UNL     1      34.482 -18.596 -22.251  0.00  0.00    +0.100 C 
BRANCH   9  10
ATOM     10  C   UNL     1      34.313 -19.662 -21.232  0.00  0.00    +0.021 C 
ATOM     11  C   UNL     1      33.044 -19.954 -20.731  0.00  0.00    +0.002 C 
ATOM     12  C   UNL     1      35.423 -20.372 -20.775  0.00  0.00    +0.002 C 
ATOM     13  C   UNL     1      32.885 -20.955 -19.773  0.00  0.00    +0.000 C 
ATOM     14  C   UNL     1      35.264 -21.374 -19.817  0.00  0.00    +0.000 C 
ATOM     15  C   UNL     1      33.995 -21.665 -19.317  0.00  0.00    +0.000 C 
ENDBRANCH   9  10
ENDBRANCH   6   9
ENDBRANCH   3   6
ENDBRANCH   1   4
BRANCH   1  18
ATOM     16  O   UNL     1      34.156 -13.069 -22.192  0.00  0.00    -0.273 OA
ATOM     17  N   UNL     1      33.091 -12.133 -24.030  0.00  0.00    -0.232 N 
ATOM     18  C   UNL     1      33.625 -13.177 -23.294  0.00  0.00    +0.247 C 
ATOM     19  H   UNL     1      32.682 -12.302 -24.909  0.00  0.00    +0.173 HD
BRANCH  17  20
ATOM     20  N   UNL     1      33.141 -10.843 -23.516  0.00  0.00    -0.230 N 
ATOM     21  C   UNL     1      34.250 -10.074 -24.068  0.00  0.00    +0.136 C 
BRANCH  20  23
ATOM     22  S   UNL     1      31.053 -11.361 -21.807  0.00  0.00    -0.033 S 
ATOM     23  C   UNL     1      32.113 -10.385 -22.693  0.00  0.00    +0.100 C 
BRANCH  23  24
ATOM     24  C   UNL     1      31.957  -8.916 -22.614  0.00  0.00    +0.021 C 
ATOM     25  C   UNL     1      31.271  -8.232 -23.618  0.00  0.00    +0.002 C 
ATOM     26  C   UNL     1      32.494  -8.215 -21.535  0.00  0.00    +0.002 C 
ATOM     27  C   UNL     1      31.124  -6.847 -23.543  0.00  0.00    +0.000 C 
ATOM     28  C   UNL     1      32.348  -6.830 -21.460  0.00  0.00    +0.000 C 
ATOM     29  C   UNL     1      31.662  -6.147 -22.464  0.00  0.00    +0.000 C 
ENDBRANCH  23  24
ENDBRANCH  20  23
ENDBRANCH  17  20
ENDBRANCH   1  18
TORSDOF 8
ENDMDL
MODEL 7
REMARK VINA RESULT:      -9.7      1.803     10.455
REMARK  Name = 300471
REMARK  8 active torsions:
REMARK  status: ('A' for Active; 'I' for Inactive)
REMARK    1  A    between atoms: C_1  and  C_4
REMARK    2  A    between atoms: C_1  and  C_18
REMARK    3  A    between atoms: N_3  and  N_6
REMARK    4  A    between atoms: N_6  and  C_9
REMARK    5  A    between atoms: C_9  and  C_10
REMARK    6  A    between atoms: N_17  and  N_20
REMARK    7  A    between atoms: N_20  and  C_23
REMARK    8  A    between atoms: C_23  and  C_24
REMARK                            x       y       z     vdW  Elec       q    Type
REMARK                         _______ _______ _______ _____ _____    ______ ____
ROOT
ATOM      1  C   UNL     1      34.435 -14.640 -21.953  0.00  0.00    +0.173 C 
ENDROOT
BRANCH   1   4
ATOM      2  O   UNL     1      35.584 -15.964 -23.590  0.00  0.00    -0.273 OA
ATOM      3  N   UNL     1      34.443 -17.048 -21.878  0.00  0.00    -0.232 N 
ATOM      4  C   UNL     1      34.880 -15.940 -22.582  0.00  0.00    +0.247 C 
ATOM      5  H   UNL     1      33.880 -16.934 -21.078  0.00  0.00    +0.173 HD
BRANCH   3   6
ATOM      6  N   UNL     1      34.802 -18.322 -22.303  0.00  0.00    -0.230 N 
ATOM      7  C   UNL     1      34.289 -18.613 -23.637  0.00  0.00    +0.136 C 
BRANCH   6   9
ATOM      8  S   UNL     1      37.278 -19.091 -21.426  0.00  0.00    -0.033 S 
ATOM      9  C   UNL     1      35.590 -19.140 -21.493  0.00  0.00    +0.100 C 
BRANCH   9  10
ATOM     10  C   UNL     1      34.870 -20.121 -20.643  0.00  0.00    +0.021 C 
ATOM     11  C   UNL     1      35.585 -21.091 -19.940  0.00  0.00    +0.002 C 
ATOM     12  C   UNL     1      33.480 -20.073 -20.548  0.00  0.00    +0.002 C 
ATOM     13  C   UNL     1      34.909 -22.013 -19.141  0.00  0.00    +0.000 C 
ATOM     14  C   UNL     1      32.803 -20.996 -19.749  0.00  0.00    +0.000 C 
ATOM     15  C   UNL     1      33.519 -21.965 -19.046  0.00  0.00    +0.000 C 
ENDBRANCH   9  10
ENDBRANCH   6   9
ENDBRANCH   3   6
ENDBRANCH   1   4
BRANCH   1  18
ATOM     16  O   UNL     1      32.614 -14.153 -23.456  0.00  0.00    -0.273 OA
ATOM     17  N   UNL     1      34.170 -12.492 -22.994  0.00  0.00    -0.232 N 
ATOM     18  C   UNL     1      33.629 -13.762 -22.884  0.00  0.00    +0.247 C 
ATOM     19  H   UNL     1      34.988 -12.256 -22.501  0.00  0.00    +0.173 HD
BRANCH  17  20
ATOM     20  N   UNL     1      33.544 -11.555 -23.806  0.00  0.00    -0.230 N 
ATOM     21  C   UNL     1      33.761 -11.824 -25.223  0.00  0.00    +0.136 C 
BRANCH  20  23
ATOM     22  S   UNL     1      31.383 -10.924 -22.231  0.00  0.00    -0.033 S 
ATOM     23  C   UNL     1      32.702 -10.599 -23.240  0.00  0.00    +0.100 C 
BRANCH  23  24
ATOM     24  C   UNL     1      33.009  -9.191 -23.572  0.00  0.00    +0.021 C 
ATOM     25  C   UNL     1      34.336  -8.776 -23.691  0.00  0.00    +0.002 C 
ATOM     26  C   UNL     1      31.973  -8.278 -23.768  0.00  0.00    +0.002 C 
ATOM     27  C   UNL     1      34.626  -7.448 -24.005  0.00  0.00    +0.000 C 
ATOM     28  C   UNL     1      32.263  -6.950 -24.081  0.00  0.00    +0.000 C 
ATOM     29  C   UNL     1      33.590  -6.536 -24.200  0.00  0.00    +0.000 C 
ENDBRANCH  23  24
ENDBRANCH  20  23
ENDBRANCH  17  20
ENDBRANCH   1  18
TORSDOF 8
ENDMDL
MODEL 8
REMARK VINA RESULT:      -9.6      1.590      2.409
REMARK  Name = 300471
REMARK  8 active torsions:
REMARK  status: ('A' for Active; 'I' for Inactive)
REMARK    1  A    between atoms: C_1  and  C_4
REMARK    2  A    between atoms: C_1  and  C_18
REMARK    3  A    between atoms: N_3  and  N_6
REMARK    4  A    between atoms: N_6  and  C_9
REMARK    5  A    between atoms: C_9  and  C_10
REMARK    6  A    between atoms: N_17  and  N_20
REMARK    7  A    between atoms: N_20  and  C_23
REMARK    8  A    between atoms: C_23  and  C_24
REMARK                            x       y       z     vdW  Elec       q    Type
REMARK                         _______ _______ _______ _____ _____    ______ ____
ROOT
ATOM      1  C   UNL     1      33.150 -13.894 -23.984  0.00  0.00    +0.173 C 
ENDROOT
BRANCH   1   4
ATOM      2  O   UNL     1      34.201 -12.413 -22.417  0.00  0.00    -0.273 OA
ATOM      3  N   UNL     1      33.022 -11.498 -24.201  0.00  0.00    -0.232 N 
ATOM      4  C   UNL     1      33.512 -12.536 -23.429  0.00  0.00    +0.247 C 
ATOM      5  H   UNL     1      32.477 -11.691 -24.998  0.00  0.00    +0.173 HD
BRANCH   3   6
ATOM      6  N   UNL     1      33.303 -10.183 -23.849  0.00  0.00    -0.230 N 
ATOM      7  C   UNL     1      34.659  -9.800 -24.226  0.00  0.00    +0.136 C 
BRANCH   6   9
ATOM      8  S   UNL     1      31.609  -8.036 -23.950  0.00  0.00    -0.033 S 
ATOM      9  C   UNL     1      32.328  -9.392 -23.242  0.00  0.00    +0.100 C 
BRANCH   9  10
ATOM     10  C   UNL     1      31.915  -9.784 -21.872  0.00  0.00    +0.021 C 
ATOM     11  C   UNL     1      31.094 -10.895 -21.682  0.00  0.00    +0.002 C 
ATOM     12  C   UNL     1      32.348  -9.041 -20.774  0.00  0.00    +0.002 C 
ATOM     13  C   UNL     1      30.705 -11.264 -20.394  0.00  0.00    +0.000 C 
ATOM     14  C   UNL     1      31.959  -9.409 -19.486  0.00  0.00    +0.000 C 
ATOM     15  C   UNL     1      31.138 -10.521 -19.296  0.00  0.00    +0.000 C 
ENDBRANCH   9  10
ENDBRANCH   6   9
ENDBRANCH   3   6
ENDBRANCH   1   4
BRANCH   1  18
ATOM     16  O   UNL     1      32.340 -15.283 -22.187  0.00  0.00    -0.273 OA
ATOM     17  N   UNL     1      34.465 -15.667 -23.040  0.00  0.00    -0.232 N 
ATOM     18  C   UNL     1      33.249 -15.009 -22.968  0.00  0.00    +0.247 C 
ATOM     19  H   UNL     1      35.144 -15.388 -23.696  0.00  0.00    +0.173 HD
BRANCH  17  20
ATOM     20  N   UNL     1      34.717 -16.727 -22.178  0.00  0.00    -0.230 N 
ATOM     21  C   UNL     1      34.854 -16.289 -20.793  0.00  0.00    +0.136 C 
BRANCH  20  23
ATOM     22  S   UNL     1      34.736 -18.491 -24.284  0.00  0.00    -0.033 S 
ATOM     23  C   UNL     1      34.669 -18.036 -22.656  0.00  0.00    +0.100 C 
BRANCH  23  24
ATOM     24  C   UNL     1      34.544 -19.093 -21.629  0.00  0.00    +0.021 C 
ATOM     25  C   UNL     1      33.282 -19.474 -21.171  0.00  0.00    +0.002 C 
ATOM     26  C   UNL     1      35.686 -19.711 -21.120  0.00  0.00    +0.002 C 
ATOM     27  C   UNL     1      33.164 -20.471 -20.203  0.00  0.00    +0.000 C 
ATOM     28  C   UNL     1      35.567 -20.707 -20.152  0.00  0.00    +0.000 C 
ATOM     29  C   UNL     1      34.306 -21.087 -19.694  0.00  0.00    +0.000 C 
ENDBRANCH  23  24
ENDBRANCH  20  23
ENDBRANCH  17  20
ENDBRANCH   1  18
TORSDOF 8
ENDMDL
MODEL 9
REMARK VINA RESULT:      -9.6      1.560      9.450
REMARK  Name = 300471
REMARK  8 active torsions:
REMARK  status: ('A' for Active; 'I' for Inactive)
REMARK    1  A    between atoms: C_1  and  C_4
REMARK    2  A    between atoms: C_1  and  C_18
REMARK    3  A    between atoms: N_3  and  N_6
REMARK    4  A    between atoms: N_6  and  C_9
REMARK    5  A    between atoms: C_9  and  C_10
REMARK    6  A    between atoms: N_17  and  N_20
REMARK    7  A    between atoms: N_20  and  C_23
REMARK    8  A    between atoms: C_23  and  C_24
REMARK                            x       y       z     vdW  Elec       q    Type
REMARK                         _______ _______ _______ _____ _____    ______ ____
ROOT
ATOM      1  C   UNL     1      32.985 -14.033 -23.801  0.00  0.00    +0.173 C 
ENDROOT
BRANCH   1   4
ATOM      2  O   UNL     1      32.284 -15.354 -21.925  0.00  0.00    -0.273 OA
ATOM      3  N   UNL     1      34.350 -15.799 -22.896  0.00  0.00    -0.232 N 
ATOM      4  C   UNL     1      33.155 -15.116 -22.760  0.00  0.00    +0.247 C 
ATOM      5  H   UNL     1      34.991 -15.539 -23.596  0.00  0.00    +0.173 HD
BRANCH   3   6
ATOM      6  N   UNL     1      34.642 -16.856 -22.040  0.00  0.00    -0.230 N 
ATOM      7  C   UNL     1      34.894 -16.396 -20.679  0.00  0.00    +0.136 C 
BRANCH   6   9
ATOM      8  S   UNL     1      34.803 -18.608 -24.136  0.00  0.00    -0.033 S 
ATOM      9  C   UNL     1      34.638 -18.168 -22.513  0.00  0.00    +0.100 C 
BRANCH   9  10
ATOM     10  C   UNL     1      34.468 -19.237 -21.497  0.00  0.00    +0.021 C 
ATOM     11  C   UNL     1      33.193 -19.568 -21.040  0.00  0.00    +0.002 C 
ATOM     12  C   UNL     1      35.584 -19.911 -21.001  0.00  0.00    +0.002 C 
ATOM     13  C   UNL     1      33.032 -20.573 -20.086  0.00  0.00    +0.000 C 
ATOM     14  C   UNL     1      35.424 -20.915 -20.046  0.00  0.00    +0.000 C 
ATOM     15  C   UNL     1      34.148 -21.246 -19.589  0.00  0.00    +0.000 C 
ENDBRANCH   9  10
ENDBRANCH   6   9
ENDBRANCH   3   6
ENDBRANCH   1   4
BRANCH   1  18
ATOM     16  O   UNL     1      34.238 -12.520 -22.403  0.00  0.00    -0.273 OA
ATOM     17  N   UNL     1      32.919 -11.652 -24.105  0.00  0.00    -0.232 N 
ATOM     18  C   UNL     1      33.459 -12.673 -23.341  0.00  0.00    +0.247 C 
ATOM     19  H   UNL     1      32.301 -11.856 -24.843  0.00  0.00    +0.173 HD
BRANCH  17  20
ATOM     20  N   UNL     1      33.260 -10.336 -23.820  0.00  0.00    -0.230 N 
ATOM     21  C   UNL     1      34.572  -9.981 -24.350  0.00  0.00    +0.136 C 
BRANCH  20  23
ATOM     22  S   UNL     1      31.638  -8.122 -23.951  0.00  0.00    -0.033 S 
ATOM     23  C   UNL     1      32.323  -9.489 -23.228  0.00  0.00    +0.100 C 
BRANCH  23  24
ATOM     24  C   UNL     1      31.917  -9.840 -21.850  0.00  0.00    +0.021 C 
ATOM     25  C   UNL     1      31.076 -10.931 -21.627  0.00  0.00    +0.002 C 
ATOM     26  C   UNL     1      32.375  -9.082 -20.773  0.00  0.00    +0.002 C 
ATOM     27  C   UNL     1      30.693 -11.263 -20.327  0.00  0.00    +0.000 C 
ATOM     28  C   UNL     1      31.992  -9.414 -19.473  0.00  0.00    +0.000 C 
ATOM     29  C   UNL     1      31.151 -10.504 -19.251  0.00  0.00    +0.000 C 
ENDBRANCH  23  24
ENDBRANCH  20  23
ENDBRANCH  17  20
ENDBRANCH   1  18
TORSDOF 8
ENDMDL
