MODEL 1
REMARK VINA RESULT:      -8.9      0.000      0.000
REMARK  Name = 448965
REMARK  8 active torsions:
REMARK  status: ('A' for Active; 'I' for Inactive)
REMARK    1  A    between atoms: N_1  and  C_13
REMARK    2  A    between atoms: C_5  and  C_17
REMARK    3  A    between atoms: C_13  and  C_14
REMARK    4  A    between atoms: C_14  and  C_15
REMARK    5  A    between atoms: C_17  and  C_18
REMARK    6  A    between atoms: C_21  and  O_24
REMARK    7  A    between atoms: C_22  and  O_26
REMARK    8  A    between atoms: C_23  and  O_28
REMARK                            x       y       z     vdW  Elec       q    Type
REMARK                         _______ _______ _______ _____ _____    ______ ____
ROOT
ATOM      1  N   UNL     1      32.154 -10.860 -22.417  0.00  0.00    -0.249 N 
ATOM      2  N   UNL     1      33.786 -11.784 -23.596  0.00  0.00    -0.385 NA
ATOM      3  N   UNL     1      32.537  -8.513 -22.906  0.00  0.00    -0.227 NA
ATOM      4  N   UNL     1      34.446  -8.234 -24.399  0.00  0.00    -0.227 NA
ATOM      5  C   UNL     1      32.769 -12.014 -22.793  0.00  0.00    +0.169 C 
ATOM      6  C   UNL     1      32.806  -9.824 -23.005  0.00  0.00    +0.167 C 
ATOM      7  C   UNL     1      33.822 -10.418 -23.737  0.00  0.00    +0.195 C 
ATOM      8  C   UNL     1      34.661  -9.571 -24.453  0.00  0.00    +0.155 C 
ATOM      9  C   UNL     1      33.413  -7.794 -23.641  0.00  0.00    +0.253 C 
ATOM     10  N   UNL     1      35.716 -10.087 -25.223  0.00  0.00    -0.341 N 
ATOM     11  H   UNL     1      36.303  -9.478 -25.726  0.00  0.00    +0.144 HD
ATOM     12  H   UNL     1      35.868 -11.060 -25.259  0.00  0.00    +0.144 HD
ENDROOT
BRANCH   1  13
ATOM     13  C   UNL     1      30.997 -10.745 -21.535  0.00  0.00    +0.099 C 
BRANCH  13  14
ATOM     14  C   UNL     1      31.248 -11.383 -20.171  0.00  0.00    +0.022 C 
BRANCH  14  15
ATOM     15  C   UNL     1      31.231 -10.336 -19.059  0.00  0.00    +0.002 C 
ATOM     16  C   UNL     1      31.976  -9.076 -19.468  0.00  0.00    +0.000 C 
ENDBRANCH  14  15
ENDBRANCH  13  14
ENDBRANCH   1  13
BRANCH   5  17
ATOM     17  C   UNL     1      32.315 -13.342 -22.332  0.00  0.00    +0.102 C 
BRANCH  17  18
ATOM     18  C   UNL     1      33.082 -14.504 -22.948  0.00  0.00    -0.008 C 
ATOM     19  C   UNL     1      33.754 -15.375 -22.116  0.00  0.00    +0.036 C 
ATOM     20  C   UNL     1      33.082 -14.648 -24.320  0.00  0.00    +0.036 C 
ATOM     21  C   UNL     1      33.786 -15.712 -24.885  0.00  0.00    +0.175 C 
ATOM     22  C   UNL     1      34.458 -16.439 -22.681  0.00  0.00    +0.175 C 
ATOM     23  C   UNL     1      34.474 -16.607 -24.065  0.00  0.00    +0.206 C 
BRANCH  21  24
ATOM     24  O   UNL     1      33.795 -15.865 -26.239  0.00  0.00    -0.468 OA
ATOM     25  C   UNL     1      33.098 -14.885 -27.007  0.00  0.00    +0.253 C 
ENDBRANCH  21  24
BRANCH  22  26
ATOM     26  O   UNL     1      35.125 -17.306 -21.869  0.00  0.00    -0.468 OA
ATOM     27  C   UNL     1      34.347 -18.305 -21.211  0.00  0.00    +0.253 C 
ENDBRANCH  22  26
BRANCH  23  28
ATOM     28  O   UNL     1      35.162 -17.647 -24.618  0.00  0.00    -0.465 OA
ATOM     29  C   UNL     1      34.439 -18.854 -24.844  0.00  0.00    +0.253 C 
ENDBRANCH  23  28
ENDBRANCH  17  18
ENDBRANCH   5  17
TORSDOF 8
ENDMDL
MODEL 2
REMARK VINA RESULT:      -8.9      0.015      2.456
REMARK  Name = 448965
REMARK  8 active torsions:
REMARK  status: ('A' for Active; 'I' for Inactive)
REMARK    1  A    between atoms: N_1  and  C_13
REMARK    2  A    between atoms: C_5  and  C_17
REMARK    3  A    between atoms: C_13  and  C_14
REMARK    4  A    between atoms: C_14  and  C_15
REMARK    5  A    between atoms: C_17  and  C_18
REMARK    6  A    between atoms: C_21  and  O_24
REMARK    7  A    between atoms: C_22  and  O_26
REMARK    8  A    between atoms: C_23  and  O_28
REMARK                            x       y       z     vdW  Elec       q    Type
REMARK                         _______ _______ _______ _____ _____    ______ ____
ROOT
ATOM      1  N   UNL     1      32.147 -10.858 -22.416  0.00  0.00    -0.249 N 
ATOM      2  N   UNL     1      33.778 -11.781 -23.596  0.00  0.00    -0.385 NA
ATOM      3  N   UNL     1      32.530  -8.512 -22.902  0.00  0.00    -0.227 NA
ATOM      4  N   UNL     1      34.439  -8.231 -24.396  0.00  0.00    -0.227 NA
ATOM      5  C   UNL     1      32.760 -12.012 -22.794  0.00  0.00    +0.169 C 
ATOM      6  C   UNL     1      32.799  -9.822 -23.003  0.00  0.00    +0.167 C 
ATOM      7  C   UNL     1      33.814 -10.416 -23.736  0.00  0.00    +0.195 C 
ATOM      8  C   UNL     1      34.653  -9.568 -24.451  0.00  0.00    +0.155 C 
ATOM      9  C   UNL     1      33.406  -7.792 -23.636  0.00  0.00    +0.253 C 
ATOM     10  N   UNL     1      35.708 -10.084 -25.222  0.00  0.00    -0.341 N 
ATOM     11  H   UNL     1      36.295  -9.474 -25.724  0.00  0.00    +0.144 HD
ATOM     12  H   UNL     1      35.860 -11.056 -25.260  0.00  0.00    +0.144 HD
ENDROOT
BRANCH   1  13
ATOM     13  C   UNL     1      30.990 -10.744 -21.533  0.00  0.00    +0.099 C 
BRANCH  13  14
ATOM     14  C   UNL     1      31.241 -11.386 -20.170  0.00  0.00    +0.022 C 
BRANCH  14  15
ATOM     15  C   UNL     1      31.225 -10.340 -19.057  0.00  0.00    +0.002 C 
ATOM     16  C   UNL     1      31.987  -9.087 -19.458  0.00  0.00    +0.000 C 
ENDBRANCH  14  15
ENDBRANCH  13  14
ENDBRANCH   1  13
BRANCH   5  17
ATOM     17  C   UNL     1      32.306 -13.341 -22.334  0.00  0.00    +0.102 C 
BRANCH  17  18
ATOM     18  C   UNL     1      33.079 -14.502 -22.945  0.00  0.00    -0.008 C 
ATOM     19  C   UNL     1      33.086 -14.650 -24.316  0.00  0.00    +0.036 C 
ATOM     20  C   UNL     1      33.747 -15.371 -22.106  0.00  0.00    +0.036 C 
ATOM     21  C   UNL     1      34.454 -16.436 -22.666  0.00  0.00    +0.175 C 
ATOM     22  C   UNL     1      33.792 -15.715 -24.875  0.00  0.00    +0.175 C 
ATOM     23  C   UNL     1      34.476 -16.608 -24.050  0.00  0.00    +0.206 C 
BRANCH  21  24
ATOM     24  O   UNL     1      35.118 -17.301 -21.849  0.00  0.00    -0.468 OA
ATOM     25  C   UNL     1      34.343 -18.318 -21.215  0.00  0.00    +0.253 C 
ENDBRANCH  21  24
BRANCH  22  26
ATOM     26  O   UNL     1      33.807 -15.871 -26.228  0.00  0.00    -0.468 OA
ATOM     27  C   UNL     1      33.142 -14.874 -27.002  0.00  0.00    +0.253 C 
ENDBRANCH  22  26
BRANCH  23  28
ATOM     28  O   UNL     1      35.168 -17.648 -24.596  0.00  0.00    -0.465 OA
ATOM     29  C   UNL     1      34.441 -18.848 -24.847  0.00  0.00    +0.253 C 
ENDBRANCH  23  28
ENDBRANCH  17  18
ENDBRANCH   5  17
TORSDOF 8
ENDMDL
MODEL 3
REMARK VINA RESULT:      -8.7      3.597      7.110
REMARK  Name = 448965
REMARK  8 active torsions:
REMARK  status: ('A' for Active; 'I' for Inactive)
REMARK    1  A    between atoms: N_1  and  C_13
REMARK    2  A    between atoms: C_5  and  C_17
REMARK    3  A    between atoms: C_13  and  C_14
REMARK    4  A    between atoms: C_14  and  C_15
REMARK    5  A    between atoms: C_17  and  C_18
REMARK    6  A    between atoms: C_21  and  O_24
REMARK    7  A    between atoms: C_22  and  O_26
REMARK    8  A    between atoms: C_23  and  O_28
REMARK                            x       y       z     vdW  Elec       q    Type
REMARK                         _______ _______ _______ _____ _____    ______ ____
ROOT
ATOM      1  N   UNL     1      33.779 -14.100 -22.679  0.00  0.00    -0.249 N 
ATOM      2  N   UNL     1      32.330 -13.723 -24.312  0.00  0.00    -0.385 NA
ATOM      3  N   UNL     1      35.091 -15.888 -23.666  0.00  0.00    -0.227 NA
ATOM      4  N   UNL     1      34.273 -16.442 -25.897  0.00  0.00    -0.227 NA
ATOM      5  C   UNL     1      32.714 -13.368 -23.103  0.00  0.00    +0.169 C 
ATOM      6  C   UNL     1      34.106 -14.977 -23.663  0.00  0.00    +0.167 C 
ATOM      7  C   UNL     1      33.192 -14.728 -24.674  0.00  0.00    +0.195 C 
ATOM      8  C   UNL     1      33.299 -15.502 -25.825  0.00  0.00    +0.155 C 
ATOM      9  C   UNL     1      35.097 -16.574 -24.829  0.00  0.00    +0.253 C 
ATOM     10  N   UNL     1      32.415 -15.317 -26.900  0.00  0.00    -0.341 N 
ATOM     11  H   UNL     1      32.501 -15.870 -27.709  0.00  0.00    +0.144 HD
ATOM     12  H   UNL     1      31.708 -14.633 -26.844  0.00  0.00    +0.144 HD
ENDROOT
BRANCH   1  13
ATOM     13  C   UNL     1      34.458 -13.972 -21.394  0.00  0.00    +0.099 C 
BRANCH  13  14
ATOM     14  C   UNL     1      34.175 -15.158 -20.474  0.00  0.00    +0.022 C 
BRANCH  14  15
ATOM     15  C   UNL     1      32.701 -15.207 -20.074  0.00  0.00    +0.002 C 
ATOM     16  C   UNL     1      31.990 -16.390 -20.710  0.00  0.00    +0.000 C 
ENDBRANCH  14  15
ENDBRANCH  13  14
ENDBRANCH   1  13
BRANCH   5  17
ATOM     17  C   UNL     1      32.094 -12.313 -22.275  0.00  0.00    +0.102 C 
BRANCH  17  18
ATOM     18  C   UNL     1      32.580 -10.908 -22.601  0.00  0.00    -0.008 C 
ATOM     19  C   UNL     1      33.569 -10.748 -23.549  0.00  0.00    +0.036 C 
ATOM     20  C   UNL     1      32.016  -9.838 -21.937  0.00  0.00    +0.036 C 
ATOM     21  C   UNL     1      32.462  -8.550 -22.234  0.00  0.00    +0.175 C 
ATOM     22  C   UNL     1      34.015  -9.460 -23.846  0.00  0.00    +0.175 C 
ATOM     23  C   UNL     1      33.461  -8.361 -23.189  0.00  0.00    +0.206 C 
BRANCH  21  24
ATOM     24  O   UNL     1      31.913  -7.485 -21.585  0.00  0.00    -0.468 OA
ATOM     25  C   UNL     1      32.374  -7.225 -20.261  0.00  0.00    +0.253 C 
ENDBRANCH  21  24
BRANCH  22  26
ATOM     26  O   UNL     1      34.992  -9.289 -24.780  0.00  0.00    -0.468 OA
ATOM     27  C   UNL     1      35.305 -10.413 -25.602  0.00  0.00    +0.253 C 
ENDBRANCH  22  26
BRANCH  23  28
ATOM     28  O   UNL     1      33.897  -7.102 -23.481  0.00  0.00    -0.465 OA
ATOM     29  C   UNL     1      33.155  -6.369 -24.452  0.00  0.00    +0.253 C 
ENDBRANCH  23  28
ENDBRANCH  17  18
ENDBRANCH   5  17
TORSDOF 8
ENDMDL
MODEL 4
REMARK VINA RESULT:      -8.7      3.599      6.973
REMARK  Name = 448965
REMARK  8 active torsions:
REMARK  status: ('A' for Active; 'I' for Inactive)
REMARK    1  A    between atoms: N_1  and  C_13
REMARK    2  A    between atoms: C_5  and  C_17
REMARK    3  A    between atoms: C_13  and  C_14
REMARK    4  A    between atoms: C_14  and  C_15
REMARK    5  A    between atoms: C_17  and  C_18
REMARK    6  A    between atoms: C_21  and  O_24
REMARK    7  A    between atoms: C_22  and  O_26
REMARK    8  A    between atoms: C_23  and  O_28
REMARK                            x       y       z     vdW  Elec       q    Type
REMARK                         _______ _______ _______ _____ _____    ______ ____
ROOT
ATOM      1  N   UNL     1      33.783 -14.094 -22.674  0.00  0.00    -0.249 N 
ATOM      2  N   UNL     1      32.330 -13.713 -24.302  0.00  0.00    -0.385 NA
ATOM      3  N   UNL     1      35.092 -15.881 -23.667  0.00  0.00    -0.227 NA
ATOM      4  N   UNL     1      34.268 -16.431 -25.896  0.00  0.00    -0.227 NA
ATOM      5  C   UNL     1      32.717 -13.360 -23.095  0.00  0.00    +0.169 C 
ATOM      6  C   UNL     1      34.107 -14.970 -23.660  0.00  0.00    +0.167 C 
ATOM      7  C   UNL     1      33.191 -14.719 -24.668  0.00  0.00    +0.195 C 
ATOM      8  C   UNL     1      33.295 -15.491 -25.821  0.00  0.00    +0.155 C 
ATOM      9  C   UNL     1      35.094 -16.566 -24.830  0.00  0.00    +0.253 C 
ATOM     10  N   UNL     1      32.408 -15.304 -26.894  0.00  0.00    -0.341 N 
ATOM     11  H   UNL     1      32.492 -15.855 -27.704  0.00  0.00    +0.144 HD
ATOM     12  H   UNL     1      31.703 -14.619 -26.835  0.00  0.00    +0.144 HD
ENDROOT
BRANCH   1  13
ATOM     13  C   UNL     1      34.465 -13.968 -21.390  0.00  0.00    +0.099 C 
BRANCH  13  14
ATOM     14  C   UNL     1      34.172 -15.148 -20.466  0.00  0.00    +0.022 C 
BRANCH  14  15
ATOM     15  C   UNL     1      32.694 -15.195 -20.082  0.00  0.00    +0.002 C 
ATOM     16  C   UNL     1      32.001 -16.409 -20.680  0.00  0.00    +0.000 C 
ENDBRANCH  14  15
ENDBRANCH  13  14
ENDBRANCH   1  13
BRANCH   5  17
ATOM     17  C   UNL     1      32.100 -12.306 -22.263  0.00  0.00    +0.102 C 
BRANCH  17  18
ATOM     18  C   UNL     1      32.577 -10.900 -22.596  0.00  0.00    -0.008 C 
ATOM     19  C   UNL     1      31.995  -9.828 -21.952  0.00  0.00    +0.036 C 
ATOM     20  C   UNL     1      33.576 -10.741 -23.535  0.00  0.00    +0.036 C 
ATOM     21  C   UNL     1      34.012  -9.452 -23.842  0.00  0.00    +0.175 C 
ATOM     22  C   UNL     1      32.431  -8.539 -22.259  0.00  0.00    +0.175 C 
ATOM     23  C   UNL     1      33.440  -8.351 -23.204  0.00  0.00    +0.206 C 
BRANCH  21  24
ATOM     24  O   UNL     1      34.998  -9.281 -24.767  0.00  0.00    -0.468 OA
ATOM     25  C   UNL     1      35.323 -10.405 -25.582  0.00  0.00    +0.253 C 
ENDBRANCH  21  24
BRANCH  22  26
ATOM     26  O   UNL     1      31.863  -7.473 -21.629  0.00  0.00    -0.468 OA
ATOM     27  C   UNL     1      32.325  -7.179 -20.311  0.00  0.00    +0.253 C 
ENDBRANCH  22  26
BRANCH  23  28
ATOM     28  O   UNL     1      33.866  -7.091 -23.503  0.00  0.00    -0.465 OA
ATOM     29  C   UNL     1      33.110  -6.363 -24.466  0.00  0.00    +0.253 C 
ENDBRANCH  23  28
ENDBRANCH  17  18
ENDBRANCH   5  17
TORSDOF 8
ENDMDL
MODEL 5
REMARK VINA RESULT:      -8.5      8.322     11.910
REMARK  Name = 448965
REMARK  8 active torsions:
REMARK  status: ('A' for Active; 'I' for Inactive)
REMARK    1  A    between atoms: N_1  and  C_13
REMARK    2  A    between atoms: C_5  and  C_17
REMARK    3  A    between atoms: C_13  and  C_14
REMARK    4  A    between atoms: C_14  and  C_15
REMARK    5  A    between atoms: C_17  and  C_18
REMARK    6  A    between atoms: C_21  and  O_24
REMARK    7  A    between atoms: C_22  and  O_26
REMARK    8  A    between atoms: C_23  and  O_28
REMARK                            x       y       z     vdW  Elec       q    Type
REMARK                         _______ _______ _______ _____ _____    ______ ____
ROOT
ATOM      1  N   UNL     1      35.417 -21.681 -19.052  0.00  0.00    -0.249 N 
ATOM      2  N   UNL     1      33.254 -21.784 -19.522  0.00  0.00    -0.385 NA
ATOM      3  N   UNL     1      36.030 -19.666 -20.259  0.00  0.00    -0.227 NA
ATOM      4  N   UNL     1      34.095 -18.703 -21.390  0.00  0.00    -0.227 NA
ATOM      5  C   UNL     1      34.250 -22.362 -18.884  0.00  0.00    +0.169 C 
ATOM      6  C   UNL     1      35.167 -20.605 -19.840  0.00  0.00    +0.167 C 
ATOM      7  C   UNL     1      33.813 -20.683 -20.124  0.00  0.00    +0.195 C 
ATOM      8  C   UNL     1      33.279 -19.684 -20.931  0.00  0.00    +0.155 C 
ATOM      9  C   UNL     1      35.400 -18.755 -21.030  0.00  0.00    +0.253 C 
ATOM     10  N   UNL     1      31.916 -19.685 -21.269  0.00  0.00    -0.341 N 
ATOM     11  H   UNL     1      31.550 -18.972 -21.840  0.00  0.00    +0.144 HD
ATOM     12  H   UNL     1      31.327 -20.399 -20.934  0.00  0.00    +0.144 HD
ENDROOT
BRANCH   1  13
ATOM     13  C   UNL     1      36.714 -22.039 -18.488  0.00  0.00    +0.099 C 
BRANCH  13  14
ATOM     14  C   UNL     1      37.028 -21.248 -17.219  0.00  0.00    +0.022 C 
BRANCH  14  15
ATOM     15  C   UNL     1      36.767 -22.085 -15.968  0.00  0.00    +0.002 C 
ATOM     16  C   UNL     1      37.834 -23.151 -15.778  0.00  0.00    +0.000 C 
ENDBRANCH  14  15
ENDBRANCH  13  14
ENDBRANCH   1  13
BRANCH   5  17
ATOM     17  C   UNL     1      34.159 -23.595 -18.076  0.00  0.00    +0.102 C 
BRANCH  17  18
ATOM     18  C   UNL     1      33.275 -23.462 -16.844  0.00  0.00    -0.008 C 
ATOM     19  C   UNL     1      33.824 -23.695 -15.600  0.00  0.00    +0.036 C 
ATOM     20  C   UNL     1      31.950 -23.114 -17.011  0.00  0.00    +0.036 C 
ATOM     21  C   UNL     1      31.139 -22.993 -15.882  0.00  0.00    +0.175 C 
ATOM     22  C   UNL     1      33.013 -23.574 -14.472  0.00  0.00    +0.175 C 
ATOM     23  C   UNL     1      31.670 -23.223 -14.613  0.00  0.00    +0.206 C 
BRANCH  21  24
ATOM     24  O   UNL     1      29.829 -22.649 -16.033  0.00  0.00    -0.468 OA
ATOM     25  C   UNL     1      28.932 -23.680 -16.443  0.00  0.00    +0.253 C 
ENDBRANCH  21  24
BRANCH  22  26
ATOM     26  O   UNL     1      33.544 -23.801 -13.239  0.00  0.00    -0.468 OA
ATOM     27  C   UNL     1      34.922 -24.168 -13.185  0.00  0.00    +0.253 C 
ENDBRANCH  22  26
BRANCH  23  28
ATOM     28  O   UNL     1      30.878 -23.104 -13.510  0.00  0.00    -0.465 OA
ATOM     29  C   UNL     1      30.289 -24.299 -13.004  0.00  0.00    +0.253 C 
ENDBRANCH  23  28
ENDBRANCH  17  18
ENDBRANCH   5  17
TORSDOF 8
ENDMDL
MODEL 6
REMARK VINA RESULT:      -8.5      8.324     12.083
REMARK  Name = 448965
REMARK  8 active torsions:
REMARK  status: ('A' for Active; 'I' for Inactive)
REMARK    1  A    between atoms: N_1  and  C_13
REMARK    2  A    between atoms: C_5  and  C_17
REMARK    3  A    between atoms: C_13  and  C_14
REMARK    4  A    between atoms: C_14  and  C_15
REMARK    5  A    between atoms: C_17  and  C_18
REMARK    6  A    between atoms: C_21  and  O_24
REMARK    7  A    between atoms: C_22  and  O_26
REMARK    8  A    between atoms: C_23  and  O_28
REMARK                            x       y       z     vdW  Elec       q    Type
REMARK                         _______ _______ _______ _____ _____    ______ ____
ROOT
ATOM      1  N   UNL     1      35.428 -21.674 -19.042  0.00  0.00    -0.249 N 
ATOM      2  N   UNL     1      33.267 -21.779 -19.519  0.00  0.00    -0.385 NA
ATOM      3  N   UNL     1      36.042 -19.658 -20.245  0.00  0.00    -0.227 NA
ATOM      4  N   UNL     1      34.110 -18.697 -21.382  0.00  0.00    -0.227 NA
ATOM      5  C   UNL     1      34.262 -22.356 -18.878  0.00  0.00    +0.169 C 
ATOM      6  C   UNL     1      35.179 -20.597 -19.830  0.00  0.00    +0.167 C 
ATOM      7  C   UNL     1      33.826 -20.677 -20.119  0.00  0.00    +0.195 C 
ATOM      8  C   UNL     1      33.294 -19.678 -20.927  0.00  0.00    +0.155 C 
ATOM      9  C   UNL     1      35.414 -18.746 -21.019  0.00  0.00    +0.253 C 
ATOM     10  N   UNL     1      31.931 -19.681 -21.269  0.00  0.00    -0.341 N 
ATOM     11  H   UNL     1      31.566 -18.969 -21.841  0.00  0.00    +0.144 HD
ATOM     12  H   UNL     1      31.342 -20.396 -20.936  0.00  0.00    +0.144 HD
ENDROOT
BRANCH   1  13
ATOM     13  C   UNL     1      36.724 -22.031 -18.474  0.00  0.00    +0.099 C 
BRANCH  13  14
ATOM     14  C   UNL     1      37.046 -21.219 -17.221  0.00  0.00    +0.022 C 
BRANCH  14  15
ATOM     15  C   UNL     1      36.795 -22.035 -15.954  0.00  0.00    +0.002 C 
ATOM     16  C   UNL     1      37.835 -23.129 -15.781  0.00  0.00    +0.000 C 
ENDBRANCH  14  15
ENDBRANCH  13  14
ENDBRANCH   1  13
BRANCH   5  17
ATOM     17  C   UNL     1      34.170 -23.590 -18.071  0.00  0.00    +0.102 C 
BRANCH  17  18
ATOM     18  C   UNL     1      33.285 -23.457 -16.839  0.00  0.00    -0.008 C 
ATOM     19  C   UNL     1      31.956 -23.128 -17.006  0.00  0.00    +0.036 C 
ATOM     20  C   UNL     1      33.841 -23.669 -15.595  0.00  0.00    +0.036 C 
ATOM     21  C   UNL     1      33.031 -23.545 -14.466  0.00  0.00    +0.175 C 
ATOM     22  C   UNL     1      31.146 -23.004 -15.877  0.00  0.00    +0.175 C 
ATOM     23  C   UNL     1      31.683 -23.213 -14.607  0.00  0.00    +0.206 C 
BRANCH  21  24
ATOM     24  O   UNL     1      33.568 -23.752 -13.230  0.00  0.00    -0.468 OA
ATOM     25  C   UNL     1      34.906 -24.243 -13.179  0.00  0.00    +0.253 C 
ENDBRANCH  21  24
BRANCH  22  26
ATOM     26  O   UNL     1      29.832 -22.679 -16.029  0.00  0.00    -0.468 OA
ATOM     27  C   UNL     1      28.945 -23.731 -16.406  0.00  0.00    +0.253 C 
ENDBRANCH  22  26
BRANCH  23  28
ATOM     28  O   UNL     1      30.891 -23.093 -13.503  0.00  0.00    -0.465 OA
ATOM     29  C   UNL     1      30.331 -24.292 -12.975  0.00  0.00    +0.253 C 
ENDBRANCH  23  28
ENDBRANCH  17  18
ENDBRANCH   5  17
TORSDOF 8
ENDMDL
MODEL 7
REMARK VINA RESULT:      -8.4     10.641     13.864
REMARK  Name = 448965
REMARK  8 active torsions:
REMARK  status: ('A' for Active; 'I' for Inactive)
REMARK    1  A    between atoms: N_1  and  C_13
REMARK    2  A    between atoms: C_5  and  C_17
REMARK    3  A    between atoms: C_13  and  C_14
REMARK    4  A    between atoms: C_14  and  C_15
REMARK    5  A    between atoms: C_17  and  C_18
REMARK    6  A    between atoms: C_21  and  O_24
REMARK    7  A    between atoms: C_22  and  O_26
REMARK    8  A    between atoms: C_23  and  O_28
REMARK                            x       y       z     vdW  Elec       q    Type
REMARK                         _______ _______ _______ _____ _____    ______ ____
ROOT
ATOM      1  N   UNL     1      32.987 -23.098 -16.931  0.00  0.00    -0.249 N 
ATOM      2  N   UNL     1      35.190 -22.908 -16.792  0.00  0.00    -0.385 NA
ATOM      3  N   UNL     1      32.584 -21.964 -19.039  0.00  0.00    -0.227 NA
ATOM      4  N   UNL     1      34.673 -21.165 -20.014  0.00  0.00    -0.227 NA
ATOM      5  C   UNL     1      34.105 -23.369 -16.205  0.00  0.00    +0.169 C 
ATOM      6  C   UNL     1      33.363 -22.425 -18.049  0.00  0.00    +0.167 C 
ATOM      7  C   UNL     1      34.740 -22.316 -17.947  0.00  0.00    +0.195 C 
ATOM      8  C   UNL     1      35.399 -21.657 -18.980  0.00  0.00    +0.155 C 
ATOM      9  C   UNL     1      33.330 -21.347 -19.980  0.00  0.00    +0.253 C 
ATOM     10  N   UNL     1      36.794 -21.501 -18.959  0.00  0.00    -0.341 N 
ATOM     11  H   UNL     1      37.249 -21.033 -19.696  0.00  0.00    +0.144 HD
ATOM     12  H   UNL     1      37.318 -21.860 -18.206  0.00  0.00    +0.144 HD
ENDROOT
BRANCH   1  13
ATOM     13  C   UNL     1      31.618 -23.461 -16.577  0.00  0.00    +0.099 C 
BRANCH  13  14
ATOM     14  C   UNL     1      31.117 -22.693 -15.356  0.00  0.00    +0.022 C 
BRANCH  14  15
ATOM     15  C   UNL     1      30.158 -23.543 -14.525  0.00  0.00    +0.002 C 
ATOM     16  C   UNL     1      30.469 -25.024 -14.656  0.00  0.00    +0.000 C 
ENDBRANCH  14  15
ENDBRANCH  13  14
ENDBRANCH   1  13
BRANCH   5  17
ATOM     17  C   UNL     1      34.061 -24.094 -14.919  0.00  0.00    +0.102 C 
BRANCH  17  18
ATOM     18  C   UNL     1      35.410 -24.640 -14.471  0.00  0.00    -0.008 C 
ATOM     19  C   UNL     1      36.078 -24.005 -13.445  0.00  0.00    +0.036 C 
ATOM     20  C   UNL     1      35.922 -25.751 -15.108  0.00  0.00    +0.036 C 
ATOM     21  C   UNL     1      37.159 -26.250 -14.700  0.00  0.00    +0.175 C 
ATOM     22  C   UNL     1      37.315 -24.505 -13.036  0.00  0.00    +0.175 C 
ATOM     23  C   UNL     1      37.855 -25.627 -13.664  0.00  0.00    +0.206 C 
BRANCH  21  24
ATOM     24  O   UNL     1      37.677 -27.347 -15.321  0.00  0.00    -0.468 OA
ATOM     25  C   UNL     1      37.007 -27.803 -16.495  0.00  0.00    +0.253 C 
ENDBRANCH  21  24
BRANCH  22  26
ATOM     26  O   UNL     1      37.984 -23.887 -12.023  0.00  0.00    -0.468 OA
ATOM     27  C   UNL     1      37.365 -22.740 -11.444  0.00  0.00    +0.253 C 
ENDBRANCH  22  26
BRANCH  23  28
ATOM     28  O   UNL     1      39.064 -26.116 -13.264  0.00  0.00    -0.465 OA
ATOM     29  C   UNL     1      40.208 -25.699 -14.005  0.00  0.00    +0.253 C 
ENDBRANCH  23  28
ENDBRANCH  17  18
ENDBRANCH   5  17
TORSDOF 8
ENDMDL
MODEL 8
REMARK VINA RESULT:      -8.4     10.677     13.968
REMARK  Name = 448965
REMARK  8 active torsions:
REMARK  status: ('A' for Active; 'I' for Inactive)
REMARK    1  A    between atoms: N_1  and  C_13
REMARK    2  A    between atoms: C_5  and  C_17
REMARK    3  A    between atoms: C_13  and  C_14
REMARK    4  A    between atoms: C_14  and  C_15
REMARK    5  A    between atoms: C_17  and  C_18
REMARK    6  A    between atoms: C_21  and  O_24
REMARK    7  A    between atoms: C_22  and  O_26
REMARK    8  A    between atoms: C_23  and  O_28
REMARK                            x       y       z     vdW  Elec       q    Type
REMARK                         _______ _______ _______ _____ _____    ______ ____
ROOT
ATOM      1  N   UNL     1      32.972 -23.129 -16.871  0.00  0.00    -0.249 N 
ATOM      2  N   UNL     1      35.174 -22.915 -16.757  0.00  0.00    -0.385 NA
ATOM      3  N   UNL     1      32.534 -22.004 -18.977  0.00  0.00    -0.227 NA
ATOM      4  N   UNL     1      34.603 -21.185 -19.976  0.00  0.00    -0.227 NA
ATOM      5  C   UNL     1      34.101 -23.386 -16.157  0.00  0.00    +0.169 C 
ATOM      6  C   UNL     1      33.329 -22.455 -17.994  0.00  0.00    +0.167 C 
ATOM      7  C   UNL     1      34.706 -22.330 -17.908  0.00  0.00    +0.195 C 
ATOM      8  C   UNL     1      35.345 -21.667 -18.950  0.00  0.00    +0.155 C 
ATOM      9  C   UNL     1      33.263 -21.381 -19.927  0.00  0.00    +0.253 C 
ATOM     10  N   UNL     1      36.740 -21.495 -18.944  0.00  0.00    -0.341 N 
ATOM     11  H   UNL     1      37.181 -21.024 -19.687  0.00  0.00    +0.144 HD
ATOM     12  H   UNL     1      37.275 -21.847 -18.196  0.00  0.00    +0.144 HD
ENDROOT
BRANCH   1  13
ATOM     13  C   UNL     1      31.612 -23.506 -16.501  0.00  0.00    +0.099 C 
BRANCH  13  14
ATOM     14  C   UNL     1      31.106 -22.721 -15.293  0.00  0.00    +0.022 C 
BRANCH  14  15
ATOM     15  C   UNL     1      30.464 -23.647 -14.262  0.00  0.00    +0.002 C 
ATOM     16  C   UNL     1      30.297 -25.057 -14.806  0.00  0.00    +0.000 C 
ENDBRANCH  14  15
ENDBRANCH  13  14
ENDBRANCH   1  13
BRANCH   5  17
ATOM     17  C   UNL     1      34.079 -24.109 -14.868  0.00  0.00    +0.102 C 
BRANCH  17  18
ATOM     18  C   UNL     1      35.439 -24.638 -14.434  0.00  0.00    -0.008 C 
ATOM     19  C   UNL     1      35.953 -25.752 -15.064  0.00  0.00    +0.036 C 
ATOM     20  C   UNL     1      36.114 -23.987 -13.422  0.00  0.00    +0.036 C 
ATOM     21  C   UNL     1      37.359 -24.472 -13.023  0.00  0.00    +0.175 C 
ATOM     22  C   UNL     1      37.199 -26.237 -14.665  0.00  0.00    +0.175 C 
ATOM     23  C   UNL     1      37.902 -25.597 -13.645  0.00  0.00    +0.206 C 
BRANCH  21  24
ATOM     24  O   UNL     1      38.036 -23.838 -12.025  0.00  0.00    -0.468 OA
ATOM     25  C   UNL     1      37.369 -22.759 -11.373  0.00  0.00    +0.253 C 
ENDBRANCH  21  24
BRANCH  22  26
ATOM     26  O   UNL     1      37.717 -27.336 -15.281  0.00  0.00    -0.468 OA
ATOM     27  C   UNL     1      37.035 -27.810 -16.441  0.00  0.00    +0.253 C 
ENDBRANCH  22  26
BRANCH  23  28
ATOM     28  O   UNL     1      39.120 -26.071 -13.255  0.00  0.00    -0.465 OA
ATOM     29  C   UNL     1      40.240 -25.717 -14.061  0.00  0.00    +0.253 C 
ENDBRANCH  23  28
ENDBRANCH  17  18
ENDBRANCH   5  17
TORSDOF 8
ENDMDL
MODEL 9
REMARK VINA RESULT:      -8.2      1.269      2.650
REMARK  Name = 448965
REMARK  8 active torsions:
REMARK  status: ('A' for Active; 'I' for Inactive)
REMARK    1  A    between atoms: N_1  and  C_13
REMARK    2  A    between atoms: C_5  and  C_17
REMARK    3  A    between atoms: C_13  and  C_14
REMARK    4  A    between atoms: C_14  and  C_15
REMARK    5  A    between atoms: C_17  and  C_18
REMARK    6  A    between atoms: C_21  and  O_24
REMARK    7  A    between atoms: C_22  and  O_26
REMARK    8  A    between atoms: C_23  and  O_28
REMARK                            x       y       z     vdW  Elec       q    Type
REMARK                         _______ _______ _______ _____ _____    ______ ____
ROOT
ATOM      1  N   UNL     1      32.606 -11.940 -23.468  0.00  0.00    -0.249 N 
ATOM      2  N   UNL     1      34.111 -12.244 -25.065  0.00  0.00    -0.385 NA
ATOM      3  N   UNL     1      33.049  -9.625 -22.887  0.00  0.00    -0.227 NA
ATOM      4  N   UNL     1      34.856  -8.714 -24.250  0.00  0.00    -0.227 NA
ATOM      5  C   UNL     1      33.144 -12.806 -24.369  0.00  0.00    +0.169 C 
ATOM      6  C   UNL     1      33.257 -10.754 -23.583  0.00  0.00    +0.167 C 
ATOM      7  C   UNL     1      34.192 -10.961 -24.584  0.00  0.00    +0.195 C 
ATOM      8  C   UNL     1      35.011  -9.886 -24.913  0.00  0.00    +0.155 C 
ATOM      9  C   UNL     1      33.899  -8.657 -23.292  0.00  0.00    +0.253 C 
ATOM     10  N   UNL     1      35.987 -10.007 -25.916  0.00  0.00    -0.341 N 
ATOM     11  H   UNL     1      36.560  -9.240 -26.140  0.00  0.00    +0.144 HD
ATOM     12  H   UNL     1      36.096 -10.860 -26.395  0.00  0.00    +0.144 HD
ENDROOT
BRANCH   1  13
ATOM     13  C   UNL     1      31.521 -12.228 -22.536  0.00  0.00    +0.099 C 
BRANCH  13  14
ATOM     14  C   UNL     1      31.956 -12.071 -21.080  0.00  0.00    +0.022 C 
BRANCH  14  15
ATOM     15  C   UNL     1      30.997 -11.163 -20.312  0.00  0.00    +0.002 C 
ATOM     16  C   UNL     1      31.577 -10.748 -18.970  0.00  0.00    +0.000 C 
ENDBRANCH  14  15
ENDBRANCH  13  14
ENDBRANCH   1  13
BRANCH   5  17
ATOM     17  C   UNL     1      32.671 -14.198 -24.515  0.00  0.00    +0.102 C 
BRANCH  17  18
ATOM     18  C   UNL     1      33.573 -15.229 -23.851  0.00  0.00    -0.008 C 
ATOM     19  C   UNL     1      34.035 -16.291 -24.599  0.00  0.00    +0.036 C 
ATOM     20  C   UNL     1      33.898 -15.069 -22.520  0.00  0.00    +0.036 C 
ATOM     21  C   UNL     1      34.724 -16.014 -21.910  0.00  0.00    +0.175 C 
ATOM     22  C   UNL     1      34.860 -17.236 -23.990  0.00  0.00    +0.175 C 
ATOM     23  C   UNL     1      35.205 -17.098 -22.645  0.00  0.00    +0.206 C 
BRANCH  21  24
ATOM     24  O   UNL     1      35.053 -15.867 -20.596  0.00  0.00    -0.468 OA
ATOM     25  C   UNL     1      34.412 -14.812 -19.881  0.00  0.00    +0.253 C 
ENDBRANCH  21  24
BRANCH  22  26
ATOM     26  O   UNL     1      35.323 -18.290 -24.719  0.00  0.00    -0.468 OA
ATOM     27  C   UNL     1      34.450 -19.409 -24.865  0.00  0.00    +0.253 C 
ENDBRANCH  22  26
BRANCH  23  28
ATOM     28  O   UNL     1      36.012 -18.021 -22.050  0.00  0.00    -0.465 OA
ATOM     29  C   UNL     1      35.374 -19.048 -21.295  0.00  0.00    +0.253 C 
ENDBRANCH  23  28
ENDBRANCH  17  18
ENDBRANCH   5  17
TORSDOF 8
ENDMDL
