MODEL 1
REMARK VINA RESULT:      -5.4      0.000      0.000
REMARK  Name = 129891
REMARK  5 active torsions:
REMARK  status: ('A' for Active; 'I' for Inactive)
REMARK    1  A    between atoms: C_1  and  C_2
REMARK    2  A    between atoms: C_1  and  C_7
REMARK    3  A    between atoms: C_2  and  O_5
REMARK    4  A    between atoms: C_7  and  C_9
REMARK    5  A    between atoms: C_9  and  C_10
REMARK                            x       y       z     vdW  Elec       q    Type
REMARK                         _______ _______ _______ _____ _____    ______ ____
ROOT
ATOM      1  C   UNL     1      34.577 -19.317 -22.528  0.00  0.00    +0.035 C 
ENDROOT
BRANCH   1   2
ATOM      2  C   UNL     1      35.209 -17.973 -22.940  0.00  0.00    +0.089 C 
ATOM      3  C   UNL     1      34.882 -17.592 -24.386  0.00  0.00    +0.029 C 
ATOM      4  C   UNL     1      34.821 -16.837 -21.993  0.00  0.00    +0.029 C 
BRANCH   2   5
ATOM      5  O   UNL     1      36.632 -18.120 -22.842  0.00  0.00    -0.387 OA
ATOM      6  H   UNL     1      37.058 -17.627 -23.561  0.00  0.00    +0.210 HD
ENDBRANCH   2   5
ENDBRANCH   1   2
BRANCH   1   7
ATOM      7  C   UNL     1      34.285 -19.476 -21.037  0.00  0.00    +0.067 C 
BRANCH   7   9
ATOM      8  O   UNL     1      36.560 -19.792 -20.287  0.00  0.00    -0.296 OA
ATOM      9  C   UNL     1      35.401 -20.205 -20.300  0.00  0.00    +0.151 C 
BRANCH   9  10
ATOM     10  C   UNL     1      34.987 -21.477 -19.579  0.00  0.00    +0.065 C 
ATOM     11  C   UNL     1      33.481 -21.607 -19.436  0.00  0.00    +0.008 C 
ENDBRANCH   9  10
ENDBRANCH   7   9
ENDBRANCH   1   7
TORSDOF 5
ENDMDL
MODEL 2
REMARK VINA RESULT:      -5.3      1.523      1.745
REMARK  Name = 129891
REMARK  5 active torsions:
REMARK  status: ('A' for Active; 'I' for Inactive)
REMARK    1  A    between atoms: C_1  and  C_2
REMARK    2  A    between atoms: C_1  and  C_7
REMARK    3  A    between atoms: C_2  and  O_5
REMARK    4  A    between atoms: C_7  and  C_9
REMARK    5  A    between atoms: C_9  and  C_10
REMARK                            x       y       z     vdW  Elec       q    Type
REMARK                         _______ _______ _______ _____ _____    ______ ____
ROOT
ATOM      1  C   UNL     1      34.862 -18.411 -21.183  0.00  0.00    +0.035 C 
ENDROOT
BRANCH   1   2
ATOM      2  C   UNL     1      35.358 -18.114 -22.612  0.00  0.00    +0.089 C 
ATOM      3  C   UNL     1      34.803 -19.102 -23.641  0.00  0.00    +0.029 C 
ATOM      4  C   UNL     1      35.057 -16.678 -23.041  0.00  0.00    +0.029 C 
BRANCH   2   5
ATOM      5  O   UNL     1      36.785 -18.250 -22.607  0.00  0.00    -0.387 OA
ATOM      6  H   UNL     1      37.058 -18.771 -21.835  0.00  0.00    +0.210 HD
ENDBRANCH   2   5
ENDBRANCH   1   2
BRANCH   1   7
ATOM      7  C   UNL     1      33.645 -19.330 -21.087  0.00  0.00    +0.067 C 
BRANCH   7   9
ATOM      8  O   UNL     1      32.995 -21.095 -19.571  0.00  0.00    -0.296 OA
ATOM      9  C   UNL     1      33.897 -20.539 -20.196  0.00  0.00    +0.151 C 
BRANCH   9  10
ATOM     10  C   UNL     1      35.339 -21.015 -20.133  0.00  0.00    +0.065 C 
ATOM     11  C   UNL     1      35.655 -21.763 -18.850  0.00  0.00    +0.008 C 
ENDBRANCH   9  10
ENDBRANCH   7   9
ENDBRANCH   1   7
TORSDOF 5
ENDMDL
MODEL 3
REMARK VINA RESULT:      -5.3      1.985      4.853
REMARK  Name = 129891
REMARK  5 active torsions:
REMARK  status: ('A' for Active; 'I' for Inactive)
REMARK    1  A    between atoms: C_1  and  C_2
REMARK    2  A    between atoms: C_1  and  C_7
REMARK    3  A    between atoms: C_2  and  O_5
REMARK    4  A    between atoms: C_7  and  C_9
REMARK    5  A    between atoms: C_9  and  C_10
REMARK                            x       y       z     vdW  Elec       q    Type
REMARK                         _______ _______ _______ _____ _____    ______ ____
ROOT
ATOM      1  C   UNL     1      36.028 -18.273 -22.775  0.00  0.00    +0.035 C 
ENDROOT
BRANCH   1   2
ATOM      2  C   UNL     1      35.508 -18.677 -21.381  0.00  0.00    +0.089 C 
ATOM      3  C   UNL     1      34.139 -19.359 -21.443  0.00  0.00    +0.029 C 
ATOM      4  C   UNL     1      36.504 -19.558 -20.626  0.00  0.00    +0.029 C 
BRANCH   2   5
ATOM      5  O   UNL     1      35.360 -17.475 -20.613  0.00  0.00    -0.387 OA
ATOM      6  H   UNL     1      35.471 -16.706 -21.193  0.00  0.00    +0.210 HD
ENDBRANCH   2   5
ENDBRANCH   1   2
BRANCH   1   7
ATOM      7  C   UNL     1      35.033 -18.443 -23.922  0.00  0.00    +0.067 C 
BRANCH   7   9
ATOM      8  O   UNL     1      34.741 -17.009 -25.844  0.00  0.00    -0.296 OA
ATOM      9  C   UNL     1      34.718 -17.127 -24.619  0.00  0.00    +0.151 C 
BRANCH   9  10
ATOM     10  C   UNL     1      34.370 -15.967 -23.701  0.00  0.00    +0.065 C 
ATOM     11  C   UNL     1      33.549 -14.895 -24.394  0.00  0.00    +0.008 C 
ENDBRANCH   9  10
ENDBRANCH   7   9
ENDBRANCH   1   7
TORSDOF 5
ENDMDL
MODEL 4
REMARK VINA RESULT:      -5.2      3.529      5.343
REMARK  Name = 129891
REMARK  5 active torsions:
REMARK  status: ('A' for Active; 'I' for Inactive)
REMARK    1  A    between atoms: C_1  and  C_2
REMARK    2  A    between atoms: C_1  and  C_7
REMARK    3  A    between atoms: C_2  and  O_5
REMARK    4  A    between atoms: C_7  and  C_9
REMARK    5  A    between atoms: C_9  and  C_10
REMARK                            x       y       z     vdW  Elec       q    Type
REMARK                         _______ _______ _______ _____ _____    ______ ____
ROOT
ATOM      1  C   UNL     1      34.627 -15.120 -22.861  0.00  0.00    +0.035 C 
ENDROOT
BRANCH   1   2
ATOM      2  C   UNL     1      34.194 -15.592 -21.459  0.00  0.00    +0.089 C 
ATOM      3  C   UNL     1      32.695 -15.399 -21.214  0.00  0.00    +0.029 C 
ATOM      4  C   UNL     1      34.591 -17.043 -21.189  0.00  0.00    +0.029 C 
BRANCH   2   5
ATOM      5  O   UNL     1      34.897 -14.789 -20.500  0.00  0.00    -0.387 OA
ATOM      6  H   UNL     1      35.425 -15.363 -19.924  0.00  0.00    +0.210 HD
ENDBRANCH   2   5
ENDBRANCH   1   2
BRANCH   1   7
ATOM      7  C   UNL     1      33.548 -15.193 -23.941  0.00  0.00    +0.067 C 
BRANCH   7   9
ATOM      8  O   UNL     1      33.612 -15.740 -26.293  0.00  0.00    -0.296 OA
ATOM      9  C   UNL     1      33.993 -16.001 -25.153  0.00  0.00    +0.151 C 
BRANCH   9  10
ATOM     10  C   UNL     1      34.943 -17.151 -24.859  0.00  0.00    +0.065 C 
ATOM     11  C   UNL     1      34.265 -18.507 -24.941  0.00  0.00    +0.008 C 
ENDBRANCH   9  10
ENDBRANCH   7   9
ENDBRANCH   1   7
TORSDOF 5
ENDMDL
MODEL 5
REMARK VINA RESULT:      -5.2      1.960      2.532
REMARK  Name = 129891
REMARK  5 active torsions:
REMARK  status: ('A' for Active; 'I' for Inactive)
REMARK    1  A    between atoms: C_1  and  C_2
REMARK    2  A    between atoms: C_1  and  C_7
REMARK    3  A    between atoms: C_2  and  O_5
REMARK    4  A    between atoms: C_7  and  C_9
REMARK    5  A    between atoms: C_9  and  C_10
REMARK                            x       y       z     vdW  Elec       q    Type
REMARK                         _______ _______ _______ _____ _____    ______ ____
ROOT
ATOM      1  C   UNL     1      35.002 -17.062 -21.002  0.00  0.00    +0.035 C 
ENDROOT
BRANCH   1   2
ATOM      2  C   UNL     1      34.326 -15.700 -21.257  0.00  0.00    +0.089 C 
ATOM      3  C   UNL     1      34.540 -15.199 -22.687  0.00  0.00    +0.029 C 
ATOM      4  C   UNL     1      32.834 -15.723 -20.923  0.00  0.00    +0.029 C 
BRANCH   2   5
ATOM      5  O   UNL     1      34.929 -14.749 -20.370  0.00  0.00    -0.387 OA
ATOM      6  H   UNL     1      34.530 -14.830 -19.489  0.00  0.00    +0.210 HD
ENDBRANCH   2   5
ENDBRANCH   1   2
BRANCH   1   7
ATOM      7  C   UNL     1      34.462 -18.228 -21.829  0.00  0.00    +0.067 C 
BRANCH   7   9
ATOM      8  O   UNL     1      35.534 -20.153 -20.838  0.00  0.00    -0.296 OA
ATOM      9  C   UNL     1      34.489 -19.544 -21.064  0.00  0.00    +0.151 C 
BRANCH   9  10
ATOM     10  C   UNL     1      33.137 -20.055 -20.594  0.00  0.00    +0.065 C 
ATOM     11  C   UNL     1      33.254 -21.190 -19.592  0.00  0.00    +0.008 C 
ENDBRANCH   9  10
ENDBRANCH   7   9
ENDBRANCH   1   7
TORSDOF 5
ENDMDL
MODEL 6
REMARK VINA RESULT:      -5.2      2.677      3.976
REMARK  Name = 129891
REMARK  5 active torsions:
REMARK  status: ('A' for Active; 'I' for Inactive)
REMARK    1  A    between atoms: C_1  and  C_2
REMARK    2  A    between atoms: C_1  and  C_7
REMARK    3  A    between atoms: C_2  and  O_5
REMARK    4  A    between atoms: C_7  and  C_9
REMARK    5  A    between atoms: C_9  and  C_10
REMARK                            x       y       z     vdW  Elec       q    Type
REMARK                         _______ _______ _______ _____ _____    ______ ____
ROOT
ATOM      1  C   UNL     1      34.947 -16.981 -21.147  0.00  0.00    +0.035 C 
ENDROOT
BRANCH   1   2
ATOM      2  C   UNL     1      34.294 -15.589 -21.253  0.00  0.00    +0.089 C 
ATOM      3  C   UNL     1      34.490 -14.955 -22.633  0.00  0.00    +0.029 C 
ATOM      4  C   UNL     1      32.809 -15.618 -20.891  0.00  0.00    +0.029 C 
BRANCH   2   5
ATOM      5  O   UNL     1      34.934 -14.740 -20.291  0.00  0.00    -0.387 OA
ATOM      6  H   UNL     1      34.415 -14.732 -19.471  0.00  0.00    +0.210 HD
ENDBRANCH   2   5
ENDBRANCH   1   2
BRANCH   1   7
ATOM      7  C   UNL     1      35.495 -17.552 -22.454  0.00  0.00    +0.067 C 
BRANCH   7   9
ATOM      8  O   UNL     1      34.318 -19.630 -22.091  0.00  0.00    -0.296 OA
ATOM      9  C   UNL     1      34.757 -18.809 -22.895  0.00  0.00    +0.151 C 
BRANCH   9  10
ATOM     10  C   UNL     1      34.596 -18.980 -24.397  0.00  0.00    +0.065 C 
ATOM     11  C   UNL     1      34.569 -17.655 -25.139  0.00  0.00    +0.008 C 
ENDBRANCH   9  10
ENDBRANCH   7   9
ENDBRANCH   1   7
TORSDOF 5
ENDMDL
MODEL 7
REMARK VINA RESULT:      -5.1      1.675      2.085
REMARK  Name = 129891
REMARK  5 active torsions:
REMARK  status: ('A' for Active; 'I' for Inactive)
REMARK    1  A    between atoms: C_1  and  C_2
REMARK    2  A    between atoms: C_1  and  C_7
REMARK    3  A    between atoms: C_2  and  O_5
REMARK    4  A    between atoms: C_7  and  C_9
REMARK    5  A    between atoms: C_9  and  C_10
REMARK                            x       y       z     vdW  Elec       q    Type
REMARK                         _______ _______ _______ _____ _____    ______ ____
ROOT
ATOM      1  C   UNL     1      34.431 -18.006 -23.648  0.00  0.00    +0.035 C 
ENDROOT
BRANCH   1   2
ATOM      2  C   UNL     1      34.463 -16.487 -23.913  0.00  0.00    +0.089 C 
ATOM      3  C   UNL     1      34.037 -16.134 -25.340  0.00  0.00    +0.029 C 
ATOM      4  C   UNL     1      33.624 -15.706 -22.901  0.00  0.00    +0.029 C 
BRANCH   2   5
ATOM      5  O   UNL     1      35.818 -16.051 -23.744  0.00  0.00    -0.387 OA
ATOM      6  H   UNL     1      36.135 -16.313 -22.865  0.00  0.00    +0.210 HD
ENDBRANCH   2   5
ENDBRANCH   1   2
BRANCH   1   7
ATOM      7  C   UNL     1      35.596 -18.554 -22.825  0.00  0.00    +0.067 C 
BRANCH   7   9
ATOM      8  O   UNL     1      35.463 -17.672 -20.580  0.00  0.00    -0.296 OA
ATOM      9  C   UNL     1      35.275 -18.623 -21.338  0.00  0.00    +0.151 C 
BRANCH   9  10
ATOM     10  C   UNL     1      34.704 -19.945 -20.852  0.00  0.00    +0.065 C 
ATOM     11  C   UNL     1      33.196 -19.905 -20.678  0.00  0.00    +0.008 C 
ENDBRANCH   9  10
ENDBRANCH   7   9
ENDBRANCH   1   7
TORSDOF 5
ENDMDL
MODEL 8
REMARK VINA RESULT:      -5.0      3.285      4.655
REMARK  Name = 129891
REMARK  5 active torsions:
REMARK  status: ('A' for Active; 'I' for Inactive)
REMARK    1  A    between atoms: C_1  and  C_2
REMARK    2  A    between atoms: C_1  and  C_7
REMARK    3  A    between atoms: C_2  and  O_5
REMARK    4  A    between atoms: C_7  and  C_9
REMARK    5  A    between atoms: C_9  and  C_10
REMARK                            x       y       z     vdW  Elec       q    Type
REMARK                         _______ _______ _______ _____ _____    ______ ____
ROOT
ATOM      1  C   UNL     1      33.813 -15.527 -23.520  0.00  0.00    +0.035 C 
ENDROOT
BRANCH   1   2
ATOM      2  C   UNL     1      33.811 -14.636 -22.262  0.00  0.00    +0.089 C 
ATOM      3  C   UNL     1      32.401 -14.205 -21.852  0.00  0.00    +0.029 C 
ATOM      4  C   UNL     1      34.526 -15.298 -21.083  0.00  0.00    +0.029 C 
BRANCH   2   5
ATOM      5  O   UNL     1      34.553 -13.449 -22.576  0.00  0.00    -0.387 OA
ATOM      6  H   UNL     1      35.222 -13.295 -21.890  0.00  0.00    +0.210 HD
ENDBRANCH   2   5
ENDBRANCH   1   2
BRANCH   1   7
ATOM      7  C   UNL     1      34.947 -16.548 -23.600  0.00  0.00    +0.067 C 
BRANCH   7   9
ATOM      8  O   UNL     1      34.721 -17.150 -25.928  0.00  0.00    -0.296 OA
ATOM      9  C   UNL     1      34.771 -17.522 -24.757  0.00  0.00    +0.151 C 
BRANCH   9  10
ATOM     10  C   UNL     1      34.663 -18.987 -24.367  0.00  0.00    +0.065 C 
ATOM     11  C   UNL     1      34.788 -19.207 -22.870  0.00  0.00    +0.008 C 
ENDBRANCH   9  10
ENDBRANCH   7   9
ENDBRANCH   1   7
TORSDOF 5
ENDMDL
MODEL 9
REMARK VINA RESULT:      -5.0      9.693     10.833
REMARK  Name = 129891
REMARK  5 active torsions:
REMARK  status: ('A' for Active; 'I' for Inactive)
REMARK    1  A    between atoms: C_1  and  C_2
REMARK    2  A    between atoms: C_1  and  C_7
REMARK    3  A    between atoms: C_2  and  O_5
REMARK    4  A    between atoms: C_7  and  C_9
REMARK    5  A    between atoms: C_9  and  C_10
REMARK                            x       y       z     vdW  Elec       q    Type
REMARK                         _______ _______ _______ _____ _____    ______ ____
ROOT
ATOM      1  C   UNL     1      38.047 -25.808 -12.801  0.00  0.00    +0.035 C 
ENDROOT
BRANCH   1   2
ATOM      2  C   UNL     1      38.111 -25.931 -14.336  0.00  0.00    +0.089 C 
ATOM      3  C   UNL     1      36.917 -26.695 -14.912  0.00  0.00    +0.029 C 
ATOM      4  C   UNL     1      38.248 -24.570 -15.020  0.00  0.00    +0.029 C 
BRANCH   2   5
ATOM      5  O   UNL     1      39.296 -26.672 -14.658  0.00  0.00    -0.387 OA
ATOM      6  H   UNL     1      39.128 -27.229 -15.434  0.00  0.00    +0.210 HD
ENDBRANCH   2   5
ENDBRANCH   1   2
BRANCH   1   7
ATOM      7  C   UNL     1      38.317 -24.411 -12.242  0.00  0.00    +0.067 C 
BRANCH   7   9
ATOM      8  O   UNL     1      37.166 -22.782 -10.880  0.00  0.00    -0.296 OA
ATOM      9  C   UNL     1      37.107 -23.827 -11.526  0.00  0.00    +0.151 C 
BRANCH   9  10
ATOM     10  C   UNL     1      35.818 -24.621 -11.667  0.00  0.00    +0.065 C 
ATOM     11  C   UNL     1      34.905 -24.071 -12.748  0.00  0.00    +0.008 C 
ENDBRANCH   9  10
ENDBRANCH   7   9
ENDBRANCH   1   7
TORSDOF 5
ENDMDL
