MODEL 1
REMARK VINA RESULT:      -7.3      0.000      0.000
REMARK  Name = 3991
REMARK  5 active torsions:
REMARK  status: ('A' for Active; 'I' for Inactive)
REMARK    1  A    between atoms: C_1  and  N_7
REMARK    2  A    between atoms: C_3  and  C_11
REMARK    3  A    between atoms: C_11  and  C_15
REMARK    4  A    between atoms: C_11  and  O_16
REMARK    5  A    between atoms: C_11  and  O_18
REMARK                            x       y       z     vdW  Elec       q    Type
REMARK                         _______ _______ _______ _____ _____    ______ ____
ROOT
ATOM      1  C   UNL     1      34.077 -23.819 -15.212  0.00  0.00    +0.034 C 
ATOM      2  C   UNL     1      32.911 -23.934 -14.532  0.00  0.00    +0.014 C 
ATOM      3  C   UNL     1      31.742 -23.616 -15.224  0.00  0.00    +0.038 C 
ATOM      4  C   UNL     1      34.216 -23.425 -16.501  0.00  0.00    +0.013 C 
ATOM      5  C   UNL     1      31.810 -23.203 -16.555  0.00  0.00    +0.001 C 
ATOM      6  C   UNL     1      33.047 -23.107 -17.193  0.00  0.00    +0.001 C 
ENDROOT
BRANCH   1   7
ATOM      7  N   UNL     1      35.359 -24.169 -14.454  0.00  0.00    -0.351 NA
ATOM      8  C   UNL     1      35.903 -25.488 -14.994  0.00  0.00    +0.096 C 
ATOM      9  C   UNL     1      35.035 -24.284 -12.967  0.00  0.00    +0.096 C 
ATOM     10  C   UNL     1      36.440 -23.103 -14.625  0.00  0.00    +0.096 C 
ENDBRANCH   1   7
BRANCH   3  11
ATOM     11  C   UNL     1      30.420 -23.719 -14.542  0.00  0.00    +0.292 C 
BRANCH  11  15
ATOM     12  F   UNL     1      29.042 -24.569 -16.304  0.00  0.00    -0.165 F 
ATOM     13  F   UNL     1      30.324 -25.991 -15.261  0.00  0.00    -0.165 F 
ATOM     14  F   UNL     1      28.556 -25.180 -14.269  0.00  0.00    -0.165 F 
ATOM     15  C   UNL     1      29.578 -24.876 -15.100  0.00  0.00    +0.449 C 
ENDBRANCH  11  15
BRANCH  11  16
ATOM     16  O   UNL     1      29.675 -22.499 -14.701  0.00  0.00    -0.355 OA
ATOM     17  H   UNL     1      28.727 -22.701 -14.728  0.00  0.00    +0.213 HD
ENDBRANCH  11  16
BRANCH  11  18
ATOM     18  O   UNL     1      30.597 -23.928 -13.130  0.00  0.00    -0.355 OA
ATOM     19  H   UNL     1      29.734 -24.087 -12.717  0.00  0.00    +0.213 HD
ENDBRANCH  11  18
ENDBRANCH   3  11
TORSDOF 5
ENDMDL
MODEL 2
REMARK VINA RESULT:      -7.0      9.879     11.509
REMARK  Name = 3991
REMARK  5 active torsions:
REMARK  status: ('A' for Active; 'I' for Inactive)
REMARK    1  A    between atoms: C_1  and  N_7
REMARK    2  A    between atoms: C_3  and  C_11
REMARK    3  A    between atoms: C_11  and  C_15
REMARK    4  A    between atoms: C_11  and  O_16
REMARK    5  A    between atoms: C_11  and  O_18
REMARK                            x       y       z     vdW  Elec       q    Type
REMARK                         _______ _______ _______ _____ _____    ______ ____
ROOT
ATOM      1  C   UNL     1      33.924 -15.482 -23.879  0.00  0.00    +0.034 C 
ATOM      2  C   UNL     1      34.275 -16.057 -22.704  0.00  0.00    +0.014 C 
ATOM      3  C   UNL     1      34.906 -17.299 -22.773  0.00  0.00    +0.038 C 
ATOM      4  C   UNL     1      34.127 -15.999 -25.115  0.00  0.00    +0.013 C 
ATOM      5  C   UNL     1      35.147 -17.892 -24.013  0.00  0.00    +0.001 C 
ATOM      6  C   UNL     1      34.757 -17.241 -25.184  0.00  0.00    +0.001 C 
ENDROOT
BRANCH   1   7
ATOM      7  N   UNL     1      33.233 -14.119 -23.804  0.00  0.00    -0.351 NA
ATOM      8  C   UNL     1      32.349 -14.083 -22.561  0.00  0.00    +0.096 C 
ATOM      9  C   UNL     1      32.401 -13.919 -25.068  0.00  0.00    +0.096 C 
ATOM     10  C   UNL     1      34.235 -12.969 -23.708  0.00  0.00    +0.096 C 
ENDBRANCH   1   7
BRANCH   3  11
ATOM     11  C   UNL     1      35.323 -17.995 -21.522  0.00  0.00    +0.292 C 
BRANCH  11  15
ATOM     12  F   UNL     1      34.094 -19.941 -22.174  0.00  0.00    -0.165 F 
ATOM     13  F   UNL     1      34.832 -19.864 -20.125  0.00  0.00    -0.165 F 
ATOM     14  F   UNL     1      33.157 -18.602 -20.733  0.00  0.00    -0.165 F 
ATOM     15  C   UNL     1      34.342 -19.112 -21.135  0.00  0.00    +0.449 C 
ENDBRANCH  11  15
BRANCH  11  16
ATOM     16  O   UNL     1      35.401 -17.062 -20.429  0.00  0.00    -0.355 OA
ATOM     17  H   UNL     1      36.328 -16.955 -20.162  0.00  0.00    +0.213 HD
ENDBRANCH  11  16
BRANCH  11  18
ATOM     18  O   UNL     1      36.630 -18.574 -21.679  0.00  0.00    -0.355 OA
ATOM     19  H   UNL     1      36.591 -19.285 -22.338  0.00  0.00    +0.213 HD
ENDBRANCH  11  18
ENDBRANCH   3  11
TORSDOF 5
ENDMDL
MODEL 3
REMARK VINA RESULT:      -7.0      3.529      5.191
REMARK  Name = 3991
REMARK  5 active torsions:
REMARK  status: ('A' for Active; 'I' for Inactive)
REMARK    1  A    between atoms: C_1  and  N_7
REMARK    2  A    between atoms: C_3  and  C_11
REMARK    3  A    between atoms: C_11  and  C_15
REMARK    4  A    between atoms: C_11  and  O_16
REMARK    5  A    between atoms: C_11  and  O_18
REMARK                            x       y       z     vdW  Elec       q    Type
REMARK                         _______ _______ _______ _____ _____    ______ ____
ROOT
ATOM      1  C   UNL     1      32.009 -23.590 -15.500  0.00  0.00    +0.034 C 
ATOM      2  C   UNL     1      33.137 -23.696 -14.758  0.00  0.00    +0.014 C 
ATOM      3  C   UNL     1      34.346 -23.453 -15.409  0.00  0.00    +0.038 C 
ATOM      4  C   UNL     1      31.943 -23.270 -16.815  0.00  0.00    +0.013 C 
ATOM      5  C   UNL     1      34.354 -23.119 -16.764  0.00  0.00    +0.001 C 
ATOM      6  C   UNL     1      33.153 -23.028 -17.467  0.00  0.00    +0.001 C 
ENDROOT
BRANCH   1   7
ATOM      7  N   UNL     1      30.682 -23.854 -14.785  0.00  0.00    -0.351 NA
ATOM      8  C   UNL     1      29.647 -22.851 -15.286  0.00  0.00    +0.096 C 
ATOM      9  C   UNL     1      30.896 -23.707 -13.281  0.00  0.00    +0.096 C 
ATOM     10  C   UNL     1      30.151 -25.261 -15.054  0.00  0.00    +0.096 C 
ENDBRANCH   1   7
BRANCH   3  11
ATOM     11  C   UNL     1      35.631 -23.550 -14.658  0.00  0.00    +0.292 C 
BRANCH  11  15
ATOM     12  F   UNL     1      35.413 -25.817 -15.393  0.00  0.00    -0.165 F 
ATOM     13  F   UNL     1      37.429 -24.997 -15.259  0.00  0.00    -0.165 F 
ATOM     14  F   UNL     1      36.321 -25.480 -13.440  0.00  0.00    -0.165 F 
ATOM     15  C   UNL     1      36.204 -24.975 -14.688  0.00  0.00    +0.449 C 
ENDBRANCH  11  15
BRANCH  11  16
ATOM     16  O   UNL     1      35.442 -23.167 -13.285  0.00  0.00    -0.355 OA
ATOM     17  H   UNL     1      36.024 -22.419 -13.075  0.00  0.00    +0.213 HD
ENDBRANCH  11  16
BRANCH  11  18
ATOM     18  O   UNL     1      36.610 -22.656 -15.217  0.00  0.00    -0.355 OA
ATOM     19  H   UNL     1      36.330 -21.739 -15.071  0.00  0.00    +0.213 HD
ENDBRANCH  11  18
ENDBRANCH   3  11
TORSDOF 5
ENDMDL
MODEL 4
REMARK VINA RESULT:      -7.0     10.287     11.955
REMARK  Name = 3991
REMARK  5 active torsions:
REMARK  status: ('A' for Active; 'I' for Inactive)
REMARK    1  A    between atoms: C_1  and  N_7
REMARK    2  A    between atoms: C_3  and  C_11
REMARK    3  A    between atoms: C_11  and  C_15
REMARK    4  A    between atoms: C_11  and  O_16
REMARK    5  A    between atoms: C_11  and  O_18
REMARK                            x       y       z     vdW  Elec       q    Type
REMARK                         _______ _______ _______ _____ _____    ______ ____
ROOT
ATOM      1  C   UNL     1      33.793 -14.619 -22.539  0.00  0.00    +0.034 C 
ATOM      2  C   UNL     1      34.326 -15.697 -23.161  0.00  0.00    +0.014 C 
ATOM      3  C   UNL     1      34.916 -16.667 -22.349  0.00  0.00    +0.038 C 
ATOM      4  C   UNL     1      33.777 -14.393 -21.203  0.00  0.00    +0.013 C 
ATOM      5  C   UNL     1      34.936 -16.499 -20.964  0.00  0.00    +0.001 C 
ATOM      6  C   UNL     1      34.367 -15.362 -20.391  0.00  0.00    +0.001 C 
ENDROOT
BRANCH   1   7
ATOM      7  N   UNL     1      33.145 -13.556 -23.428  0.00  0.00    -0.351 NA
ATOM      8  C   UNL     1      31.976 -12.930 -22.672  0.00  0.00    +0.096 C 
ATOM      9  C   UNL     1      32.665 -14.219 -24.717  0.00  0.00    +0.096 C 
ATOM     10  C   UNL     1      34.121 -12.442 -23.802  0.00  0.00    +0.096 C 
ENDBRANCH   1   7
BRANCH   3  11
ATOM     11  C   UNL     1      35.524 -17.883 -22.962  0.00  0.00    +0.292 C 
BRANCH  11  15
ATOM     12  F   UNL     1      33.581 -18.881 -21.984  0.00  0.00    -0.165 F 
ATOM     13  F   UNL     1      34.528 -19.943 -23.636  0.00  0.00    -0.165 F 
ATOM     14  F   UNL     1      35.488 -19.890 -21.675  0.00  0.00    -0.165 F 
ATOM     15  C   UNL     1      34.773 -19.162 -22.561  0.00  0.00    +0.449 C 
ENDBRANCH  11  15
BRANCH  11  16
ATOM     16  O   UNL     1      36.897 -18.019 -22.556  0.00  0.00    -0.355 OA
ATOM     17  H   UNL     1      37.299 -18.769 -23.022  0.00  0.00    +0.213 HD
ENDBRANCH  11  16
BRANCH  11  18
ATOM     18  O   UNL     1      35.514 -17.783 -24.396  0.00  0.00    -0.355 OA
ATOM     19  H   UNL     1      35.414 -16.854 -24.655  0.00  0.00    +0.213 HD
ENDBRANCH  11  18
ENDBRANCH   3  11
TORSDOF 5
ENDMDL
MODEL 5
REMARK VINA RESULT:      -6.9      1.924      2.776
REMARK  Name = 3991
REMARK  5 active torsions:
REMARK  status: ('A' for Active; 'I' for Inactive)
REMARK    1  A    between atoms: C_1  and  N_7
REMARK    2  A    between atoms: C_3  and  C_11
REMARK    3  A    between atoms: C_11  and  C_15
REMARK    4  A    between atoms: C_11  and  O_16
REMARK    5  A    between atoms: C_11  and  O_18
REMARK                            x       y       z     vdW  Elec       q    Type
REMARK                         _______ _______ _______ _____ _____    ______ ____
ROOT
ATOM      1  C   UNL     1      36.123 -24.605 -14.633  0.00  0.00    +0.034 C 
ATOM      2  C   UNL     1      34.927 -24.730 -14.011  0.00  0.00    +0.014 C 
ATOM      3  C   UNL     1      33.926 -23.831 -14.382  0.00  0.00    +0.038 C 
ATOM      4  C   UNL     1      36.441 -23.691 -15.581  0.00  0.00    +0.013 C 
ATOM      5  C   UNL     1      34.183 -22.862 -15.352  0.00  0.00    +0.001 C 
ATOM      6  C   UNL     1      35.440 -22.792 -15.951  0.00  0.00    +0.001 C 
ENDROOT
BRANCH   1   7
ATOM      7  N   UNL     1      37.220 -25.592 -14.229  0.00  0.00    -0.351 NA
ATOM      8  C   UNL     1      38.579 -24.950 -14.495  0.00  0.00    +0.096 C 
ATOM      9  C   UNL     1      37.056 -26.872 -15.044  0.00  0.00    +0.096 C 
ATOM     10  C   UNL     1      37.149 -25.959 -12.748  0.00  0.00    +0.096 C 
ENDBRANCH   1   7
BRANCH   3  11
ATOM     11  C   UNL     1      32.581 -23.906 -13.741  0.00  0.00    +0.292 C 
BRANCH  11  15
ATOM     12  F   UNL     1      31.762 -24.119 -15.979  0.00  0.00    -0.165 F 
ATOM     13  F   UNL     1      30.305 -24.246 -14.363  0.00  0.00    -0.165 F 
ATOM     14  F   UNL     1      31.205 -22.324 -14.876  0.00  0.00    -0.165 F 
ATOM     15  C   UNL     1      31.452 -23.647 -14.750  0.00  0.00    +0.449 C 
ENDBRANCH  11  15
BRANCH  11  16
ATOM     16  O   UNL     1      32.473 -22.938 -12.682  0.00  0.00    -0.355 OA
ATOM     17  H   UNL     1      31.543 -22.851 -12.419  0.00  0.00    +0.213 HD
ENDBRANCH  11  16
BRANCH  11  18
ATOM     18  O   UNL     1      32.375 -25.203 -13.153  0.00  0.00    -0.355 OA
ATOM     19  H   UNL     1      32.538 -25.154 -12.198  0.00  0.00    +0.213 HD
ENDBRANCH  11  18
ENDBRANCH   3  11
TORSDOF 5
ENDMDL
MODEL 6
REMARK VINA RESULT:      -6.8      1.791      2.354
REMARK  Name = 3991
REMARK  5 active torsions:
REMARK  status: ('A' for Active; 'I' for Inactive)
REMARK    1  A    between atoms: C_1  and  N_7
REMARK    2  A    between atoms: C_3  and  C_11
REMARK    3  A    between atoms: C_11  and  C_15
REMARK    4  A    between atoms: C_11  and  O_16
REMARK    5  A    between atoms: C_11  and  O_18
REMARK                            x       y       z     vdW  Elec       q    Type
REMARK                         _______ _______ _______ _____ _____    ______ ____
ROOT
ATOM      1  C   UNL     1      34.958 -23.565 -15.649  0.00  0.00    +0.034 C 
ATOM      2  C   UNL     1      33.856 -23.975 -14.979  0.00  0.00    +0.014 C 
ATOM      3  C   UNL     1      32.630 -23.824 -15.628  0.00  0.00    +0.038 C 
ATOM      4  C   UNL     1      34.985 -23.021 -16.890  0.00  0.00    +0.013 C 
ATOM      5  C   UNL     1      32.582 -23.271 -16.907  0.00  0.00    +0.001 C 
ATOM      6  C   UNL     1      33.759 -22.869 -17.538  0.00  0.00    +0.001 C 
ENDROOT
BRANCH   1   7
ATOM      7  N   UNL     1      36.304 -23.733 -14.940  0.00  0.00    -0.351 NA
ATOM      8  C   UNL     1      37.336 -22.844 -15.627  0.00  0.00    +0.096 C 
ATOM      9  C   UNL     1      36.717 -25.200 -15.011  0.00  0.00    +0.096 C 
ATOM     10  C   UNL     1      36.234 -23.330 -13.468  0.00  0.00    +0.096 C 
ENDBRANCH   1   7
BRANCH   3  11
ATOM     11  C   UNL     1      31.371 -24.253 -14.953  0.00  0.00    +0.292 C 
BRANCH  11  15
ATOM     12  F   UNL     1      30.566 -23.497 -12.831  0.00  0.00    -0.165 F 
ATOM     13  F   UNL     1      31.557 -22.032 -14.104  0.00  0.00    -0.165 F 
ATOM     14  F   UNL     1      29.556 -22.746 -14.610  0.00  0.00    -0.165 F 
ATOM     15  C   UNL     1      30.757 -23.121 -14.116  0.00  0.00    +0.449 C 
ENDBRANCH  11  15
BRANCH  11  16
ATOM     16  O   UNL     1      31.620 -25.373 -14.086  0.00  0.00    -0.355 OA
ATOM     17  H   UNL     1      30.819 -25.571 -13.576  0.00  0.00    +0.213 HD
ENDBRANCH  11  16
BRANCH  11  18
ATOM     18  O   UNL     1      30.398 -24.677 -15.924  0.00  0.00    -0.355 OA
ATOM     19  H   UNL     1      30.773 -25.387 -16.468  0.00  0.00    +0.213 HD
ENDBRANCH  11  18
ENDBRANCH   3  11
TORSDOF 5
ENDMDL
MODEL 7
REMARK VINA RESULT:      -6.6      1.645      2.487
REMARK  Name = 3991
REMARK  5 active torsions:
REMARK  status: ('A' for Active; 'I' for Inactive)
REMARK    1  A    between atoms: C_1  and  N_7
REMARK    2  A    between atoms: C_3  and  C_11
REMARK    3  A    between atoms: C_11  and  C_15
REMARK    4  A    between atoms: C_11  and  O_16
REMARK    5  A    between atoms: C_11  and  O_18
REMARK                            x       y       z     vdW  Elec       q    Type
REMARK                         _______ _______ _______ _____ _____    ______ ____
ROOT
ATOM      1  C   UNL     1      35.499 -24.206 -13.694  0.00  0.00    +0.034 C 
ATOM      2  C   UNL     1      34.238 -23.970 -13.261  0.00  0.00    +0.014 C 
ATOM      3  C   UNL     1      33.301 -23.593 -14.223  0.00  0.00    +0.038 C 
ATOM      4  C   UNL     1      35.938 -24.112 -14.972  0.00  0.00    +0.013 C 
ATOM      5  C   UNL     1      33.682 -23.476 -15.560  0.00  0.00    +0.001 C 
ATOM      6  C   UNL     1      35.001 -23.735 -15.935  0.00  0.00    +0.001 C 
ENDROOT
BRANCH   1   7
ATOM      7  N   UNL     1      36.527 -24.621 -12.639  0.00  0.00    -0.351 NA
ATOM      8  C   UNL     1      35.861 -24.595 -11.267  0.00  0.00    +0.096 C 
ATOM      9  C   UNL     1      37.704 -23.650 -12.690  0.00  0.00    +0.096 C 
ATOM     10  C   UNL     1      37.065 -26.031 -12.880  0.00  0.00    +0.096 C 
ENDBRANCH   1   7
BRANCH   3  11
ATOM     11  C   UNL     1      31.891 -23.316 -13.823  0.00  0.00    +0.292 C 
BRANCH  11  15
ATOM     12  F   UNL     1      31.785 -25.705 -13.920  0.00  0.00    -0.165 F 
ATOM     13  F   UNL     1      30.251 -24.681 -12.758  0.00  0.00    -0.165 F 
ATOM     14  F   UNL     1      30.213 -24.591 -14.940  0.00  0.00    -0.165 F 
ATOM     15  C   UNL     1      31.027 -24.586 -13.860  0.00  0.00    +0.449 C 
ENDBRANCH  11  15
BRANCH  11  16
ATOM     16  O   UNL     1      31.300 -22.341 -14.701  0.00  0.00    -0.355 OA
ATOM     17  H   UNL     1      31.938 -22.100 -15.391  0.00  0.00    +0.213 HD
ENDBRANCH  11  16
BRANCH  11  18
ATOM     18  O   UNL     1      31.843 -22.774 -12.492  0.00  0.00    -0.355 OA
ATOM     19  H   UNL     1      31.179 -22.067 -12.455  0.00  0.00    +0.213 HD
ENDBRANCH  11  18
ENDBRANCH   3  11
TORSDOF 5
ENDMDL
MODEL 8
REMARK VINA RESULT:      -6.6     14.012     15.480
REMARK  Name = 3991
REMARK  5 active torsions:
REMARK  status: ('A' for Active; 'I' for Inactive)
REMARK    1  A    between atoms: C_1  and  N_7
REMARK    2  A    between atoms: C_3  and  C_11
REMARK    3  A    between atoms: C_11  and  C_15
REMARK    4  A    between atoms: C_11  and  O_16
REMARK    5  A    between atoms: C_11  and  O_18
REMARK                            x       y       z     vdW  Elec       q    Type
REMARK                         _______ _______ _______ _____ _____    ______ ____
ROOT
ATOM      1  C   UNL     1      33.172  -9.849 -23.277  0.00  0.00    +0.034 C 
ATOM      2  C   UNL     1      32.731 -11.117 -23.098  0.00  0.00    +0.014 C 
ATOM      3  C   UNL     1      33.330 -12.109 -23.874  0.00  0.00    +0.038 C 
ATOM      4  C   UNL     1      34.140  -9.452 -24.138  0.00  0.00    +0.013 C 
ATOM      5  C   UNL     1      34.334 -11.773 -24.783  0.00  0.00    +0.001 C 
ATOM      6  C   UNL     1      34.739 -10.445 -24.915  0.00  0.00    +0.001 C 
ENDROOT
BRANCH   1   7
ATOM      7  N   UNL     1      32.517  -8.760 -22.425  0.00  0.00    -0.351 NA
ATOM      8  C   UNL     1      31.308  -8.209 -23.176  0.00  0.00    +0.096 C 
ATOM      9  C   UNL     1      33.540  -7.659 -22.161  0.00  0.00    +0.096 C 
ATOM     10  C   UNL     1      32.036  -9.294 -21.076  0.00  0.00    +0.096 C 
ENDBRANCH   1   7
BRANCH   3  11
ATOM     11  C   UNL     1      32.898 -13.529 -23.733  0.00  0.00    +0.292 C 
BRANCH  11  15
ATOM     12  F   UNL     1      34.722 -13.678 -22.193  0.00  0.00    -0.165 F 
ATOM     13  F   UNL     1      33.434 -15.425 -22.390  0.00  0.00    -0.165 F 
ATOM     14  F   UNL     1      34.827 -14.906 -23.990  0.00  0.00    -0.165 F 
ATOM     15  C   UNL     1      33.981 -14.393 -23.070  0.00  0.00    +0.449 C 
ENDBRANCH  11  15
BRANCH  11  16
ATOM     16  O   UNL     1      32.594 -14.094 -25.021  0.00  0.00    -0.355 OA
ATOM     17  H   UNL     1      32.850 -13.468 -25.716  0.00  0.00    +0.213 HD
ENDBRANCH  11  16
BRANCH  11  18
ATOM     18  O   UNL     1      31.701 -13.615 -22.940  0.00  0.00    -0.355 OA
ATOM     19  H   UNL     1      31.114 -12.874 -23.160  0.00  0.00    +0.213 HD
ENDBRANCH  11  18
ENDBRANCH   3  11
TORSDOF 5
ENDMDL
MODEL 9
REMARK VINA RESULT:      -6.6      3.994      5.622
REMARK  Name = 3991
REMARK  5 active torsions:
REMARK  status: ('A' for Active; 'I' for Inactive)
REMARK    1  A    between atoms: C_1  and  N_7
REMARK    2  A    between atoms: C_3  and  C_11
REMARK    3  A    between atoms: C_11  and  C_15
REMARK    4  A    between atoms: C_11  and  O_16
REMARK    5  A    between atoms: C_11  and  O_18
REMARK                            x       y       z     vdW  Elec       q    Type
REMARK                         _______ _______ _______ _____ _____    ______ ____
ROOT
ATOM      1  C   UNL     1      33.064 -23.738 -14.835  0.00  0.00    +0.034 C 
ATOM      2  C   UNL     1      33.749 -24.177 -13.753  0.00  0.00    +0.014 C 
ATOM      3  C   UNL     1      35.138 -24.059 -13.795  0.00  0.00    +0.038 C 
ATOM      4  C   UNL     1      33.599 -23.196 -15.956  0.00  0.00    +0.013 C 
ATOM      5  C   UNL     1      35.758 -23.510 -14.918  0.00  0.00    +0.001 C 
ATOM      6  C   UNL     1      34.989 -23.079 -15.998  0.00  0.00    +0.001 C 
ENDROOT
BRANCH   1   7
ATOM      7  N   UNL     1      31.540 -23.865 -14.789  0.00  0.00    -0.351 NA
ATOM      8  C   UNL     1      30.997 -23.791 -16.213  0.00  0.00    +0.096 C 
ATOM      9  C   UNL     1      30.978 -22.732 -13.935  0.00  0.00    +0.096 C 
ATOM     10  C   UNL     1      31.089 -25.190 -14.176  0.00  0.00    +0.096 C 
ENDBRANCH   1   7
BRANCH   3  11
ATOM     11  C   UNL     1      35.962 -24.519 -12.640  0.00  0.00    +0.292 C 
BRANCH  11  15
ATOM     12  F   UNL     1      37.205 -26.481 -12.066  0.00  0.00    -0.165 F 
ATOM     13  F   UNL     1      36.557 -26.278 -14.137  0.00  0.00    -0.165 F 
ATOM     14  F   UNL     1      38.174 -25.027 -13.369  0.00  0.00    -0.165 F 
ATOM     15  C   UNL     1      36.984 -25.587 -13.057  0.00  0.00    +0.449 C 
ENDBRANCH  11  15
BRANCH  11  16
ATOM     16  O   UNL     1      35.122 -25.074 -11.611  0.00  0.00    -0.355 OA
ATOM     17  H   UNL     1      35.677 -25.455 -10.913  0.00  0.00    +0.213 HD
ENDBRANCH  11  16
BRANCH  11  18
ATOM     18  O   UNL     1      36.674 -23.414 -12.056  0.00  0.00    -0.355 OA
ATOM     19  H   UNL     1      36.485 -23.374 -11.105  0.00  0.00    +0.213 HD
ENDBRANCH  11  18
ENDBRANCH   3  11
TORSDOF 5
ENDMDL
