MODEL 1
REMARK VINA RESULT:      -5.4      0.000      0.000
REMARK  Name = 4101
REMARK  0 active torsions:
REMARK  status: ('A' for Active; 'I' for Inactive)
REMARK                            x       y       z     vdW  Elec       q    Type
REMARK                         _______ _______ _______ _____ _____    ______ ____
ROOT
ATOM      1  N   UNL     1      38.256 -25.182 -15.104  0.00  0.00    +0.349 N 
ATOM      2  N   UNL     1      36.783 -23.632 -13.892  0.00  0.00    +0.349 N 
ATOM      3  N   UNL     1      38.301 -25.112 -12.648  0.00  0.00    +0.349 N 
ATOM      4  N   UNL     1      36.352 -26.051 -13.815  0.00  0.00    +0.349 N 
ATOM      5  C   UNL     1      37.612 -23.846 -15.104  0.00  0.00    -0.173 C 
ATOM      6  C   UNL     1      39.097 -25.294 -13.886  0.00  0.00    -0.173 C 
ATOM      7  C   UNL     1      37.190 -26.212 -15.030  0.00  0.00    -0.173 C 
ATOM      8  C   UNL     1      37.656 -23.777 -12.700  0.00  0.00    -0.173 C 
ATOM      9  C   UNL     1      35.749 -24.695 -13.843  0.00  0.00    -0.173 C 
ATOM     10  C   UNL     1      37.235 -26.144 -12.626  0.00  0.00    -0.173 C 
ATOM     11  H   UNL     1      38.820 -25.309 -15.944  0.00  0.00    -0.089 HD
ATOM     12  H   UNL     1      36.350 -22.709 -13.911  0.00  0.00    -0.089 HD
ATOM     13  H   UNL     1      38.896 -25.192 -11.824  0.00  0.00    -0.089 HD
ATOM     14  H   UNL     1      35.627 -26.766 -13.782  0.00  0.00    -0.089 HD
ENDROOT
TORSDOF 0
ENDMDL
MODEL 2
REMARK VINA RESULT:      -5.4      0.035      2.308
REMARK  Name = 4101
REMARK  0 active torsions:
REMARK  status: ('A' for Active; 'I' for Inactive)
REMARK                            x       y       z     vdW  Elec       q    Type
REMARK                         _______ _______ _______ _____ _____    ______ ____
ROOT
ATOM      1  N   UNL     1      38.226 -25.160 -15.119  0.00  0.00    +0.349 N 
ATOM      2  N   UNL     1      38.312 -25.129 -12.662  0.00  0.00    +0.349 N 
ATOM      3  N   UNL     1      36.336 -26.031 -13.812  0.00  0.00    +0.349 N 
ATOM      4  N   UNL     1      36.789 -23.615 -13.859  0.00  0.00    +0.349 N 
ATOM      5  C   UNL     1      39.086 -25.298 -13.917  0.00  0.00    -0.173 C 
ATOM      6  C   UNL     1      37.151 -26.181 -15.042  0.00  0.00    -0.173 C 
ATOM      7  C   UNL     1      37.596 -23.817 -15.088  0.00  0.00    -0.173 C 
ATOM      8  C   UNL     1      37.235 -26.150 -12.638  0.00  0.00    -0.173 C 
ATOM      9  C   UNL     1      37.679 -23.786 -12.684  0.00  0.00    -0.173 C 
ATOM     10  C   UNL     1      35.745 -24.669 -13.810  0.00  0.00    -0.173 C 
ATOM     11  H   UNL     1      38.776 -25.279 -15.969  0.00  0.00    -0.089 HD
ATOM     12  H   UNL     1      38.919 -25.227 -11.849  0.00  0.00    -0.089 HD
ATOM     13  H   UNL     1      35.604 -26.740 -13.778  0.00  0.00    -0.089 HD
ATOM     14  H   UNL     1      36.365 -22.688 -13.856  0.00  0.00    -0.089 HD
ENDROOT
TORSDOF 0
ENDMDL
MODEL 3
REMARK VINA RESULT:      -5.4      0.017      2.654
REMARK  Name = 4101
REMARK  0 active torsions:
REMARK  status: ('A' for Active; 'I' for Inactive)
REMARK                            x       y       z     vdW  Elec       q    Type
REMARK                         _______ _______ _______ _____ _____    ______ ____
ROOT
ATOM      1  N   UNL     1      36.359 -26.057 -13.833  0.00  0.00    +0.349 N 
ATOM      2  N   UNL     1      38.294 -25.120 -12.641  0.00  0.00    +0.349 N 
ATOM      3  N   UNL     1      36.788 -23.638 -13.896  0.00  0.00    +0.349 N 
ATOM      4  N   UNL     1      38.275 -25.182 -15.099  0.00  0.00    +0.349 N 
ATOM      5  C   UNL     1      37.229 -26.153 -12.635  0.00  0.00    -0.173 C 
ATOM      6  C   UNL     1      35.755 -24.701 -13.862  0.00  0.00    -0.173 C 
ATOM      7  C   UNL     1      37.210 -26.213 -15.038  0.00  0.00    -0.173 C 
ATOM      8  C   UNL     1      37.648 -23.785 -12.696  0.00  0.00    -0.173 C 
ATOM      9  C   UNL     1      39.104 -25.296 -13.873  0.00  0.00    -0.173 C 
ATOM     10  C   UNL     1      37.630 -23.846 -15.101  0.00  0.00    -0.173 C 
ATOM     11  H   UNL     1      35.634 -26.773 -13.810  0.00  0.00    -0.089 HD
ATOM     12  H   UNL     1      38.880 -25.203 -11.811  0.00  0.00    -0.089 HD
ATOM     13  H   UNL     1      36.354 -22.715 -13.916  0.00  0.00    -0.089 HD
ATOM     14  H   UNL     1      38.849 -25.305 -15.932  0.00  0.00    -0.089 HD
ENDROOT
TORSDOF 0
ENDMDL
MODEL 4
REMARK VINA RESULT:      -5.4      0.015      2.299
REMARK  Name = 4101
REMARK  0 active torsions:
REMARK  status: ('A' for Active; 'I' for Inactive)
REMARK                            x       y       z     vdW  Elec       q    Type
REMARK                         _______ _______ _______ _____ _____    ______ ____
ROOT
ATOM      1  N   UNL     1      38.241 -25.171 -15.114  0.00  0.00    +0.349 N 
ATOM      2  N   UNL     1      36.344 -26.045 -13.818  0.00  0.00    +0.349 N 
ATOM      3  N   UNL     1      36.773 -23.626 -13.891  0.00  0.00    +0.349 N 
ATOM      4  N   UNL     1      38.297 -25.108 -12.658  0.00  0.00    +0.349 N 
ATOM      5  C   UNL     1      37.177 -26.202 -15.036  0.00  0.00    -0.173 C 
ATOM      6  C   UNL     1      37.596 -23.834 -15.107  0.00  0.00    -0.173 C 
ATOM      7  C   UNL     1      39.088 -25.286 -13.901  0.00  0.00    -0.173 C 
ATOM      8  C   UNL     1      35.739 -24.689 -13.840  0.00  0.00    -0.173 C 
ATOM      9  C   UNL     1      37.231 -26.140 -12.632  0.00  0.00    -0.173 C 
ATOM     10  C   UNL     1      37.652 -23.773 -12.704  0.00  0.00    -0.173 C 
ATOM     11  H   UNL     1      38.802 -25.296 -15.956  0.00  0.00    -0.089 HD
ATOM     12  H   UNL     1      35.619 -26.762 -13.784  0.00  0.00    -0.089 HD
ATOM     13  H   UNL     1      36.339 -22.703 -13.905  0.00  0.00    -0.089 HD
ATOM     14  H   UNL     1      38.896 -25.189 -11.836  0.00  0.00    -0.089 HD
ENDROOT
TORSDOF 0
ENDMDL
MODEL 5
REMARK VINA RESULT:      -5.4      0.023      2.294
REMARK  Name = 4101
REMARK  0 active torsions:
REMARK  status: ('A' for Active; 'I' for Inactive)
REMARK                            x       y       z     vdW  Elec       q    Type
REMARK                         _______ _______ _______ _____ _____    ______ ____
ROOT
ATOM      1  N   UNL     1      36.364 -26.064 -13.836  0.00  0.00    +0.349 N 
ATOM      2  N   UNL     1      38.282 -25.183 -15.096  0.00  0.00    +0.349 N 
ATOM      3  N   UNL     1      38.295 -25.126 -12.639  0.00  0.00    +0.349 N 
ATOM      4  N   UNL     1      36.789 -23.644 -13.895  0.00  0.00    +0.349 N 
ATOM      5  C   UNL     1      37.218 -26.216 -15.040  0.00  0.00    -0.173 C 
ATOM      6  C   UNL     1      37.232 -26.160 -12.635  0.00  0.00    -0.173 C 
ATOM      7  C   UNL     1      35.757 -24.710 -13.865  0.00  0.00    -0.173 C 
ATOM      8  C   UNL     1      39.108 -25.298 -13.868  0.00  0.00    -0.173 C 
ATOM      9  C   UNL     1      37.634 -23.848 -15.097  0.00  0.00    -0.173 C 
ATOM     10  C   UNL     1      37.646 -23.792 -12.693  0.00  0.00    -0.173 C 
ATOM     11  H   UNL     1      35.640 -26.782 -13.815  0.00  0.00    -0.089 HD
ATOM     12  H   UNL     1      38.857 -25.304 -15.930  0.00  0.00    -0.089 HD
ATOM     13  H   UNL     1      38.879 -25.208 -11.807  0.00  0.00    -0.089 HD
ATOM     14  H   UNL     1      36.353 -22.723 -13.914  0.00  0.00    -0.089 HD
ENDROOT
TORSDOF 0
ENDMDL
MODEL 6
REMARK VINA RESULT:      -5.4      0.022      2.292
REMARK  Name = 4101
REMARK  0 active torsions:
REMARK  status: ('A' for Active; 'I' for Inactive)
REMARK                            x       y       z     vdW  Elec       q    Type
REMARK                         _______ _______ _______ _____ _____    ______ ____
ROOT
ATOM      1  N   UNL     1      36.363 -26.066 -13.831  0.00  0.00    +0.349 N 
ATOM      2  N   UNL     1      36.792 -23.646 -13.887  0.00  0.00    +0.349 N 
ATOM      3  N   UNL     1      38.275 -25.186 -15.099  0.00  0.00    +0.349 N 
ATOM      4  N   UNL     1      38.302 -25.134 -12.642  0.00  0.00    +0.349 N 
ATOM      5  C   UNL     1      35.759 -24.710 -13.853  0.00  0.00    -0.173 C 
ATOM      6  C   UNL     1      37.211 -26.217 -15.040  0.00  0.00    -0.173 C 
ATOM      7  C   UNL     1      37.235 -26.166 -12.635  0.00  0.00    -0.173 C 
ATOM      8  C   UNL     1      37.631 -23.850 -15.095  0.00  0.00    -0.173 C 
ATOM      9  C   UNL     1      37.657 -23.799 -12.690  0.00  0.00    -0.173 C 
ATOM     10  C   UNL     1      39.107 -25.306 -13.876  0.00  0.00    -0.173 C 
ATOM     11  H   UNL     1      35.638 -26.782 -13.807  0.00  0.00    -0.089 HD
ATOM     12  H   UNL     1      36.358 -22.724 -13.902  0.00  0.00    -0.089 HD
ATOM     13  H   UNL     1      38.846 -25.307 -15.936  0.00  0.00    -0.089 HD
ATOM     14  H   UNL     1      38.890 -25.219 -11.814  0.00  0.00    -0.089 HD
ENDROOT
TORSDOF 0
ENDMDL
MODEL 7
REMARK VINA RESULT:      -5.4      0.050      2.654
REMARK  Name = 4101
REMARK  0 active torsions:
REMARK  status: ('A' for Active; 'I' for Inactive)
REMARK                            x       y       z     vdW  Elec       q    Type
REMARK                         _______ _______ _______ _____ _____    ______ ____
ROOT
ATOM      1  N   UNL     1      36.820 -23.648 -13.857  0.00  0.00    +0.349 N 
ATOM      2  N   UNL     1      38.245 -25.204 -15.119  0.00  0.00    +0.349 N 
ATOM      3  N   UNL     1      36.345 -26.058 -13.816  0.00  0.00    +0.349 N 
ATOM      4  N   UNL     1      38.328 -25.177 -12.663  0.00  0.00    +0.349 N 
ATOM      5  C   UNL     1      37.627 -23.855 -15.086  0.00  0.00    -0.173 C 
ATOM      6  C   UNL     1      35.767 -24.692 -13.810  0.00  0.00    -0.173 C 
ATOM      7  C   UNL     1      37.709 -23.829 -12.682  0.00  0.00    -0.173 C 
ATOM      8  C   UNL     1      37.161 -26.215 -15.045  0.00  0.00    -0.173 C 
ATOM      9  C   UNL     1      39.102 -25.352 -13.917  0.00  0.00    -0.173 C 
ATOM     10  C   UNL     1      37.242 -26.188 -12.641  0.00  0.00    -0.173 C 
ATOM     11  H   UNL     1      36.405 -22.717 -13.853  0.00  0.00    -0.089 HD
ATOM     12  H   UNL     1      38.794 -25.327 -15.970  0.00  0.00    -0.089 HD
ATOM     13  H   UNL     1      35.606 -26.761 -13.783  0.00  0.00    -0.089 HD
ATOM     14  H   UNL     1      38.934 -25.282 -11.849  0.00  0.00    -0.089 HD
ENDROOT
TORSDOF 0
ENDMDL
MODEL 8
REMARK VINA RESULT:      -5.4      0.041      2.290
REMARK  Name = 4101
REMARK  0 active torsions:
REMARK  status: ('A' for Active; 'I' for Inactive)
REMARK                            x       y       z     vdW  Elec       q    Type
REMARK                         _______ _______ _______ _____ _____    ______ ____
ROOT
ATOM      1  N   UNL     1      38.312 -25.139 -12.661  0.00  0.00    +0.349 N 
ATOM      2  N   UNL     1      36.795 -23.618 -13.855  0.00  0.00    +0.349 N 
ATOM      3  N   UNL     1      36.325 -26.029 -13.801  0.00  0.00    +0.349 N 
ATOM      4  N   UNL     1      38.217 -25.175 -15.116  0.00  0.00    +0.349 N 
ATOM      5  C   UNL     1      37.689 -23.793 -12.684  0.00  0.00    -0.173 C 
ATOM      6  C   UNL     1      37.228 -26.153 -12.631  0.00  0.00    -0.173 C 
ATOM      7  C   UNL     1      39.080 -25.317 -13.918  0.00  0.00    -0.173 C 
ATOM      8  C   UNL     1      35.744 -24.664 -13.799  0.00  0.00    -0.173 C 
ATOM      9  C   UNL     1      37.596 -23.828 -15.087  0.00  0.00    -0.173 C 
ATOM     10  C   UNL     1      37.136 -26.189 -15.033  0.00  0.00    -0.173 C 
ATOM     11  H   UNL     1      38.921 -25.240 -11.850  0.00  0.00    -0.089 HD
ATOM     12  H   UNL     1      36.377 -22.688 -13.852  0.00  0.00    -0.089 HD
ATOM     13  H   UNL     1      35.588 -26.734 -13.762  0.00  0.00    -0.089 HD
ATOM     14  H   UNL     1      38.762 -25.300 -15.969  0.00  0.00    -0.089 HD
ENDROOT
TORSDOF 0
ENDMDL
MODEL 9
REMARK VINA RESULT:      -5.4      0.031      2.654
REMARK  Name = 4101
REMARK  0 active torsions:
REMARK  status: ('A' for Active; 'I' for Inactive)
REMARK                            x       y       z     vdW  Elec       q    Type
REMARK                         _______ _______ _______ _____ _____    ______ ____
ROOT
ATOM      1  N   UNL     1      38.306 -25.155 -12.644  0.00  0.00    +0.349 N 
ATOM      2  N   UNL     1      36.341 -26.051 -13.819  0.00  0.00    +0.349 N 
ATOM      3  N   UNL     1      38.252 -25.188 -15.101  0.00  0.00    +0.349 N 
ATOM      4  N   UNL     1      36.803 -23.637 -13.860  0.00  0.00    +0.349 N 
ATOM      5  C   UNL     1      37.225 -26.172 -12.633  0.00  0.00    -0.173 C 
ATOM      6  C   UNL     1      39.096 -25.327 -13.888  0.00  0.00    -0.173 C 
ATOM      7  C   UNL     1      37.677 -23.811 -12.674  0.00  0.00    -0.173 C 
ATOM      8  C   UNL     1      37.174 -26.205 -15.038  0.00  0.00    -0.173 C 
ATOM      9  C   UNL     1      35.755 -24.688 -13.824  0.00  0.00    -0.173 C 
ATOM     10  C   UNL     1      37.626 -23.842 -15.078  0.00  0.00    -0.173 C 
ATOM     11  H   UNL     1      38.901 -25.255 -11.822  0.00  0.00    -0.089 HD
ATOM     12  H   UNL     1      35.607 -26.759 -13.793  0.00  0.00    -0.089 HD
ATOM     13  H   UNL     1      38.812 -25.309 -15.944  0.00  0.00    -0.089 HD
ATOM     14  H   UNL     1      36.381 -22.709 -13.863  0.00  0.00    -0.089 HD
ENDROOT
TORSDOF 0
ENDMDL
