MODEL 1
REMARK VINA RESULT:     -10.7      0.000      0.000
REMARK  Name = 6292
REMARK  1 active torsions:
REMARK  status: ('A' for Active; 'I' for Inactive)
REMARK    1  A    between atoms: N_2  and  C_13
REMARK                            x       y       z     vdW  Elec       q    Type
REMARK                         _______ _______ _______ _____ _____    ______ ____
ROOT
ATOM      1  O   UNL     1      35.017 -16.497 -20.328  0.00  0.00    -0.273 OA
ATOM      2  N   UNL     1      34.980 -18.064 -22.087  0.00  0.00    -0.215 N 
ATOM      3  N   UNL     1      34.345 -17.335 -24.261  0.00  0.00    -0.394 NA
ATOM      4  C   UNL     1      34.747 -18.264 -23.449  0.00  0.00    +0.170 C 
ATOM      5  C   UNL     1      34.428 -15.710 -22.437  0.00  0.00    +0.151 C 
ATOM      6  C   UNL     1      34.856 -16.781 -21.513  0.00  0.00    +0.245 C 
ATOM      7  C   UNL     1      34.166 -16.039 -23.768  0.00  0.00    +0.123 C 
ATOM      8  C   UNL     1      34.262 -14.396 -21.980  0.00  0.00    -0.010 C 
ATOM      9  C   UNL     1      35.017 -19.616 -24.078  0.00  0.00    +0.084 C 
ATOM     10  C   UNL     1      33.737 -15.033 -24.642  0.00  0.00    +0.028 C 
ATOM     11  C   UNL     1      33.834 -13.406 -22.862  0.00  0.00    -0.004 C 
ATOM     12  C   UNL     1      33.570 -13.723 -24.192  0.00  0.00    +0.002 C 
ENDROOT
BRANCH   2  13
ATOM     13  C   UNL     1      35.309 -19.146 -21.201  0.00  0.00    +0.056 C 
ATOM     14  C   UNL     1      34.309 -19.940 -20.653  0.00  0.00    -0.008 C 
ATOM     15  C   UNL     1      36.646 -19.383 -20.901  0.00  0.00    +0.015 C 
ATOM     16  C   UNL     1      34.649 -20.985 -19.793  0.00  0.00    -0.003 C 
ATOM     17  C   UNL     1      32.866 -19.702 -20.962  0.00  0.00    +0.032 C 
ATOM     18  C   UNL     1      36.987 -20.428 -20.043  0.00  0.00    +0.001 C 
ATOM     19  C   UNL     1      35.988 -21.229 -19.488  0.00  0.00    -0.000 C 
ENDBRANCH   2  13
TORSDOF 1
ENDMDL
MODEL 2
REMARK VINA RESULT:     -10.0      1.755      6.063
REMARK  Name = 6292
REMARK  1 active torsions:
REMARK  status: ('A' for Active; 'I' for Inactive)
REMARK    1  A    between atoms: N_2  and  C_13
REMARK                            x       y       z     vdW  Elec       q    Type
REMARK                         _______ _______ _______ _____ _____    ______ ____
ROOT
ATOM      1  O   UNL     1      32.905 -19.781 -21.495  0.00  0.00    -0.273 OA
ATOM      2  N   UNL     1      35.185 -19.208 -21.646  0.00  0.00    -0.215 N 
ATOM      3  N   UNL     1      36.726 -20.225 -20.146  0.00  0.00    -0.394 NA
ATOM      4  C   UNL     1      36.467 -19.430 -21.138  0.00  0.00    +0.170 C 
ATOM      5  C   UNL     1      34.364 -20.843 -20.026  0.00  0.00    +0.151 C 
ATOM      6  C   UNL     1      34.073 -19.912 -21.138  0.00  0.00    +0.245 C 
ATOM      7  C   UNL     1      35.676 -20.940 -19.561  0.00  0.00    +0.123 C 
ATOM      8  C   UNL     1      33.339 -21.591 -19.435  0.00  0.00    -0.010 C 
ATOM      9  C   UNL     1      37.668 -18.771 -21.785  0.00  0.00    +0.084 C 
ATOM     10  C   UNL     1      35.953 -21.801 -18.493  0.00  0.00    +0.028 C 
ATOM     11  C   UNL     1      33.630 -22.445 -18.372  0.00  0.00    -0.004 C 
ATOM     12  C   UNL     1      34.936 -22.549 -17.900  0.00  0.00    +0.002 C 
ENDROOT
BRANCH   2  13
ATOM     13  C   UNL     1      34.927 -18.231 -22.667  0.00  0.00    +0.056 C 
ATOM     14  C   UNL     1      34.722 -16.897 -22.334  0.00  0.00    -0.008 C 
ATOM     15  C   UNL     1      34.884 -18.644 -23.994  0.00  0.00    +0.015 C 
ATOM     16  C   UNL     1      34.471 -15.964 -23.340  0.00  0.00    -0.003 C 
ATOM     17  C   UNL     1      34.763 -16.432 -20.914  0.00  0.00    +0.032 C 
ATOM     18  C   UNL     1      34.634 -17.712 -25.001  0.00  0.00    +0.001 C 
ATOM     19  C   UNL     1      34.427 -16.371 -24.673  0.00  0.00    -0.000 C 
ENDBRANCH   2  13
TORSDOF 1
ENDMDL
MODEL 3
REMARK VINA RESULT:      -9.6      1.583      2.511
REMARK  Name = 6292
REMARK  1 active torsions:
REMARK  status: ('A' for Active; 'I' for Inactive)
REMARK    1  A    between atoms: N_2  and  C_13
REMARK                            x       y       z     vdW  Elec       q    Type
REMARK                         _______ _______ _______ _____ _____    ______ ____
ROOT
ATOM      1  O   UNL     1      34.618 -18.489 -24.273  0.00  0.00    -0.273 OA
ATOM      2  N   UNL     1      34.685 -17.297 -22.242  0.00  0.00    -0.215 N 
ATOM      3  N   UNL     1      34.098 -14.993 -22.243  0.00  0.00    -0.394 NA
ATOM      4  C   UNL     1      34.467 -16.068 -21.618  0.00  0.00    +0.170 C 
ATOM      5  C   UNL     1      33.991 -16.249 -24.337  0.00  0.00    +0.151 C 
ATOM      6  C   UNL     1      34.441 -17.462 -23.622  0.00  0.00    +0.245 C 
ATOM      7  C   UNL     1      33.863 -15.059 -23.620  0.00  0.00    +0.123 C 
ATOM      8  C   UNL     1      33.725 -16.288 -25.711  0.00  0.00    -0.010 C 
ATOM      9  C   UNL     1      34.601 -15.942 -20.114  0.00  0.00    +0.084 C 
ATOM     10  C   UNL     1      33.461 -13.901 -24.296  0.00  0.00    +0.028 C 
ATOM     11  C   UNL     1      33.325 -15.127 -26.371  0.00  0.00    -0.004 C 
ATOM     12  C   UNL     1      33.194 -13.934 -25.665  0.00  0.00    +0.002 C 
ENDROOT
BRANCH   2  13
ATOM     13  C   UNL     1      35.208 -18.433 -21.532  0.00  0.00    +0.056 C 
ATOM     14  C   UNL     1      34.349 -19.363 -20.958  0.00  0.00    -0.008 C 
ATOM     15  C   UNL     1      36.586 -18.583 -21.430  0.00  0.00    +0.015 C 
ATOM     16  C   UNL     1      34.876 -20.458 -20.272  0.00  0.00    -0.003 C 
ATOM     17  C   UNL     1      32.865 -19.220 -21.056  0.00  0.00    +0.032 C 
ATOM     18  C   UNL     1      37.113 -19.678 -20.745  0.00  0.00    +0.001 C 
ATOM     19  C   UNL     1      36.257 -20.615 -20.165  0.00  0.00    -0.000 C 
ENDBRANCH   2  13
TORSDOF 1
ENDMDL
MODEL 4
REMARK VINA RESULT:      -9.3      2.592      6.612
REMARK  Name = 6292
REMARK  1 active torsions:
REMARK  status: ('A' for Active; 'I' for Inactive)
REMARK    1  A    between atoms: N_2  and  C_13
REMARK                            x       y       z     vdW  Elec       q    Type
REMARK                         _______ _______ _______ _____ _____    ______ ____
ROOT
ATOM      1  O   UNL     1      34.882 -14.348 -22.223  0.00  0.00    -0.273 OA
ATOM      2  N   UNL     1      33.786 -14.070 -24.289  0.00  0.00    -0.215 N 
ATOM      3  N   UNL     1      33.561 -15.947 -25.733  0.00  0.00    -0.394 NA
ATOM      4  C   UNL     1      33.349 -14.698 -25.458  0.00  0.00    +0.170 C 
ATOM      5  C   UNL     1      34.661 -16.234 -23.569  0.00  0.00    +0.151 C 
ATOM      6  C   UNL     1      34.441 -14.801 -23.277  0.00  0.00    +0.245 C 
ATOM      7  C   UNL     1      34.233 -16.740 -24.796  0.00  0.00    +0.123 C 
ATOM      8  C   UNL     1      35.309 -17.060 -22.642  0.00  0.00    -0.010 C 
ATOM      9  C   UNL     1      32.526 -13.931 -26.473  0.00  0.00    +0.084 C 
ATOM     10  C   UNL     1      34.460 -18.090 -25.088  0.00  0.00    +0.028 C 
ATOM     11  C   UNL     1      35.528 -18.403 -22.946  0.00  0.00    -0.004 C 
ATOM     12  C   UNL     1      35.105 -18.918 -24.169  0.00  0.00    +0.002 C 
ENDROOT
BRANCH   2  13
ATOM     13  C   UNL     1      33.633 -12.657 -24.078  0.00  0.00    +0.056 C 
ATOM     14  C   UNL     1      32.731 -12.176 -23.137  0.00  0.00    -0.008 C 
ATOM     15  C   UNL     1      34.404 -11.780 -24.833  0.00  0.00    +0.015 C 
ATOM     16  C   UNL     1      32.596 -10.800 -22.948  0.00  0.00    -0.003 C 
ATOM     17  C   UNL     1      31.892 -13.101 -22.316  0.00  0.00    +0.032 C 
ATOM     18  C   UNL     1      34.271 -10.404 -24.643  0.00  0.00    +0.001 C 
ATOM     19  C   UNL     1      33.366  -9.914 -23.701  0.00  0.00    -0.000 C 
ENDBRANCH   2  13
TORSDOF 1
ENDMDL
MODEL 5
REMARK VINA RESULT:      -9.1      7.673     11.519
REMARK  Name = 6292
REMARK  1 active torsions:
REMARK  status: ('A' for Active; 'I' for Inactive)
REMARK    1  A    between atoms: N_2  and  C_13
REMARK                            x       y       z     vdW  Elec       q    Type
REMARK                         _______ _______ _______ _____ _____    ______ ____
ROOT
ATOM      1  O   UNL     1      31.955  -9.569 -23.793  0.00  0.00    -0.273 OA
ATOM      2  N   UNL     1      32.196  -7.726 -22.346  0.00  0.00    -0.215 N 
ATOM      3  N   UNL     1      32.105  -8.091 -19.997  0.00  0.00    -0.394 NA
ATOM      4  C   UNL     1      32.254  -7.303 -21.017  0.00  0.00    +0.170 C 
ATOM      5  C   UNL     1      31.898 -10.002 -21.508  0.00  0.00    +0.151 C 
ATOM      6  C   UNL     1      32.038  -9.091 -22.664  0.00  0.00    +0.245 C 
ATOM      7  C   UNL     1      31.913  -9.458 -20.223  0.00  0.00    +0.123 C 
ATOM      8  C   UNL     1      31.728 -11.378 -21.699  0.00  0.00    -0.010 C 
ATOM      9  C   UNL     1      32.561  -5.855 -20.690  0.00  0.00    +0.084 C 
ATOM     10  C   UNL     1      31.757 -10.311 -19.125  0.00  0.00    +0.028 C 
ATOM     11  C   UNL     1      31.574 -12.216 -20.596  0.00  0.00    -0.004 C 
ATOM     12  C   UNL     1      31.587 -11.684 -19.310  0.00  0.00    +0.002 C 
ENDROOT
BRANCH   2  13
ATOM     13  C   UNL     1      32.247  -6.802 -23.446  0.00  0.00    +0.056 C 
ATOM     14  C   UNL     1      33.425  -6.616 -24.159  0.00  0.00    -0.008 C 
ATOM     15  C   UNL     1      31.097  -6.097 -23.782  0.00  0.00    +0.015 C 
ATOM     16  C   UNL     1      33.455  -5.714 -25.222  0.00  0.00    -0.003 C 
ATOM     17  C   UNL     1      34.672  -7.364 -23.814  0.00  0.00    +0.032 C 
ATOM     18  C   UNL     1      31.126  -5.195 -24.845  0.00  0.00    +0.001 C 
ATOM     19  C   UNL     1      32.305  -5.002 -25.565  0.00  0.00    -0.000 C 
ENDBRANCH   2  13
TORSDOF 1
ENDMDL
MODEL 6
REMARK VINA RESULT:      -9.0      5.982      8.984
REMARK  Name = 6292
REMARK  1 active torsions:
REMARK  status: ('A' for Active; 'I' for Inactive)
REMARK    1  A    between atoms: N_2  and  C_13
REMARK                            x       y       z     vdW  Elec       q    Type
REMARK                         _______ _______ _______ _____ _____    ______ ____
ROOT
ATOM      1  O   UNL     1      37.932 -22.414 -16.171  0.00  0.00    -0.273 OA
ATOM      2  N   UNL     1      36.015 -23.453 -15.280  0.00  0.00    -0.215 N 
ATOM      3  N   UNL     1      33.978 -23.347 -16.502  0.00  0.00    -0.394 NA
ATOM      4  C   UNL     1      34.665 -23.747 -15.477  0.00  0.00    +0.170 C 
ATOM      5  C   UNL     1      35.983 -22.308 -17.437  0.00  0.00    +0.151 C 
ATOM      6  C   UNL     1      36.751 -22.742 -16.251  0.00  0.00    +0.245 C 
ATOM      7  C   UNL     1      34.622 -22.609 -17.500  0.00  0.00    +0.123 C 
ATOM      8  C   UNL     1      36.604 -21.588 -18.465  0.00  0.00    -0.010 C 
ATOM      9  C   UNL     1      33.924 -24.629 -14.492  0.00  0.00    +0.084 C 
ATOM     10  C   UNL     1      33.885 -22.179 -18.610  0.00  0.00    +0.028 C 
ATOM     11  C   UNL     1      35.858 -21.167 -19.564  0.00  0.00    -0.004 C 
ATOM     12  C   UNL     1      34.498 -21.461 -19.636  0.00  0.00    +0.002 C 
ENDROOT
BRANCH   2  13
ATOM     13  C   UNL     1      36.708 -23.815 -14.073  0.00  0.00    +0.056 C 
ATOM     14  C   UNL     1      37.337 -25.049 -13.962  0.00  0.00    -0.008 C 
ATOM     15  C   UNL     1      36.735 -22.909 -13.019  0.00  0.00    +0.015 C 
ATOM     16  C   UNL     1      38.003 -25.382 -12.782  0.00  0.00    -0.003 C 
ATOM     17  C   UNL     1      37.319 -26.038 -15.082  0.00  0.00    +0.032 C 
ATOM     18  C   UNL     1      37.401 -23.240 -11.839  0.00  0.00    +0.001 C 
ATOM     19  C   UNL     1      38.034 -24.478 -11.720  0.00  0.00    -0.000 C 
ENDBRANCH   2  13
TORSDOF 1
ENDMDL
MODEL 7
REMARK VINA RESULT:      -9.0      8.618     10.439
REMARK  Name = 6292
REMARK  1 active torsions:
REMARK  status: ('A' for Active; 'I' for Inactive)
REMARK    1  A    between atoms: N_2  and  C_13
REMARK                            x       y       z     vdW  Elec       q    Type
REMARK                         _______ _______ _______ _____ _____    ______ ____
ROOT
ATOM      1  O   UNL     1      33.753 -24.653 -12.593  0.00  0.00    -0.273 OA
ATOM      2  N   UNL     1      35.072 -23.778 -14.338  0.00  0.00    -0.215 N 
ATOM      3  N   UNL     1      33.997 -23.005 -16.313  0.00  0.00    -0.394 NA
ATOM      4  C   UNL     1      35.068 -23.202 -15.610  0.00  0.00    +0.170 C 
ATOM      5  C   UNL     1      32.635 -23.876 -14.480  0.00  0.00    +0.151 C 
ATOM      6  C   UNL     1      33.864 -24.125 -13.697  0.00  0.00    +0.245 C 
ATOM      7  C   UNL     1      32.756 -23.349 -15.766  0.00  0.00    +0.123 C 
ATOM      8  C   UNL     1      31.376 -24.187 -13.952  0.00  0.00    -0.010 C 
ATOM      9  C   UNL     1      36.361 -22.709 -16.227  0.00  0.00    +0.084 C 
ATOM     10  C   UNL     1      31.598 -23.134 -16.522  0.00  0.00    +0.028 C 
ATOM     11  C   UNL     1      30.231 -23.968 -14.716  0.00  0.00    -0.004 C 
ATOM     12  C   UNL     1      30.341 -23.442 -16.001  0.00  0.00    +0.002 C 
ENDROOT
BRANCH   2  13
ATOM     13  C   UNL     1      36.291 -24.087 -13.642  0.00  0.00    +0.056 C 
ATOM     14  C   UNL     1      36.999 -25.246 -13.937  0.00  0.00    -0.008 C 
ATOM     15  C   UNL     1      36.748 -23.206 -12.669  0.00  0.00    +0.015 C 
ATOM     16  C   UNL     1      38.179 -25.529 -13.249  0.00  0.00    -0.003 C 
ATOM     17  C   UNL     1      36.524 -26.207 -14.979  0.00  0.00    +0.032 C 
ATOM     18  C   UNL     1      37.929 -23.488 -11.982  0.00  0.00    +0.001 C 
ATOM     19  C   UNL     1      38.644 -24.651 -12.271  0.00  0.00    -0.000 C 
ENDBRANCH   2  13
TORSDOF 1
ENDMDL
MODEL 8
REMARK VINA RESULT:      -8.6      8.840     11.055
REMARK  Name = 6292
REMARK  1 active torsions:
REMARK  status: ('A' for Active; 'I' for Inactive)
REMARK    1  A    between atoms: N_2  and  C_13
REMARK                            x       y       z     vdW  Elec       q    Type
REMARK                         _______ _______ _______ _____ _____    ______ ____
ROOT
ATOM      1  O   UNL     1      30.404  -6.380 -22.581  0.00  0.00    -0.273 OA
ATOM      2  N   UNL     1      32.378  -7.571 -23.067  0.00  0.00    -0.215 N 
ATOM      3  N   UNL     1      33.803  -6.774 -24.796  0.00  0.00    -0.394 NA
ATOM      4  C   UNL     1      33.529  -7.624 -23.856  0.00  0.00    +0.170 C 
ATOM      5  C   UNL     1      31.774  -5.524 -24.256  0.00  0.00    +0.151 C 
ATOM      6  C   UNL     1      31.454  -6.514 -23.206  0.00  0.00    +0.245 C 
ATOM      7  C   UNL     1      32.924  -5.711 -25.023  0.00  0.00    +0.123 C 
ATOM      8  C   UNL     1      30.927  -4.434 -24.492  0.00  0.00    -0.010 C 
ATOM      9  C   UNL     1      34.579  -8.687 -23.601  0.00  0.00    +0.084 C 
ATOM     10  C   UNL     1      33.220  -4.790 -26.035  0.00  0.00    +0.028 C 
ATOM     11  C   UNL     1      31.234  -3.525 -25.502  0.00  0.00    -0.004 C 
ATOM     12  C   UNL     1      32.379  -3.703 -26.275  0.00  0.00    +0.002 C 
ENDROOT
BRANCH   2  13
ATOM     13  C   UNL     1      32.054  -8.599 -22.116  0.00  0.00    +0.056 C 
ATOM     14  C   UNL     1      32.308  -8.416 -20.762  0.00  0.00    -0.008 C 
ATOM     15  C   UNL     1      31.484  -9.781 -22.576  0.00  0.00    +0.015 C 
ATOM     16  C   UNL     1      31.988  -9.427 -19.856  0.00  0.00    -0.003 C 
ATOM     17  C   UNL     1      32.921  -7.154 -20.247  0.00  0.00    +0.032 C 
ATOM     18  C   UNL     1      31.162 -10.792 -21.670  0.00  0.00    +0.001 C 
ATOM     19  C   UNL     1      31.416 -10.615 -20.310  0.00  0.00    -0.000 C 
ENDBRANCH   2  13
TORSDOF 1
ENDMDL
MODEL 9
REMARK VINA RESULT:      -8.6      2.008      6.182
REMARK  Name = 6292
REMARK  1 active torsions:
REMARK  status: ('A' for Active; 'I' for Inactive)
REMARK    1  A    between atoms: N_2  and  C_13
REMARK                            x       y       z     vdW  Elec       q    Type
REMARK                         _______ _______ _______ _____ _____    ______ ____
ROOT
ATOM      1  O   UNL     1      36.932 -19.548 -20.826  0.00  0.00    -0.273 OA
ATOM      2  N   UNL     1      34.607 -19.613 -21.199  0.00  0.00    -0.215 N 
ATOM      3  N   UNL     1      33.261 -21.005 -19.819  0.00  0.00    -0.394 NA
ATOM      4  C   UNL     1      33.386 -20.145 -20.781  0.00  0.00    +0.170 C 
ATOM      5  C   UNL     1      35.669 -20.899 -19.413  0.00  0.00    +0.151 C 
ATOM      6  C   UNL     1      35.806 -19.940 -20.531  0.00  0.00    +0.245 C 
ATOM      7  C   UNL     1      34.403 -21.410 -19.122  0.00  0.00    +0.123 C 
ATOM      8  C   UNL     1      36.790 -21.305 -18.680  0.00  0.00    -0.010 C 
ATOM      9  C   UNL     1      32.093 -19.678 -21.419  0.00  0.00    +0.084 C 
ATOM     10  C   UNL     1      34.271 -22.335 -18.080  0.00  0.00    +0.028 C 
ATOM     11  C   UNL     1      36.643 -22.228 -17.645  0.00  0.00    -0.004 C 
ATOM     12  C   UNL     1      35.385 -22.744 -17.346  0.00  0.00    +0.002 C 
ENDROOT
BRANCH   2  13
ATOM     13  C   UNL     1      34.715 -18.753 -22.346  0.00  0.00    +0.056 C 
ATOM     14  C   UNL     1      34.792 -17.374 -22.190  0.00  0.00    -0.008 C 
ATOM     15  C   UNL     1      34.739 -19.325 -23.613  0.00  0.00    +0.015 C 
ATOM     16  C   UNL     1      34.894 -16.556 -23.316  0.00  0.00    -0.003 C 
ATOM     17  C   UNL     1      34.767 -16.739 -20.838  0.00  0.00    +0.032 C 
ATOM     18  C   UNL     1      34.842 -18.508 -24.738  0.00  0.00    +0.001 C 
ATOM     19  C   UNL     1      34.918 -17.123 -24.590  0.00  0.00    -0.000 C 
ENDBRANCH   2  13
TORSDOF 1
ENDMDL
