MODEL 1
REMARK VINA RESULT:      -9.4      0.000      0.000
REMARK  Name = 59227
REMARK  7 active torsions:
REMARK  status: ('A' for Active; 'I' for Inactive)
REMARK    1  A    between atoms: N_1  and  C_3
REMARK    2  A    between atoms: N_1  and  C_15
REMARK    3  A    between atoms: N_1  and  C_22
REMARK    4  A    between atoms: C_10  and  O_13
REMARK    5  A    between atoms: C_15  and  C_16
REMARK    6  A    between atoms: C_16  and  C_18
REMARK    7  A    between atoms: C_22  and  C_23
REMARK                            x       y       z     vdW  Elec       q    Type
REMARK                         _______ _______ _______ _____ _____    ______ ____
ROOT
ATOM      1  N   UNL     1      34.554 -17.743 -22.517  0.00  0.00    +0.389 N 
ATOM      2  H   UNL     1      33.651 -17.480 -22.913  0.00  0.00    -0.080 HD
ENDROOT
BRANCH   1   3
ATOM      3  C   UNL     1      34.318 -18.602 -21.357  0.00  0.00    -0.053 C 
ATOM      4  C   UNL     1      33.163 -19.564 -21.643  0.00  0.00    -0.016 C 
ATOM      5  C   UNL     1      35.586 -19.395 -21.011  0.00  0.00    +0.005 C 
ATOM      6  C   UNL     1      32.837 -20.387 -20.396  0.00  0.00    +0.027 C 
ATOM      7  C   UNL     1      35.346 -20.477 -19.986  0.00  0.00    -0.025 C 
ATOM      8  C   UNL     1      34.055 -20.973 -19.728  0.00  0.00    +0.007 C 
ATOM      9  C   UNL     1      36.446 -21.041 -19.322  0.00  0.00    -0.004 C 
ATOM     10  C   UNL     1      33.886 -21.996 -18.784  0.00  0.00    +0.129 C 
ATOM     11  C   UNL     1      36.266 -22.066 -18.394  0.00  0.00    +0.003 C 
ATOM     12  C   UNL     1      34.987 -22.541 -18.123  0.00  0.00    +0.036 C 
BRANCH  10  13
ATOM     13  O   UNL     1      32.645 -22.478 -18.486  0.00  0.00    -0.506 OA
ATOM     14  H   UNL     1      32.263 -23.149 -19.017  0.00  0.00    +0.292 HD
ENDBRANCH  10  13
ENDBRANCH   1   3
BRANCH   1  15
ATOM     15  C   UNL     1      35.255 -16.525 -22.117  0.00  0.00    -0.072 C 
BRANCH  15  16
ATOM     16  C   UNL     1      34.522 -15.819 -20.974  0.00  0.00    +0.010 C 
BRANCH  16  18
ATOM     17  S   UNL     1      33.956 -14.096 -23.054  0.00  0.00    -0.091 S 
ATOM     18  C   UNL     1      33.676 -14.678 -21.483  0.00  0.00    +0.005 C 
ATOM     19  C   UNL     1      32.680 -14.029 -20.825  0.00  0.00    +0.003 C 
ATOM     20  C   UNL     1      32.113 -13.004 -21.636  0.00  0.00    +0.007 C 
ATOM     21  C   UNL     1      32.714 -12.932 -22.874  0.00  0.00    +0.035 C 
ENDBRANCH  16  18
ENDBRANCH  15  16
ENDBRANCH   1  15
BRANCH   1  22
ATOM     22  C   UNL     1      35.316 -18.460 -23.538  0.00  0.00    -0.077 C 
BRANCH  22  23
ATOM     23  C   UNL     1      34.535 -18.505 -24.849  0.00  0.00    -0.023 C 
ATOM     24  C   UNL     1      34.406 -17.119 -25.464  0.00  0.00    -0.002 C 
ENDBRANCH  22  23
ENDBRANCH   1  22
TORSDOF 7
ENDMDL
MODEL 2
REMARK VINA RESULT:      -9.4      1.340      2.113
REMARK  Name = 59227
REMARK  7 active torsions:
REMARK  status: ('A' for Active; 'I' for Inactive)
REMARK    1  A    between atoms: N_1  and  C_3
REMARK    2  A    between atoms: N_1  and  C_15
REMARK    3  A    between atoms: N_1  and  C_22
REMARK    4  A    between atoms: C_10  and  O_13
REMARK    5  A    between atoms: C_15  and  C_16
REMARK    6  A    between atoms: C_16  and  C_18
REMARK    7  A    between atoms: C_22  and  C_23
REMARK                            x       y       z     vdW  Elec       q    Type
REMARK                         _______ _______ _______ _____ _____    ______ ____
ROOT
ATOM      1  N   UNL     1      34.632 -17.800 -22.712  0.00  0.00    +0.389 N 
ATOM      2  H   UNL     1      33.625 -17.781 -22.879  0.00  0.00    -0.080 HD
ENDROOT
BRANCH   1   3
ATOM      3  C   UNL     1      34.953 -19.012 -21.960  0.00  0.00    -0.053 C 
ATOM      4  C   UNL     1      36.150 -18.758 -21.042  0.00  0.00    -0.016 C 
ATOM      5  C   UNL     1      33.744 -19.465 -21.130  0.00  0.00    +0.005 C 
ATOM      6  C   UNL     1      36.563 -20.051 -20.338  0.00  0.00    +0.027 C 
ATOM      7  C   UNL     1      34.078 -20.560 -20.146  0.00  0.00    -0.025 C 
ATOM      8  C   UNL     1      35.402 -20.806 -19.742  0.00  0.00    +0.007 C 
ATOM      9  C   UNL     1      33.034 -21.305 -19.579  0.00  0.00    -0.004 C 
ATOM     10  C   UNL     1      35.660 -21.819 -18.806  0.00  0.00    +0.129 C 
ATOM     11  C   UNL     1      33.301 -22.303 -18.640  0.00  0.00    +0.003 C 
ATOM     12  C   UNL     1      34.614 -22.561 -18.256  0.00  0.00    +0.036 C 
BRANCH  10  13
ATOM     13  O   UNL     1      36.935 -22.107 -18.416  0.00  0.00    -0.506 OA
ATOM     14  H   UNL     1      37.392 -22.828 -18.802  0.00  0.00    +0.292 HD
ENDBRANCH  10  13
ENDBRANCH   1   3
BRANCH   1  15
ATOM     15  C   UNL     1      34.994 -16.610 -21.944  0.00  0.00    -0.072 C 
BRANCH  15  16
ATOM     16  C   UNL     1      33.747 -15.872 -21.452  0.00  0.00    +0.010 C 
BRANCH  16  18
ATOM     17  S   UNL     1      32.297 -13.537 -21.701  0.00  0.00    -0.091 S 
ATOM     18  C   UNL     1      33.537 -14.582 -22.206  0.00  0.00    +0.005 C 
ATOM     19  C   UNL     1      34.238 -14.127 -23.278  0.00  0.00    +0.003 C 
ATOM     20  C   UNL     1      33.743 -12.865 -23.716  0.00  0.00    +0.007 C 
ATOM     21  C   UNL     1      32.688 -12.427 -22.945  0.00  0.00    +0.035 C 
ENDBRANCH  16  18
ENDBRANCH  15  16
ENDBRANCH   1  15
BRANCH   1  22
ATOM     22  C   UNL     1      35.315 -17.803 -24.004  0.00  0.00    -0.077 C 
BRANCH  22  23
ATOM     23  C   UNL     1      34.306 -17.964 -25.138  0.00  0.00    -0.023 C 
ATOM     24  C   UNL     1      33.828 -16.613 -25.650  0.00  0.00    -0.002 C 
ENDBRANCH  22  23
ENDBRANCH   1  22
TORSDOF 7
ENDMDL
MODEL 3
REMARK VINA RESULT:      -9.2      3.524      5.651
REMARK  Name = 59227
REMARK  7 active torsions:
REMARK  status: ('A' for Active; 'I' for Inactive)
REMARK    1  A    between atoms: N_1  and  C_3
REMARK    2  A    between atoms: N_1  and  C_15
REMARK    3  A    between atoms: N_1  and  C_22
REMARK    4  A    between atoms: C_10  and  O_13
REMARK    5  A    between atoms: C_15  and  C_16
REMARK    6  A    between atoms: C_16  and  C_18
REMARK    7  A    between atoms: C_22  and  C_23
REMARK                            x       y       z     vdW  Elec       q    Type
REMARK                         _______ _______ _______ _____ _____    ______ ____
ROOT
ATOM      1  N   UNL     1      33.169 -12.790 -23.825  0.00  0.00    +0.389 N 
ATOM      2  H   UNL     1      32.732 -13.040 -24.713  0.00  0.00    -0.080 HD
ENDROOT
BRANCH   1   3
ATOM      3  C   UNL     1      33.984 -13.918 -23.376  0.00  0.00    -0.053 C 
ATOM      4  C   UNL     1      33.621 -14.285 -21.936  0.00  0.00    -0.016 C 
ATOM      5  C   UNL     1      33.774 -15.129 -24.295  0.00  0.00    +0.005 C 
ATOM      6  C   UNL     1      34.546 -15.389 -21.421  0.00  0.00    +0.027 C 
ATOM      7  C   UNL     1      34.390 -16.396 -23.752  0.00  0.00    -0.025 C 
ATOM      8  C   UNL     1      34.714 -16.532 -22.390  0.00  0.00    +0.007 C 
ATOM      9  C   UNL     1      34.585 -17.483 -24.618  0.00  0.00    -0.004 C 
ATOM     10  C   UNL     1      35.262 -17.738 -21.929  0.00  0.00    +0.129 C 
ATOM     11  C   UNL     1      35.119 -18.681 -24.146  0.00  0.00    +0.003 C 
ATOM     12  C   UNL     1      35.460 -18.808 -22.802  0.00  0.00    +0.036 C 
BRANCH  10  13
ATOM     13  O   UNL     1      35.617 -17.893 -20.621  0.00  0.00    -0.506 OA
ATOM     14  H   UNL     1      34.978 -17.780 -19.945  0.00  0.00    +0.292 HD
ENDBRANCH  10  13
ENDBRANCH   1   3
BRANCH   1  15
ATOM     15  C   UNL     1      32.113 -12.502 -22.856  0.00  0.00    -0.072 C 
BRANCH  15  16
ATOM     16  C   UNL     1      31.919 -10.993 -22.687  0.00  0.00    +0.010 C 
BRANCH  16  18
ATOM     17  S   UNL     1      32.105  -9.015 -20.772  0.00  0.00    -0.091 S 
ATOM     18  C   UNL     1      31.775 -10.616 -21.233  0.00  0.00    +0.005 C 
ATOM     19  C   UNL     1      31.401 -11.420 -20.203  0.00  0.00    +0.003 C 
ATOM     20  C   UNL     1      31.382 -10.701 -18.973  0.00  0.00    +0.007 C 
ATOM     21  C   UNL     1      31.743  -9.382 -19.139  0.00  0.00    +0.035 C 
ENDBRANCH  16  18
ENDBRANCH  15  16
ENDBRANCH   1  15
BRANCH   1  22
ATOM     22  C   UNL     1      34.003 -11.608 -24.038  0.00  0.00    -0.077 C 
BRANCH  22  23
ATOM     23  C   UNL     1      34.302 -11.429 -25.524  0.00  0.00    -0.023 C 
ATOM     24  C   UNL     1      35.379 -10.380 -25.751  0.00  0.00    -0.002 C 
ENDBRANCH  22  23
ENDBRANCH   1  22
TORSDOF 7
ENDMDL
MODEL 4
REMARK VINA RESULT:      -8.8      3.461      6.045
REMARK  Name = 59227
REMARK  7 active torsions:
REMARK  status: ('A' for Active; 'I' for Inactive)
REMARK    1  A    between atoms: N_1  and  C_3
REMARK    2  A    between atoms: N_1  and  C_15
REMARK    3  A    between atoms: N_1  and  C_22
REMARK    4  A    between atoms: C_10  and  O_13
REMARK    5  A    between atoms: C_15  and  C_16
REMARK    6  A    between atoms: C_16  and  C_18
REMARK    7  A    between atoms: C_22  and  C_23
REMARK                            x       y       z     vdW  Elec       q    Type
REMARK                         _______ _______ _______ _____ _____    ______ ____
ROOT
ATOM      1  N   UNL     1      33.125 -12.596 -22.412  0.00  0.00    +0.389 N 
ATOM      2  H   UNL     1      33.575 -11.838 -21.896  0.00  0.00    -0.080 HD
ENDROOT
BRANCH   1   3
ATOM      3  C   UNL     1      33.966 -13.788 -22.311  0.00  0.00    -0.053 C 
ATOM      4  C   UNL     1      33.699 -14.507 -20.987  0.00  0.00    -0.016 C 
ATOM      5  C   UNL     1      33.694 -14.736 -23.487  0.00  0.00    +0.005 C 
ATOM      6  C   UNL     1      34.655 -15.690 -20.825  0.00  0.00    +0.027 C 
ATOM      7  C   UNL     1      34.342 -16.089 -23.317  0.00  0.00    -0.025 C 
ATOM      8  C   UNL     1      34.755 -16.554 -22.056  0.00  0.00    +0.007 C 
ATOM      9  C   UNL     1      34.476 -16.923 -24.437  0.00  0.00    -0.004 C 
ATOM     10  C   UNL     1      35.330 -17.829 -21.946  0.00  0.00    +0.129 C 
ATOM     11  C   UNL     1      35.039 -18.194 -24.314  0.00  0.00    +0.003 C 
ATOM     12  C   UNL     1      35.468 -18.645 -23.069  0.00  0.00    +0.036 C 
BRANCH  10  13
ATOM     13  O   UNL     1      35.771 -18.299 -20.744  0.00  0.00    -0.506 OA
ATOM     14  H   UNL     1      35.390 -19.072 -20.374  0.00  0.00    +0.292 HD
ENDBRANCH  10  13
ENDBRANCH   1   3
BRANCH   1  15
ATOM     15  C   UNL     1      32.985 -12.185 -23.807  0.00  0.00    -0.072 C 
BRANCH  15  16
ATOM     16  C   UNL     1      34.201 -11.377 -24.267  0.00  0.00    +0.010 C 
BRANCH  16  18
ATOM     17  S   UNL     1      32.460  -9.336 -23.616  0.00  0.00    -0.091 S 
ATOM     18  C   UNL     1      34.013  -9.903 -24.004  0.00  0.00    +0.005 C 
ATOM     19  C   UNL     1      34.962  -8.930 -24.037  0.00  0.00    +0.003 C 
ATOM     20  C   UNL     1      34.400  -7.656 -23.733  0.00  0.00    +0.007 C 
ATOM     21  C   UNL     1      33.048  -7.733 -23.484  0.00  0.00    +0.035 C 
ENDBRANCH  16  18
ENDBRANCH  15  16
ENDBRANCH   1  15
BRANCH   1  22
ATOM     22  C   UNL     1      31.812 -12.844 -21.817  0.00  0.00    -0.077 C 
BRANCH  22  23
ATOM     23  C   UNL     1      31.267 -11.566 -21.186  0.00  0.00    -0.023 C 
ATOM     24  C   UNL     1      31.623 -11.482 -19.709  0.00  0.00    -0.002 C 
ENDBRANCH  22  23
ENDBRANCH   1  22
TORSDOF 7
ENDMDL
MODEL 5
REMARK VINA RESULT:      -8.8      3.554      7.810
REMARK  Name = 59227
REMARK  7 active torsions:
REMARK  status: ('A' for Active; 'I' for Inactive)
REMARK    1  A    between atoms: N_1  and  C_3
REMARK    2  A    between atoms: N_1  and  C_15
REMARK    3  A    between atoms: N_1  and  C_22
REMARK    4  A    between atoms: C_10  and  O_13
REMARK    5  A    between atoms: C_15  and  C_16
REMARK    6  A    between atoms: C_16  and  C_18
REMARK    7  A    between atoms: C_22  and  C_23
REMARK                            x       y       z     vdW  Elec       q    Type
REMARK                         _______ _______ _______ _____ _____    ______ ____
ROOT
ATOM      1  N   UNL     1      34.642 -15.699 -22.957  0.00  0.00    +0.389 N 
ATOM      2  H   UNL     1      35.642 -15.738 -23.154  0.00  0.00    -0.080 HD
ENDROOT
BRANCH   1   3
ATOM      3  C   UNL     1      34.264 -14.302 -22.751  0.00  0.00    -0.053 C 
ATOM      4  C   UNL     1      33.844 -13.671 -24.079  0.00  0.00    -0.016 C 
ATOM      5  C   UNL     1      33.116 -14.201 -21.736  0.00  0.00    +0.005 C 
ATOM      6  C   UNL     1      33.556 -12.181 -23.892  0.00  0.00    +0.027 C 
ATOM      7  C   UNL     1      32.513 -12.819 -21.661  0.00  0.00    -0.025 C 
ATOM      8  C   UNL     1      32.687 -11.883 -22.696  0.00  0.00    +0.007 C 
ATOM      9  C   UNL     1      31.712 -12.486 -20.558  0.00  0.00    -0.004 C 
ATOM     10  C   UNL     1      32.086 -10.620 -22.591  0.00  0.00    +0.129 C 
ATOM     11  C   UNL     1      31.111 -11.231 -20.470  0.00  0.00    +0.003 C 
ATOM     12  C   UNL     1      31.300 -10.297 -21.484  0.00  0.00    +0.036 C 
BRANCH  10  13
ATOM     13  O   UNL     1      32.260  -9.677 -23.561  0.00  0.00    -0.506 OA
ATOM     14  H   UNL     1      31.722  -9.690 -24.329  0.00  0.00    +0.292 HD
ENDBRANCH  10  13
ENDBRANCH   1   3
BRANCH   1  15
ATOM     15  C   UNL     1      34.377 -16.484 -21.752  0.00  0.00    -0.072 C 
BRANCH  15  16
ATOM     16  C   UNL     1      35.381 -17.630 -21.612  0.00  0.00    +0.010 C 
BRANCH  16  18
ATOM     17  S   UNL     1      35.723 -20.114 -20.458  0.00  0.00    -0.091 S 
ATOM     18  C   UNL     1      34.730 -18.868 -21.045  0.00  0.00    +0.005 C 
ATOM     19  C   UNL     1      33.400 -19.126 -20.937  0.00  0.00    +0.003 C 
ATOM     20  C   UNL     1      33.172 -20.404 -20.348  0.00  0.00    +0.007 C 
ATOM     21  C   UNL     1      34.350 -21.048 -20.039  0.00  0.00    +0.035 C 
ENDBRANCH  16  18
ENDBRANCH  15  16
ENDBRANCH   1  15
BRANCH   1  22
ATOM     22  C   UNL     1      33.923 -16.260 -24.101  0.00  0.00    -0.077 C 
BRANCH  22  23
ATOM     23  C   UNL     1      34.855 -17.135 -24.934  0.00  0.00    -0.023 C 
ATOM     24  C   UNL     1      34.400 -18.587 -24.934  0.00  0.00    -0.002 C 
ENDBRANCH  22  23
ENDBRANCH   1  22
TORSDOF 7
ENDMDL
MODEL 6
REMARK VINA RESULT:      -8.7      4.222      7.059
REMARK  Name = 59227
REMARK  7 active torsions:
REMARK  status: ('A' for Active; 'I' for Inactive)
REMARK    1  A    between atoms: N_1  and  C_3
REMARK    2  A    between atoms: N_1  and  C_15
REMARK    3  A    between atoms: N_1  and  C_22
REMARK    4  A    between atoms: C_10  and  O_13
REMARK    5  A    between atoms: C_15  and  C_16
REMARK    6  A    between atoms: C_16  and  C_18
REMARK    7  A    between atoms: C_22  and  C_23
REMARK                            x       y       z     vdW  Elec       q    Type
REMARK                         _______ _______ _______ _____ _____    ______ ____
ROOT
ATOM      1  N   UNL     1      32.692 -11.992 -22.259  0.00  0.00    +0.389 N 
ATOM      2  H   UNL     1      33.449 -11.820 -21.597  0.00  0.00    -0.080 HD
ENDROOT
BRANCH   1   3
ATOM      3  C   UNL     1      32.867 -13.329 -22.826  0.00  0.00    -0.053 C 
ATOM      4  C   UNL     1      33.384 -13.225 -24.262  0.00  0.00    -0.016 C 
ATOM      5  C   UNL     1      33.846 -14.148 -21.974  0.00  0.00    +0.005 C 
ATOM      6  C   UNL     1      33.462 -14.613 -24.899  0.00  0.00    +0.027 C 
ATOM      7  C   UNL     1      34.262 -15.442 -22.631  0.00  0.00    -0.025 C 
ATOM      8  C   UNL     1      34.119 -15.643 -24.016  0.00  0.00    +0.007 C 
ATOM      9  C   UNL     1      34.860 -16.440 -21.848  0.00  0.00    -0.004 C 
ATOM     10  C   UNL     1      34.543 -16.853 -24.584  0.00  0.00    +0.129 C 
ATOM     11  C   UNL     1      35.288 -17.636 -22.426  0.00  0.00    +0.003 C 
ATOM     12  C   UNL     1      35.128 -17.843 -23.793  0.00  0.00    +0.036 C 
BRANCH  10  13
ATOM     13  O   UNL     1      34.391 -17.094 -25.918  0.00  0.00    -0.506 OA
ATOM     14  H   UNL     1      33.963 -16.463 -26.462  0.00  0.00    +0.292 HD
ENDBRANCH  10  13
ENDBRANCH   1   3
BRANCH   1  15
ATOM     15  C   UNL     1      32.756 -10.977 -23.309  0.00  0.00    -0.072 C 
BRANCH  15  16
ATOM     16  C   UNL     1      32.140  -9.659 -22.837  0.00  0.00    +0.010 C 
BRANCH  16  18
ATOM     17  S   UNL     1      31.905  -7.146 -23.953  0.00  0.00    -0.091 S 
ATOM     18  C   UNL     1      32.840  -8.472 -23.452  0.00  0.00    +0.005 C 
ATOM     19  C   UNL     1      34.173  -8.318 -23.666  0.00  0.00    +0.003 C 
ATOM     20  C   UNL     1      34.453  -7.058 -24.269  0.00  0.00    +0.007 C 
ATOM     21  C   UNL     1      33.309  -6.320 -24.481  0.00  0.00    +0.035 C 
ENDBRANCH  16  18
ENDBRANCH  15  16
ENDBRANCH   1  15
BRANCH   1  22
ATOM     22  C   UNL     1      31.421 -11.904 -21.540  0.00  0.00    -0.077 C 
BRANCH  22  23
ATOM     23  C   UNL     1      31.663 -11.914 -20.033  0.00  0.00    -0.023 C 
ATOM     24  C   UNL     1      31.171 -10.629 -19.384  0.00  0.00    -0.002 C 
ENDBRANCH  22  23
ENDBRANCH   1  22
TORSDOF 7
ENDMDL
MODEL 7
REMARK VINA RESULT:      -8.7      4.531      9.244
REMARK  Name = 59227
REMARK  7 active torsions:
REMARK  status: ('A' for Active; 'I' for Inactive)
REMARK    1  A    between atoms: N_1  and  C_3
REMARK    2  A    between atoms: N_1  and  C_15
REMARK    3  A    between atoms: N_1  and  C_22
REMARK    4  A    between atoms: C_10  and  O_13
REMARK    5  A    between atoms: C_15  and  C_16
REMARK    6  A    between atoms: C_16  and  C_18
REMARK    7  A    between atoms: C_22  and  C_23
REMARK                            x       y       z     vdW  Elec       q    Type
REMARK                         _______ _______ _______ _____ _____    ______ ____
ROOT
ATOM      1  N   UNL     1      33.371 -13.670 -24.208  0.00  0.00    +0.389 N 
ATOM      2  H   UNL     1      34.346 -13.705 -24.510  0.00  0.00    -0.080 HD
ENDROOT
BRANCH   1   3
ATOM      3  C   UNL     1      32.999 -12.270 -24.007  0.00  0.00    -0.053 C 
ATOM      4  C   UNL     1      32.427 -12.076 -22.602  0.00  0.00    -0.016 C 
ATOM      5  C   UNL     1      34.216 -11.358 -24.209  0.00  0.00    +0.005 C 
ATOM      6  C   UNL     1      31.931 -10.641 -22.424  0.00  0.00    +0.027 C 
ATOM      7  C   UNL     1      33.965  -9.932 -23.779  0.00  0.00    -0.025 C 
ATOM      8  C   UNL     1      32.913  -9.602 -22.905  0.00  0.00    +0.007 C 
ATOM      9  C   UNL     1      34.839  -8.926 -24.216  0.00  0.00    -0.004 C 
ATOM     10  C   UNL     1      32.735  -8.267 -22.515  0.00  0.00    +0.129 C 
ATOM     11  C   UNL     1      34.658  -7.603 -23.812  0.00  0.00    +0.003 C 
ATOM     12  C   UNL     1      33.605  -7.273 -22.964  0.00  0.00    +0.036 C 
BRANCH  10  13
ATOM     13  O   UNL     1      31.707  -7.906 -21.694  0.00  0.00    -0.506 OA
ATOM     14  H   UNL     1      31.795  -7.997 -20.765  0.00  0.00    +0.292 HD
ENDBRANCH  10  13
ENDBRANCH   1   3
BRANCH   1  15
ATOM     15  C   UNL     1      33.248 -14.417 -22.957  0.00  0.00    -0.072 C 
BRANCH  15  16
ATOM     16  C   UNL     1      34.605 -14.966 -22.510  0.00  0.00    +0.010 C 
BRANCH  16  18
ATOM     17  S   UNL     1      34.829 -17.553 -21.575  0.00  0.00    -0.091 S 
ATOM     18  C   UNL     1      34.745 -16.430 -22.847  0.00  0.00    +0.005 C 
ATOM     19  C   UNL     1      34.816 -16.991 -24.082  0.00  0.00    +0.003 C 
ATOM     20  C   UNL     1      34.945 -18.407 -23.996  0.00  0.00    +0.007 C 
ATOM     21  C   UNL     1      34.965 -18.846 -22.690  0.00  0.00    +0.035 C 
ENDBRANCH  16  18
ENDBRANCH  15  16
ENDBRANCH   1  15
BRANCH   1  22
ATOM     22  C   UNL     1      32.543 -14.276 -25.249  0.00  0.00    -0.077 C 
BRANCH  22  23
ATOM     23  C   UNL     1      33.367 -14.515 -26.511  0.00  0.00    -0.023 C 
ATOM     24  C   UNL     1      33.416 -13.271 -27.385  0.00  0.00    -0.002 C 
ENDBRANCH  22  23
ENDBRANCH   1  22
TORSDOF 7
ENDMDL
MODEL 8
REMARK VINA RESULT:      -8.6      4.824      8.150
REMARK  Name = 59227
REMARK  7 active torsions:
REMARK  status: ('A' for Active; 'I' for Inactive)
REMARK    1  A    between atoms: N_1  and  C_3
REMARK    2  A    between atoms: N_1  and  C_15
REMARK    3  A    between atoms: N_1  and  C_22
REMARK    4  A    between atoms: C_10  and  O_13
REMARK    5  A    between atoms: C_15  and  C_16
REMARK    6  A    between atoms: C_16  and  C_18
REMARK    7  A    between atoms: C_22  and  C_23
REMARK                            x       y       z     vdW  Elec       q    Type
REMARK                         _______ _______ _______ _____ _____    ______ ____
ROOT
ATOM      1  N   UNL     1      33.059 -22.933 -16.344  0.00  0.00    +0.389 N 
ATOM      2  H   UNL     1      32.793 -21.948 -16.339  0.00  0.00    -0.080 HD
ENDROOT
BRANCH   1   3
ATOM      3  C   UNL     1      33.969 -23.173 -15.225  0.00  0.00    -0.053 C 
ATOM      4  C   UNL     1      33.338 -24.158 -14.239  0.00  0.00    -0.016 C 
ATOM      5  C   UNL     1      35.308 -23.725 -15.733  0.00  0.00    +0.005 C 
ATOM      6  C   UNL     1      34.234 -24.327 -13.011  0.00  0.00    +0.027 C 
ATOM      7  C   UNL     1      36.200 -24.226 -14.622  0.00  0.00    -0.025 C 
ATOM      8  C   UNL     1      35.685 -24.548 -13.354  0.00  0.00    +0.007 C 
ATOM      9  C   UNL     1      37.563 -24.429 -14.885  0.00  0.00    -0.004 C 
ATOM     10  C   UNL     1      36.551 -25.033 -12.362  0.00  0.00    +0.129 C 
ATOM     11  C   UNL     1      38.412 -24.922 -13.894  0.00  0.00    +0.003 C 
ATOM     12  C   UNL     1      37.907 -25.222 -12.633  0.00  0.00    +0.036 C 
BRANCH  10  13
ATOM     13  O   UNL     1      36.092 -25.326 -11.111  0.00  0.00    -0.506 OA
ATOM     14  H   UNL     1      35.242 -25.705 -11.001  0.00  0.00    +0.292 HD
ENDBRANCH  10  13
ENDBRANCH   1   3
BRANCH   1  15
ATOM     15  C   UNL     1      33.720 -23.227 -17.614  0.00  0.00    -0.072 C 
BRANCH  15  16
ATOM     16  C   UNL     1      33.233 -22.285 -18.718  0.00  0.00    +0.010 C 
BRANCH  16  18
ATOM     17  S   UNL     1      34.036 -20.309 -20.470  0.00  0.00    -0.091 S 
ATOM     18  C   UNL     1      34.382 -21.543 -19.356  0.00  0.00    +0.005 C 
ATOM     19  C   UNL     1      35.711 -21.741 -19.148  0.00  0.00    +0.003 C 
ATOM     20  C   UNL     1      36.491 -20.844 -19.935  0.00  0.00    +0.007 C 
ATOM     21  C   UNL     1      35.706 -20.010 -20.700  0.00  0.00    +0.035 C 
ENDBRANCH  16  18
ENDBRANCH  15  16
ENDBRANCH   1  15
BRANCH   1  22
ATOM     22  C   UNL     1      31.847 -23.739 -16.201  0.00  0.00    -0.077 C 
BRANCH  22  23
ATOM     23  C   UNL     1      30.608 -22.851 -16.272  0.00  0.00    -0.023 C 
ATOM     24  C   UNL     1      29.862 -22.832 -14.946  0.00  0.00    -0.002 C 
ENDBRANCH  22  23
ENDBRANCH   1  22
TORSDOF 7
ENDMDL
MODEL 9
REMARK VINA RESULT:      -8.5      4.920      9.813
REMARK  Name = 59227
REMARK  7 active torsions:
REMARK  status: ('A' for Active; 'I' for Inactive)
REMARK    1  A    between atoms: N_1  and  C_3
REMARK    2  A    between atoms: N_1  and  C_15
REMARK    3  A    between atoms: N_1  and  C_22
REMARK    4  A    between atoms: C_10  and  O_13
REMARK    5  A    between atoms: C_15  and  C_16
REMARK    6  A    between atoms: C_16  and  C_18
REMARK    7  A    between atoms: C_22  and  C_23
REMARK                            x       y       z     vdW  Elec       q    Type
REMARK                         _______ _______ _______ _____ _____    ______ ____
ROOT
ATOM      1  N   UNL     1      33.020 -13.243 -23.420  0.00  0.00    +0.389 N 
ATOM      2  H   UNL     1      32.444 -13.288 -24.261  0.00  0.00    -0.080 HD
ENDROOT
BRANCH   1   3
ATOM      3  C   UNL     1      33.438 -11.857 -23.216  0.00  0.00    -0.053 C 
ATOM      4  C   UNL     1      33.971 -11.273 -24.525  0.00  0.00    -0.016 C 
ATOM      5  C   UNL     1      32.261 -11.013 -22.706  0.00  0.00    +0.005 C 
ATOM      6  C   UNL     1      34.514  -9.862 -24.294  0.00  0.00    +0.027 C 
ATOM      7  C   UNL     1      32.552  -9.531 -22.709  0.00  0.00    -0.025 C 
ATOM      8  C   UNL     1      33.587  -8.986 -23.490  0.00  0.00    +0.007 C 
ATOM      9  C   UNL     1      31.729  -8.676 -21.961  0.00  0.00    -0.004 C 
ATOM     10  C   UNL     1      33.802  -7.600 -23.478  0.00  0.00    +0.129 C 
ATOM     11  C   UNL     1      31.946  -7.298 -21.966  0.00  0.00    +0.003 C 
ATOM     12  C   UNL     1      32.983  -6.761 -22.722  0.00  0.00    +0.036 C 
BRANCH  10  13
ATOM     13  O   UNL     1      34.816  -7.041 -24.199  0.00  0.00    -0.506 OA
ATOM     14  H   UNL     1      35.458  -7.588 -24.607  0.00  0.00    +0.292 HD
ENDBRANCH  10  13
ENDBRANCH   1   3
BRANCH   1  15
ATOM     15  C   UNL     1      34.184 -14.107 -23.611  0.00  0.00    -0.072 C 
BRANCH  15  16
ATOM     16  C   UNL     1      33.849 -15.284 -24.529  0.00  0.00    +0.010 C 
BRANCH  16  18
ATOM     17  S   UNL     1      34.335 -17.962 -24.989  0.00  0.00    -0.091 S 
ATOM     18  C   UNL     1      34.482 -16.563 -24.038  0.00  0.00    +0.005 C 
ATOM     19  C   UNL     1      35.182 -16.750 -22.888  0.00  0.00    +0.003 C 
ATOM     20  C   UNL     1      35.623 -18.100 -22.771  0.00  0.00    +0.007 C 
ATOM     21  C   UNL     1      35.231 -18.867 -23.845  0.00  0.00    +0.035 C 
ENDBRANCH  16  18
ENDBRANCH  15  16
ENDBRANCH   1  15
BRANCH   1  22
ATOM     22  C   UNL     1      32.219 -13.708 -22.287  0.00  0.00    -0.077 C 
BRANCH  22  23
ATOM     23  C   UNL     1      33.127 -14.176 -21.153  0.00  0.00    -0.023 C 
ATOM     24  C   UNL     1      32.600 -15.451 -20.511  0.00  0.00    -0.002 C 
ENDBRANCH  22  23
ENDBRANCH   1  22
TORSDOF 7
ENDMDL
