MODEL 1
REMARK VINA RESULT:     -10.2      0.000      0.000
REMARK  Name = 16058630
REMARK  8 active torsions:
REMARK  status: ('A' for Active; 'I' for Inactive)
REMARK    1  A    between atoms: N_2  and  C_18
REMARK    2  A    between atoms: C_3  and  C_6
REMARK    3  A    between atoms: C_7  and  O_12
REMARK    4  A    between atoms: O_12  and  C_13
REMARK    5  A    between atoms: C_13  and  C_15
REMARK    6  A    between atoms: C_15  and  O_16
REMARK    7  A    between atoms: C_18  and  C_19
REMARK    8  A    between atoms: C_22  and  N_27
REMARK                            x       y       z     vdW  Elec       q    Type
REMARK                         _______ _______ _______ _____ _____    ______ ____
ROOT
ATOM      1  O   UNL     1      35.246 -16.404 -20.253  0.00  0.00    -0.270 OA
ATOM      2  N   UNL     1      34.464 -17.243 -22.268  0.00  0.00    -0.297 N 
ATOM      3  C   UNL     1      34.533 -16.273 -21.263  0.00  0.00    +0.249 C 
ATOM      4  H   UNL     1      33.879 -17.073 -23.041  0.00  0.00    +0.150 HD
ENDROOT
BRANCH   3   6
ATOM      5 CL   UNL     1      31.118 -11.421 -21.890  0.00  0.00    -0.082 Cl
ATOM      6  C   UNL     1      33.705 -15.088 -21.433  0.00  0.00    +0.087 C 
ATOM      7  C   UNL     1      33.654 -14.418 -22.655  0.00  0.00    +0.145 C 
ATOM      8  C   UNL     1      32.955 -14.623 -20.351  0.00  0.00    +0.008 C 
ATOM      9  C   UNL     1      32.854 -13.284 -22.797  0.00  0.00    +0.048 C 
ATOM     10  C   UNL     1      32.156 -13.490 -20.493  0.00  0.00    +0.012 C 
ATOM     11  C   UNL     1      32.105 -12.820 -21.716  0.00  0.00    +0.061 C 
BRANCH   7  12
ATOM     12  O   UNL     1      34.379 -14.856 -23.723  0.00  0.00    -0.464 OA
BRANCH  12  13
ATOM     13  C   UNL     1      33.777 -14.734 -25.009  0.00  0.00    +0.314 C 
BRANCH  13  15
ATOM     14  O   UNL     1      34.523 -17.002 -25.465  0.00  0.00    -0.246 OA
ATOM     15  C   UNL     1      33.762 -16.073 -25.694  0.00  0.00    +0.359 C 
BRANCH  15  16
ATOM     16  O   UNL     1      32.771 -16.116 -26.619  0.00  0.00    -0.478 OA
ATOM     17  H   UNL     1      32.263 -16.896 -26.726  0.00  0.00    +0.295 HD
ENDBRANCH  15  16
ENDBRANCH  13  15
ENDBRANCH  12  13
ENDBRANCH   7  12
ENDBRANCH   3   6
BRANCH   2  18
ATOM     18  C   UNL     1      35.207 -18.483 -22.232  0.00  0.00    +0.117 C 
BRANCH  18  19
ATOM     19  C   UNL     1      34.601 -19.472 -21.271  0.00  0.00    -0.001 C 
ATOM     20  C   UNL     1      35.429 -20.219 -20.446  0.00  0.00    +0.021 C 
ATOM     21  C   UNL     1      33.223 -19.624 -21.227  0.00  0.00    -0.003 C 
ATOM     22  C   UNL     1      34.868 -21.136 -19.557  0.00  0.00    +0.143 C 
ATOM     23  C   UNL     1      32.661 -20.540 -20.338  0.00  0.00    +0.001 C 
ATOM     24  C   UNL     1      33.484 -21.296 -19.503  0.00  0.00    +0.024 C 
BRANCH  22  27
ATOM     25  O   UNL     1      36.941 -21.686 -18.711  0.00  0.00    -0.126 OA
ATOM     26  O   UNL     1      35.187 -22.777 -17.969  0.00  0.00    -0.126 OA
ATOM     27  N   UNL     1      35.705 -21.904 -18.706  0.00  0.00    +0.058 N 
ENDBRANCH  22  27
ENDBRANCH  18  19
ENDBRANCH   2  18
TORSDOF 8
ENDMDL
MODEL 2
REMARK VINA RESULT:     -10.1      5.558      8.397
REMARK  Name = 16058630
REMARK  8 active torsions:
REMARK  status: ('A' for Active; 'I' for Inactive)
REMARK    1  A    between atoms: N_2  and  C_18
REMARK    2  A    between atoms: C_3  and  C_6
REMARK    3  A    between atoms: C_7  and  O_12
REMARK    4  A    between atoms: O_12  and  C_13
REMARK    5  A    between atoms: C_13  and  C_15
REMARK    6  A    between atoms: C_15  and  O_16
REMARK    7  A    between atoms: C_18  and  C_19
REMARK    8  A    between atoms: C_22  and  N_27
REMARK                            x       y       z     vdW  Elec       q    Type
REMARK                         _______ _______ _______ _____ _____    ______ ____
ROOT
ATOM      1  O   UNL     1      33.792 -23.941 -19.330  0.00  0.00    -0.270 OA
ATOM      2  N   UNL     1      33.745 -22.709 -17.366  0.00  0.00    -0.297 N 
ATOM      3  C   UNL     1      33.979 -22.865 -18.736  0.00  0.00    +0.249 C 
ATOM      4  H   UNL     1      33.913 -21.828 -16.961  0.00  0.00    +0.150 HD
ENDROOT
BRANCH   3   6
ATOM      5 CL   UNL     1      35.980 -18.094 -21.709  0.00  0.00    -0.082 Cl
ATOM      6  C   UNL     1      34.483 -21.703 -19.455  0.00  0.00    +0.087 C 
ATOM      7  C   UNL     1      35.817 -21.314 -19.341  0.00  0.00    +0.145 C 
ATOM      8  C   UNL     1      33.611 -20.977 -20.266  0.00  0.00    +0.008 C 
ATOM      9  C   UNL     1      36.281 -20.198 -20.037  0.00  0.00    +0.048 C 
ATOM     10  C   UNL     1      34.074 -19.861 -20.963  0.00  0.00    +0.012 C 
ATOM     11  C   UNL     1      35.409 -19.471 -20.849  0.00  0.00    +0.061 C 
BRANCH   7  12
ATOM     12  O   UNL     1      36.684 -22.011 -18.552  0.00  0.00    -0.464 OA
BRANCH  12  13
ATOM     13  C   UNL     1      37.120 -21.377 -17.352  0.00  0.00    +0.314 C 
BRANCH  13  15
ATOM     14  O   UNL     1      36.159 -22.551 -15.454  0.00  0.00    -0.246 OA
ATOM     15  C   UNL     1      37.095 -22.363 -16.217  0.00  0.00    +0.359 C 
BRANCH  15  16
ATOM     16  O   UNL     1      38.274 -23.031 -16.150  0.00  0.00    -0.478 OA
ATOM     17  H   UNL     1      38.765 -23.195 -16.931  0.00  0.00    +0.295 HD
ENDBRANCH  15  16
ENDBRANCH  13  15
ENDBRANCH  12  13
ENDBRANCH   7  12
ENDBRANCH   3   6
BRANCH   2  18
ATOM     18  C   UNL     1      33.268 -23.774 -16.512  0.00  0.00    +0.117 C 
BRANCH  18  19
ATOM     19  C   UNL     1      31.943 -23.434 -15.881  0.00  0.00    -0.001 C 
ATOM     20  C   UNL     1      30.838 -23.209 -16.689  0.00  0.00    +0.021 C 
ATOM     21  C   UNL     1      31.847 -23.350 -14.499  0.00  0.00    -0.003 C 
ATOM     22  C   UNL     1      29.611 -22.892 -16.103  0.00  0.00    +0.143 C 
ATOM     23  C   UNL     1      30.621 -23.035 -13.913  0.00  0.00    +0.001 C 
ATOM     24  C   UNL     1      29.503 -22.806 -14.715  0.00  0.00    +0.024 C 
BRANCH  22  27
ATOM     25  O   UNL     1      28.168 -23.511 -17.791  0.00  0.00    -0.126 OA
ATOM     26  O   UNL     1      27.802 -21.616 -16.746  0.00  0.00    -0.126 OA
ATOM     27  N   UNL     1      28.473 -22.662 -16.920  0.00  0.00    +0.058 N 
ENDBRANCH  22  27
ENDBRANCH  18  19
ENDBRANCH   2  18
TORSDOF 8
ENDMDL
MODEL 3
REMARK VINA RESULT:      -9.8      6.133      8.924
REMARK  Name = 16058630
REMARK  8 active torsions:
REMARK  status: ('A' for Active; 'I' for Inactive)
REMARK    1  A    between atoms: N_2  and  C_18
REMARK    2  A    between atoms: C_3  and  C_6
REMARK    3  A    between atoms: C_7  and  O_12
REMARK    4  A    between atoms: O_12  and  C_13
REMARK    5  A    between atoms: C_13  and  C_15
REMARK    6  A    between atoms: C_15  and  O_16
REMARK    7  A    between atoms: C_18  and  C_19
REMARK    8  A    between atoms: C_22  and  N_27
REMARK                            x       y       z     vdW  Elec       q    Type
REMARK                         _______ _______ _______ _____ _____    ______ ____
ROOT
ATOM      1  O   UNL     1      33.364 -24.153 -18.251  0.00  0.00    -0.270 OA
ATOM      2  N   UNL     1      33.880 -22.823 -16.423  0.00  0.00    -0.297 N 
ATOM      3  C   UNL     1      33.838 -23.098 -17.793  0.00  0.00    +0.249 C 
ATOM      4  H   UNL     1      34.269 -21.967 -16.131  0.00  0.00    +0.150 HD
ENDROOT
BRANCH   3   6
ATOM      5 CL   UNL     1      36.084 -18.975 -21.474  0.00  0.00    -0.082 Cl
ATOM      6  C   UNL     1      34.402 -22.095 -18.685  0.00  0.00    +0.087 C 
ATOM      7  C   UNL     1      35.764 -21.797 -18.657  0.00  0.00    +0.145 C 
ATOM      8  C   UNL     1      33.560 -21.428 -19.576  0.00  0.00    +0.008 C 
ATOM      9  C   UNL     1      36.285 -20.832 -19.519  0.00  0.00    +0.048 C 
ATOM     10  C   UNL     1      34.080 -20.464 -20.437  0.00  0.00    +0.012 C 
ATOM     11  C   UNL     1      35.443 -20.165 -20.410  0.00  0.00    +0.061 C 
BRANCH   7  12
ATOM     12  O   UNL     1      36.602 -22.437 -17.794  0.00  0.00    -0.464 OA
BRANCH  12  13
ATOM     13  C   UNL     1      37.254 -21.636 -16.810  0.00  0.00    +0.314 C 
BRANCH  13  15
ATOM     14  O   UNL     1      37.372 -22.386 -14.502  0.00  0.00    -0.246 OA
ATOM     15  C   UNL     1      37.712 -22.503 -15.670  0.00  0.00    +0.359 C 
BRANCH  15  16
ATOM     16  O   UNL     1      38.571 -23.452 -16.118  0.00  0.00    -0.478 OA
ATOM     17  H   UNL     1      38.626 -23.640 -17.034  0.00  0.00    +0.295 HD
ENDBRANCH  15  16
ENDBRANCH  13  15
ENDBRANCH  12  13
ENDBRANCH   7  12
ENDBRANCH   3   6
BRANCH   2  18
ATOM     18  C   UNL     1      33.382 -23.729 -15.412  0.00  0.00    +0.117 C 
BRANCH  18  19
ATOM     19  C   UNL     1      34.501 -24.363 -14.628  0.00  0.00    -0.001 C 
ATOM     20  C   UNL     1      35.358 -25.255 -15.257  0.00  0.00    +0.021 C 
ATOM     21  C   UNL     1      34.658 -24.049 -13.286  0.00  0.00    -0.003 C 
ATOM     22  C   UNL     1      36.392 -25.844 -14.530  0.00  0.00    +0.143 C 
ATOM     23  C   UNL     1      35.692 -24.636 -12.558  0.00  0.00    +0.001 C 
ATOM     24  C   UNL     1      36.560 -25.535 -13.180  0.00  0.00    +0.024 C 
BRANCH  22  27
ATOM     25  O   UNL     1      36.895 -27.352 -16.200  0.00  0.00    -0.126 OA
ATOM     26  O   UNL     1      38.417 -26.939 -14.673  0.00  0.00    -0.126 OA
ATOM     27  N   UNL     1      37.276 -26.756 -15.164  0.00  0.00    +0.058 N 
ENDBRANCH  22  27
ENDBRANCH  18  19
ENDBRANCH   2  18
TORSDOF 8
ENDMDL
MODEL 4
REMARK VINA RESULT:      -9.8      6.165      9.153
REMARK  Name = 16058630
REMARK  8 active torsions:
REMARK  status: ('A' for Active; 'I' for Inactive)
REMARK    1  A    between atoms: N_2  and  C_18
REMARK    2  A    between atoms: C_3  and  C_6
REMARK    3  A    between atoms: C_7  and  O_12
REMARK    4  A    between atoms: O_12  and  C_13
REMARK    5  A    between atoms: C_13  and  C_15
REMARK    6  A    between atoms: C_15  and  O_16
REMARK    7  A    between atoms: C_18  and  C_19
REMARK    8  A    between atoms: C_22  and  N_27
REMARK                            x       y       z     vdW  Elec       q    Type
REMARK                         _______ _______ _______ _____ _____    ______ ____
ROOT
ATOM      1  O   UNL     1      33.408 -24.168 -18.290  0.00  0.00    -0.270 OA
ATOM      2  N   UNL     1      34.065 -22.951 -16.428  0.00  0.00    -0.297 N 
ATOM      3  C   UNL     1      33.944 -23.155 -17.807  0.00  0.00    +0.249 C 
ATOM      4  H   UNL     1      34.499 -22.126 -16.116  0.00  0.00    +0.150 HD
ENDROOT
BRANCH   3   6
ATOM      5 CL   UNL     1      36.158 -18.937 -21.399  0.00  0.00    -0.082 Cl
ATOM      6  C   UNL     1      34.500 -22.129 -18.677  0.00  0.00    +0.087 C 
ATOM      7  C   UNL     1      35.853 -21.798 -18.619  0.00  0.00    +0.145 C 
ATOM      8  C   UNL     1      33.659 -21.472 -19.576  0.00  0.00    +0.008 C 
ATOM      9  C   UNL     1      36.367 -20.811 -19.461  0.00  0.00    +0.048 C 
ATOM     10  C   UNL     1      34.171 -20.486 -20.417  0.00  0.00    +0.012 C 
ATOM     11  C   UNL     1      35.526 -20.155 -20.360  0.00  0.00    +0.061 C 
BRANCH   7  12
ATOM     12  O   UNL     1      36.691 -22.427 -17.747  0.00  0.00    -0.464 OA
BRANCH  12  13
ATOM     13  C   UNL     1      37.260 -21.633 -16.709  0.00  0.00    +0.314 C 
BRANCH  13  15
ATOM     14  O   UNL     1      37.493 -22.448 -14.431  0.00  0.00    -0.246 OA
ATOM     15  C   UNL     1      37.784 -22.523 -15.616  0.00  0.00    +0.359 C 
BRANCH  15  16
ATOM     16  O   UNL     1      38.642 -23.440 -16.129  0.00  0.00    -0.478 OA
ATOM     17  H   UNL     1      38.624 -23.637 -17.045  0.00  0.00    +0.295 HD
ENDBRANCH  15  16
ENDBRANCH  13  15
ENDBRANCH  12  13
ENDBRANCH   7  12
ENDBRANCH   3   6
BRANCH   2  18
ATOM     18  C   UNL     1      33.584 -23.889 -15.438  0.00  0.00    +0.117 C 
BRANCH  18  19
ATOM     19  C   UNL     1      34.715 -24.517 -14.666  0.00  0.00    -0.001 C 
ATOM     20  C   UNL     1      34.843 -24.259 -13.309  0.00  0.00    +0.021 C 
ATOM     21  C   UNL     1      35.614 -25.344 -15.325  0.00  0.00    -0.003 C 
ATOM     22  C   UNL     1      35.891 -24.840 -12.595  0.00  0.00    +0.143 C 
ATOM     23  C   UNL     1      36.662 -25.925 -14.611  0.00  0.00    +0.001 C 
ATOM     24  C   UNL     1      36.801 -25.673 -13.246  0.00  0.00    +0.024 C 
BRANCH  22  27
ATOM     25  O   UNL     1      36.995 -23.887 -10.809  0.00  0.00    -0.126 OA
ATOM     26  O   UNL     1      35.184 -25.062 -10.411  0.00  0.00    -0.126 OA
ATOM     27  N   UNL     1      36.031 -24.585 -11.206  0.00  0.00    +0.058 N 
ENDBRANCH  22  27
ENDBRANCH  18  19
ENDBRANCH   2  18
TORSDOF 8
ENDMDL
MODEL 5
REMARK VINA RESULT:      -9.6      1.721      2.268
REMARK  Name = 16058630
REMARK  8 active torsions:
REMARK  status: ('A' for Active; 'I' for Inactive)
REMARK    1  A    between atoms: N_2  and  C_18
REMARK    2  A    between atoms: C_3  and  C_6
REMARK    3  A    between atoms: C_7  and  O_12
REMARK    4  A    between atoms: O_12  and  C_13
REMARK    5  A    between atoms: C_13  and  C_15
REMARK    6  A    between atoms: C_15  and  O_16
REMARK    7  A    between atoms: C_18  and  C_19
REMARK    8  A    between atoms: C_22  and  N_27
REMARK                            x       y       z     vdW  Elec       q    Type
REMARK                         _______ _______ _______ _____ _____    ______ ____
ROOT
ATOM      1  O   UNL     1      34.196 -16.822 -23.872  0.00  0.00    -0.270 OA
ATOM      2  N   UNL     1      35.270 -16.937 -21.819  0.00  0.00    -0.297 N 
ATOM      3  C   UNL     1      34.356 -16.380 -22.721  0.00  0.00    +0.249 C 
ATOM      4  H   UNL     1      35.344 -16.536 -20.924  0.00  0.00    +0.150 HD
ENDROOT
BRANCH   3   6
ATOM      5 CL   UNL     1      31.247 -11.671 -20.781  0.00  0.00    -0.082 Cl
ATOM      6  C   UNL     1      33.600 -15.223 -22.263  0.00  0.00    +0.087 C 
ATOM      7  C   UNL     1      33.419 -14.113 -23.088  0.00  0.00    +0.145 C 
ATOM      8  C   UNL     1      33.054 -15.234 -20.979  0.00  0.00    +0.008 C 
ATOM      9  C   UNL     1      32.692 -13.015 -22.630  0.00  0.00    +0.048 C 
ATOM     10  C   UNL     1      32.327 -14.136 -20.521  0.00  0.00    +0.012 C 
ATOM     11  C   UNL     1      32.145 -13.026 -21.347  0.00  0.00    +0.061 C 
BRANCH   7  12
ATOM     12  O   UNL     1      33.946 -14.083 -24.345  0.00  0.00    -0.464 OA
BRANCH  12  13
ATOM     13  C   UNL     1      33.102 -13.606 -25.390  0.00  0.00    +0.314 C 
BRANCH  13  15
ATOM     14  O   UNL     1      33.722 -13.732 -27.736  0.00  0.00    -0.246 OA
ATOM     15  C   UNL     1      33.454 -14.290 -26.682  0.00  0.00    +0.359 C 
BRANCH  15  16
ATOM     16  O   UNL     1      33.435 -15.637 -26.519  0.00  0.00    -0.478 OA
ATOM     17  H   UNL     1      34.068 -16.170 -26.958  0.00  0.00    +0.295 HD
ENDBRANCH  15  16
ENDBRANCH  13  15
ENDBRANCH  12  13
ENDBRANCH   7  12
ENDBRANCH   3   6
BRANCH   2  18
ATOM     18  C   UNL     1      36.109 -18.071 -22.134  0.00  0.00    +0.117 C 
BRANCH  18  19
ATOM     19  C   UNL     1      35.886 -19.215 -21.180  0.00  0.00    -0.001 C 
ATOM     20  C   UNL     1      34.591 -19.597 -20.861  0.00  0.00    +0.021 C 
ATOM     21  C   UNL     1      36.980 -19.869 -20.632  0.00  0.00    -0.003 C 
ATOM     22  C   UNL     1      34.385 -20.655 -19.975  0.00  0.00    +0.143 C 
ATOM     23  C   UNL     1      36.774 -20.928 -19.747  0.00  0.00    +0.001 C 
ATOM     24  C   UNL     1      35.476 -21.322 -19.419  0.00  0.00    +0.024 C 
BRANCH  22  27
ATOM     25  O   UNL     1      32.121 -20.247 -19.816  0.00  0.00    -0.126 OA
ATOM     26  O   UNL     1      32.875 -22.211 -19.189  0.00  0.00    -0.126 OA
ATOM     27  N   UNL     1      33.064 -21.056 -19.643  0.00  0.00    +0.058 N 
ENDBRANCH  22  27
ENDBRANCH  18  19
ENDBRANCH   2  18
TORSDOF 8
ENDMDL
MODEL 6
REMARK VINA RESULT:      -9.6      4.840      9.203
REMARK  Name = 16058630
REMARK  8 active torsions:
REMARK  status: ('A' for Active; 'I' for Inactive)
REMARK    1  A    between atoms: N_2  and  C_18
REMARK    2  A    between atoms: C_3  and  C_6
REMARK    3  A    between atoms: C_7  and  O_12
REMARK    4  A    between atoms: O_12  and  C_13
REMARK    5  A    between atoms: C_13  and  C_15
REMARK    6  A    between atoms: C_15  and  O_16
REMARK    7  A    between atoms: C_18  and  C_19
REMARK    8  A    between atoms: C_22  and  N_27
REMARK                            x       y       z     vdW  Elec       q    Type
REMARK                         _______ _______ _______ _____ _____    ______ ____
ROOT
ATOM      1  O   UNL     1      33.761 -23.565 -19.451  0.00  0.00    -0.270 OA
ATOM      2  N   UNL     1      32.995 -21.456 -18.864  0.00  0.00    -0.297 N 
ATOM      3  C   UNL     1      33.422 -22.755 -18.570  0.00  0.00    +0.249 C 
ATOM      4  H   UNL     1      32.743 -20.868 -18.116  0.00  0.00    +0.150 HD
ENDROOT
BRANCH   3   6
ATOM      5 CL   UNL     1      33.544 -24.353 -12.822  0.00  0.00    -0.082 Cl
ATOM      6  C   UNL     1      33.435 -23.143 -17.167  0.00  0.00    +0.087 C 
ATOM      7  C   UNL     1      32.254 -23.195 -16.428  0.00  0.00    +0.145 C 
ATOM      8  C   UNL     1      34.650 -23.465 -16.562  0.00  0.00    +0.008 C 
ATOM      9  C   UNL     1      32.287 -23.569 -15.084  0.00  0.00    +0.048 C 
ATOM     10  C   UNL     1      34.684 -23.838 -15.219  0.00  0.00    +0.012 C 
ATOM     11  C   UNL     1      33.502 -23.891 -14.480  0.00  0.00    +0.061 C 
BRANCH   7  12
ATOM     12  O   UNL     1      31.056 -22.884 -17.000  0.00  0.00    -0.464 OA
BRANCH  12  13
ATOM     13  C   UNL     1      29.930 -22.782 -16.132  0.00  0.00    +0.314 C 
BRANCH  13  15
ATOM     14  O   UNL     1      28.333 -23.664 -17.737  0.00  0.00    -0.246 OA
ATOM     15  C   UNL     1      28.661 -22.798 -16.939  0.00  0.00    +0.359 C 
BRANCH  15  16
ATOM     16  O   UNL     1      27.912 -21.703 -16.657  0.00  0.00    -0.478 OA
ATOM     17  H   UNL     1      27.026 -21.652 -16.956  0.00  0.00    +0.295 HD
ENDBRANCH  15  16
ENDBRANCH  13  15
ENDBRANCH  12  13
ENDBRANCH   7  12
ENDBRANCH   3   6
BRANCH   2  18
ATOM     18  C   UNL     1      32.905 -20.931 -20.208  0.00  0.00    +0.117 C 
BRANCH  18  19
ATOM     19  C   UNL     1      34.128 -20.136 -20.582  0.00  0.00    -0.001 C 
ATOM     20  C   UNL     1      33.983 -18.941 -21.273  0.00  0.00    +0.021 C 
ATOM     21  C   UNL     1      35.384 -20.610 -20.232  0.00  0.00    -0.003 C 
ATOM     22  C   UNL     1      35.116 -18.206 -21.621  0.00  0.00    +0.143 C 
ATOM     23  C   UNL     1      36.517 -19.875 -20.578  0.00  0.00    +0.001 C 
ATOM     24  C   UNL     1      36.384 -18.673 -21.273  0.00  0.00    +0.024 C 
BRANCH  22  27
ATOM     25  O   UNL     1      34.969 -17.001 -23.581  0.00  0.00    -0.126 OA
ATOM     26  O   UNL     1      34.869 -15.914 -21.676  0.00  0.00    -0.126 OA
ATOM     27  N   UNL     1      34.979 -16.982 -22.327  0.00  0.00    +0.058 N 
ENDBRANCH  22  27
ENDBRANCH  18  19
ENDBRANCH   2  18
TORSDOF 8
ENDMDL
MODEL 7
REMARK VINA RESULT:      -9.4      4.654      9.541
REMARK  Name = 16058630
REMARK  8 active torsions:
REMARK  status: ('A' for Active; 'I' for Inactive)
REMARK    1  A    between atoms: N_2  and  C_18
REMARK    2  A    between atoms: C_3  and  C_6
REMARK    3  A    between atoms: C_7  and  O_12
REMARK    4  A    between atoms: O_12  and  C_13
REMARK    5  A    between atoms: C_13  and  C_15
REMARK    6  A    between atoms: C_15  and  O_16
REMARK    7  A    between atoms: C_18  and  C_19
REMARK    8  A    between atoms: C_22  and  N_27
REMARK                            x       y       z     vdW  Elec       q    Type
REMARK                         _______ _______ _______ _____ _____    ______ ____
ROOT
ATOM      1  O   UNL     1      33.608 -24.122 -18.692  0.00  0.00    -0.270 OA
ATOM      2  N   UNL     1      34.691 -22.268 -17.813  0.00  0.00    -0.297 N 
ATOM      3  C   UNL     1      33.772 -23.321 -17.755  0.00  0.00    +0.249 C 
ATOM      4  H   UNL     1      34.769 -21.673 -17.033  0.00  0.00    +0.150 HD
ENDROOT
BRANCH   3   6
ATOM      5 CL   UNL     1      30.460 -23.766 -12.811  0.00  0.00    -0.082 Cl
ATOM      6  C   UNL     1      32.977 -23.436 -16.540  0.00  0.00    +0.087 C 
ATOM      7  C   UNL     1      33.533 -23.945 -15.366  0.00  0.00    +0.145 C 
ATOM      8  C   UNL     1      31.643 -23.029 -16.560  0.00  0.00    +0.008 C 
ATOM      9  C   UNL     1      32.755 -24.048 -14.213  0.00  0.00    +0.048 C 
ATOM     10  C   UNL     1      30.865 -23.131 -15.408  0.00  0.00    +0.012 C 
ATOM     11  C   UNL     1      31.421 -23.641 -14.234  0.00  0.00    +0.061 C 
BRANCH   7  12
ATOM     12  O   UNL     1      34.834 -24.349 -15.327  0.00  0.00    -0.464 OA
BRANCH  12  13
ATOM     13  C   UNL     1      35.632 -23.861 -14.251  0.00  0.00    +0.314 C 
BRANCH  13  15
ATOM     14  O   UNL     1      37.959 -23.185 -14.069  0.00  0.00    -0.246 OA
ATOM     15  C   UNL     1      36.993 -23.474 -14.760  0.00  0.00    +0.359 C 
BRANCH  15  16
ATOM     16  O   UNL     1      37.008 -23.490 -16.116  0.00  0.00    -0.478 OA
ATOM     17  H   UNL     1      36.203 -23.520 -16.594  0.00  0.00    +0.295 HD
ENDBRANCH  15  16
ENDBRANCH  13  15
ENDBRANCH  12  13
ENDBRANCH   7  12
ENDBRANCH   3   6
BRANCH   2  18
ATOM     18  C   UNL     1      35.534 -22.009 -18.958  0.00  0.00    +0.117 C 
BRANCH  18  19
ATOM     19  C   UNL     1      34.954 -20.943 -19.851  0.00  0.00    -0.001 C 
ATOM     20  C   UNL     1      35.804 -20.111 -20.565  0.00  0.00    +0.021 C 
ATOM     21  C   UNL     1      33.576 -20.808 -19.946  0.00  0.00    -0.003 C 
ATOM     22  C   UNL     1      35.267 -19.123 -21.389  0.00  0.00    +0.143 C 
ATOM     23  C   UNL     1      33.038 -19.820 -20.771  0.00  0.00    +0.001 C 
ATOM     24  C   UNL     1      33.884 -18.977 -21.493  0.00  0.00    +0.024 C 
BRANCH  22  27
ATOM     25  O   UNL     1      37.360 -18.500 -22.128  0.00  0.00    -0.126 OA
ATOM     26  O   UNL     1      35.632 -17.302 -22.757  0.00  0.00    -0.126 OA
ATOM     27  N   UNL     1      36.127 -18.267 -22.126  0.00  0.00    +0.058 N 
ENDBRANCH  22  27
ENDBRANCH  18  19
ENDBRANCH   2  18
TORSDOF 8
ENDMDL
MODEL 8
REMARK VINA RESULT:      -9.3      3.934      7.897
REMARK  Name = 16058630
REMARK  8 active torsions:
REMARK  status: ('A' for Active; 'I' for Inactive)
REMARK    1  A    between atoms: N_2  and  C_18
REMARK    2  A    between atoms: C_3  and  C_6
REMARK    3  A    between atoms: C_7  and  O_12
REMARK    4  A    between atoms: O_12  and  C_13
REMARK    5  A    between atoms: C_13  and  C_15
REMARK    6  A    between atoms: C_15  and  O_16
REMARK    7  A    between atoms: C_18  and  C_19
REMARK    8  A    between atoms: C_22  and  N_27
REMARK                            x       y       z     vdW  Elec       q    Type
REMARK                         _______ _______ _______ _____ _____    ______ ____
ROOT
ATOM      1  O   UNL     1      34.739 -16.406 -25.834  0.00  0.00    -0.270 OA
ATOM      2  N   UNL     1      33.536 -15.171 -24.282  0.00  0.00    -0.297 N 
ATOM      3  C   UNL     1      34.344 -16.247 -24.665  0.00  0.00    +0.249 C 
ATOM      4  H   UNL     1      33.262 -15.107 -23.339  0.00  0.00    +0.150 HD
ENDROOT
BRANCH   3   6
ATOM      5 CL   UNL     1      35.776 -20.243 -20.473  0.00  0.00    -0.082 Cl
ATOM      6  C   UNL     1      34.695 -17.209 -23.630  0.00  0.00    +0.087 C 
ATOM      7  C   UNL     1      34.986 -16.791 -22.333  0.00  0.00    +0.145 C 
ATOM      8  C   UNL     1      34.738 -18.566 -23.952  0.00  0.00    +0.008 C 
ATOM      9  C   UNL     1      35.321 -17.728 -21.356  0.00  0.00    +0.048 C 
ATOM     10  C   UNL     1      35.072 -19.504 -22.976  0.00  0.00    +0.012 C 
ATOM     11  C   UNL     1      35.364 -19.085 -21.677  0.00  0.00    +0.061 C 
BRANCH   7  12
ATOM     12  O   UNL     1      34.950 -15.469 -21.999  0.00  0.00    -0.464 OA
BRANCH  12  13
ATOM     13  C   UNL     1      34.405 -15.138 -20.724  0.00  0.00    +0.314 C 
BRANCH  13  15
ATOM     14  O   UNL     1      32.122 -15.444 -21.498  0.00  0.00    -0.246 OA
ATOM     15  C   UNL     1      32.947 -14.800 -20.866  0.00  0.00    +0.359 C 
BRANCH  15  16
ATOM     16  O   UNL     1      32.660 -13.663 -20.183  0.00  0.00    -0.478 OA
ATOM     17  H   UNL     1      32.737 -12.831 -20.607  0.00  0.00    +0.295 HD
ENDBRANCH  15  16
ENDBRANCH  13  15
ENDBRANCH  12  13
ENDBRANCH   7  12
ENDBRANCH   3   6
BRANCH   2  18
ATOM     18  C   UNL     1      33.085 -14.147 -25.198  0.00  0.00    +0.117 C 
BRANCH  18  19
ATOM     19  C   UNL     1      33.229 -12.768 -24.611  0.00  0.00    -0.001 C 
ATOM     20  C   UNL     1      32.480 -12.416 -23.498  0.00  0.00    +0.021 C 
ATOM     21  C   UNL     1      34.108 -11.867 -25.195  0.00  0.00    -0.003 C 
ATOM     22  C   UNL     1      32.612 -11.137 -22.956  0.00  0.00    +0.143 C 
ATOM     23  C   UNL     1      34.242 -10.588 -24.654  0.00  0.00    +0.001 C 
ATOM     24  C   UNL     1      33.494 -10.223 -23.534  0.00  0.00    +0.024 C 
BRANCH  22  27
ATOM     25  O   UNL     1      31.015 -11.577 -21.354  0.00  0.00    -0.126 OA
ATOM     26  O   UNL     1      32.042  -9.639 -21.299  0.00  0.00    -0.126 OA
ATOM     27  N   UNL     1      31.853 -10.766 -21.816  0.00  0.00    +0.058 N 
ENDBRANCH  22  27
ENDBRANCH  18  19
ENDBRANCH   2  18
TORSDOF 8
ENDMDL
MODEL 9
REMARK VINA RESULT:      -9.2      3.031      4.996
REMARK  Name = 16058630
REMARK  8 active torsions:
REMARK  status: ('A' for Active; 'I' for Inactive)
REMARK    1  A    between atoms: N_2  and  C_18
REMARK    2  A    between atoms: C_3  and  C_6
REMARK    3  A    between atoms: C_7  and  O_12
REMARK    4  A    between atoms: O_12  and  C_13
REMARK    5  A    between atoms: C_13  and  C_15
REMARK    6  A    between atoms: C_15  and  O_16
REMARK    7  A    between atoms: C_18  and  C_19
REMARK    8  A    between atoms: C_22  and  N_27
REMARK                            x       y       z     vdW  Elec       q    Type
REMARK                         _______ _______ _______ _____ _____    ______ ____
ROOT
ATOM      1  O   UNL     1      34.173 -12.412 -24.443  0.00  0.00    -0.270 OA
ATOM      2  N   UNL     1      33.015 -14.350 -23.908  0.00  0.00    -0.297 N 
ATOM      3  C   UNL     1      33.345 -13.003 -23.726  0.00  0.00    +0.249 C 
ATOM      4  H   UNL     1      32.351 -14.752 -23.304  0.00  0.00    +0.150 HD
ENDROOT
BRANCH   3   6
ATOM      5 CL   UNL     1      30.655 -10.207 -19.193  0.00  0.00    -0.082 Cl
ATOM      6  C   UNL     1      32.690 -12.305 -22.629  0.00  0.00    +0.087 C 
ATOM      7  C   UNL     1      32.435 -10.936 -22.701  0.00  0.00    +0.145 C 
ATOM      8  C   UNL     1      32.315 -13.026 -21.495  0.00  0.00    +0.008 C 
ATOM      9  C   UNL     1      31.806 -10.287 -21.639  0.00  0.00    +0.048 C 
ATOM     10  C   UNL     1      31.686 -12.377 -20.433  0.00  0.00    +0.012 C 
ATOM     11  C   UNL     1      31.431 -11.007 -20.504  0.00  0.00    +0.061 C 
BRANCH   7  12
ATOM     12  O   UNL     1      32.795 -10.215 -23.800  0.00  0.00    -0.464 OA
BRANCH  12  13
ATOM     13  C   UNL     1      33.061  -8.828 -23.606  0.00  0.00    +0.314 C 
BRANCH  13  15
ATOM     14  O   UNL     1      35.098  -7.510 -23.474  0.00  0.00    -0.246 OA
ATOM     15  C   UNL     1      34.542  -8.577 -23.685  0.00  0.00    +0.359 C 
BRANCH  15  16
ATOM     16  O   UNL     1      35.193  -9.718 -24.027  0.00  0.00    -0.478 OA
ATOM     17  H   UNL     1      35.556  -9.810 -24.886  0.00  0.00    +0.295 HD
ENDBRANCH  15  16
ENDBRANCH  13  15
ENDBRANCH  12  13
ENDBRANCH   7  12
ENDBRANCH   3   6
BRANCH   2  18
ATOM     18  C   UNL     1      33.598 -15.182 -24.937  0.00  0.00    +0.117 C 
BRANCH  18  19
ATOM     19  C   UNL     1      34.170 -16.455 -24.371  0.00  0.00    -0.001 C 
ATOM     20  C   UNL     1      34.559 -16.498 -23.039  0.00  0.00    +0.021 C 
ATOM     21  C   UNL     1      34.302 -17.566 -25.190  0.00  0.00    -0.003 C 
ATOM     22  C   UNL     1      35.091 -17.677 -22.517  0.00  0.00    +0.143 C 
ATOM     23  C   UNL     1      34.833 -18.746 -24.668  0.00  0.00    +0.001 C 
ATOM     24  C   UNL     1      35.228 -18.801 -23.330  0.00  0.00    +0.024 C 
BRANCH  22  27
ATOM     25  O   UNL     1      36.072 -18.762 -20.735  0.00  0.00    -0.126 OA
ATOM     26  O   UNL     1      35.252 -16.751 -20.411  0.00  0.00    -0.126 OA
ATOM     27  N   UNL     1      35.490 -17.733 -21.155  0.00  0.00    +0.058 N 
ENDBRANCH  22  27
ENDBRANCH  18  19
ENDBRANCH   2  18
TORSDOF 8
ENDMDL
