MODEL 1
REMARK VINA RESULT:      -6.5      0.000      0.000
REMARK  Name = 441123
REMARK  8 active torsions:
REMARK  status: ('A' for Active; 'I' for Inactive)
REMARK    1  A    between atoms: C_1  and  C_2
REMARK    2  A    between atoms: C_1  and  C_12
REMARK    3  A    between atoms: C_2  and  N_4
REMARK    4  A    between atoms: C_2  and  C_9
REMARK    5  A    between atoms: C_9  and  O_10
REMARK    6  A    between atoms: C_12  and  C_13
REMARK    7  A    between atoms: C_13  and  N_14
REMARK    8  A    between atoms: N_14  and  C_17
REMARK                            x       y       z     vdW  Elec       q    Type
REMARK                         _______ _______ _______ _____ _____    ______ ____
ROOT
ATOM      1  C   UNL     1      34.859 -17.175 -21.064  0.00  0.00    +0.033 C 
ENDROOT
BRANCH   1   2
ATOM      2  C   UNL     1      34.371 -18.453 -21.762  0.00  0.00    +0.175 C 
BRANCH   2   4
ATOM      3  O   UNL     1      32.590 -20.506 -20.147  0.00  0.00    -0.275 OA
ATOM      4  N   UNL     1      34.618 -19.611 -20.907  0.00  0.00    -0.271 N 
ATOM      5  C   UNL     1      35.855 -20.216 -20.516  0.00  0.00    +0.103 C 
ATOM      6  C   UNL     1      35.002 -21.224 -19.723  0.00  0.00    +0.107 C 
ATOM      7  C   UNL     1      33.793 -20.436 -20.254  0.00  0.00    +0.228 C 
ENDBRANCH   2   4
BRANCH   2   9
ATOM      8  O   UNL     1      34.860 -19.630 -23.839  0.00  0.00    -0.248 OA
ATOM      9  C   UNL     1      35.115 -18.722 -23.057  0.00  0.00    +0.332 C 
BRANCH   9  10
ATOM     10  O   UNL     1      36.103 -17.816 -23.279  0.00  0.00    -0.479 OA
ATOM     11  H   UNL     1      35.947 -16.905 -23.122  0.00  0.00    +0.295 HD
ENDBRANCH   9  10
ENDBRANCH   2   9
ENDBRANCH   1   2
BRANCH   1  12
ATOM     12  C   UNL     1      33.821 -16.045 -21.132  0.00  0.00    +0.029 C 
BRANCH  12  13
ATOM     13  C   UNL     1      34.376 -14.784 -21.788  0.00  0.00    +0.129 C 
BRANCH  13  14
ATOM     14  N   UNL     1      34.860 -15.095 -23.134  0.00  0.00    -0.240 NA
BRANCH  14  17
ATOM     15  N   UNL     1      33.967 -16.079 -25.034  0.00  0.00    -0.370 N 
ATOM     16  N   UNL     1      32.985 -14.156 -24.307  0.00  0.00    -0.370 N 
ATOM     17  C   UNL     1      33.979 -15.082 -24.087  0.00  0.00    +0.189 C 
ATOM     18  H   UNL     1      34.629 -16.807 -24.991  0.00  0.00    +0.159 HD
ATOM     19  H   UNL     1      33.297 -16.065 -25.755  0.00  0.00    +0.159 HD
ATOM     20  H   UNL     1      32.884 -13.388 -23.699  0.00  0.00    +0.159 HD
ATOM     21  H   UNL     1      32.376 -14.260 -25.073  0.00  0.00    +0.159 HD
ENDBRANCH  14  17
ENDBRANCH  13  14
ENDBRANCH  12  13
ENDBRANCH   1  12
TORSDOF 8
ENDMDL
MODEL 2
REMARK VINA RESULT:      -6.4      1.342      1.461
REMARK  Name = 441123
REMARK  8 active torsions:
REMARK  status: ('A' for Active; 'I' for Inactive)
REMARK    1  A    between atoms: C_1  and  C_2
REMARK    2  A    between atoms: C_1  and  C_12
REMARK    3  A    between atoms: C_2  and  N_4
REMARK    4  A    between atoms: C_2  and  C_9
REMARK    5  A    between atoms: C_9  and  O_10
REMARK    6  A    between atoms: C_12  and  C_13
REMARK    7  A    between atoms: C_13  and  N_14
REMARK    8  A    between atoms: N_14  and  C_17
REMARK                            x       y       z     vdW  Elec       q    Type
REMARK                         _______ _______ _______ _____ _____    ______ ____
ROOT
ATOM      1  C   UNL     1      34.599 -16.190 -21.137  0.00  0.00    +0.033 C 
ENDROOT
BRANCH   1   2
ATOM      2  C   UNL     1      34.328 -17.414 -22.024  0.00  0.00    +0.175 C 
BRANCH   2   4
ATOM      3  O   UNL     1      33.069 -20.084 -20.892  0.00  0.00    -0.275 OA
ATOM      4  N   UNL     1      34.834 -18.621 -21.374  0.00  0.00    -0.271 N 
ATOM      5  C   UNL     1      36.176 -18.983 -21.029  0.00  0.00    +0.103 C 
ATOM      6  C   UNL     1      35.578 -20.290 -20.473  0.00  0.00    +0.107 C 
ATOM      7  C   UNL     1      34.222 -19.719 -20.921  0.00  0.00    +0.228 C 
ENDBRANCH   2   4
BRANCH   2   9
ATOM      8  O   UNL     1      35.014 -18.187 -24.231  0.00  0.00    -0.248 OA
ATOM      9  C   UNL     1      35.043 -17.327 -23.360  0.00  0.00    +0.332 C 
BRANCH   9  10
ATOM     10  O   UNL     1      35.718 -16.156 -23.505  0.00  0.00    -0.479 OA
ATOM     11  H   UNL     1      36.007 -15.884 -24.354  0.00  0.00    +0.295 HD
ENDBRANCH   9  10
ENDBRANCH   2   9
ENDBRANCH   1   2
BRANCH   1  12
ATOM     12  C   UNL     1      33.308 -15.440 -20.776  0.00  0.00    +0.029 C 
BRANCH  12  13
ATOM     13  C   UNL     1      32.812 -14.554 -21.915  0.00  0.00    +0.129 C 
BRANCH  13  14
ATOM     14  N   UNL     1      33.931 -13.796 -22.479  0.00  0.00    -0.240 NA
BRANCH  14  17
ATOM     15  N   UNL     1      33.381 -14.331 -24.667  0.00  0.00    -0.370 N 
ATOM     16  N   UNL     1      34.106 -12.206 -24.271  0.00  0.00    -0.370 N 
ATOM     17  C   UNL     1      33.824 -13.436 -23.720  0.00  0.00    +0.189 C 
ATOM     18  H   UNL     1      33.145 -15.249 -24.403  0.00  0.00    +0.159 HD
ATOM     19  H   UNL     1      33.302 -14.053 -25.607  0.00  0.00    +0.159 HD
ATOM     20  H   UNL     1      34.432 -11.474 -23.700  0.00  0.00    +0.159 HD
ATOM     21  H   UNL     1      33.982 -12.059 -25.236  0.00  0.00    +0.159 HD
ENDBRANCH  14  17
ENDBRANCH  13  14
ENDBRANCH  12  13
ENDBRANCH   1  12
TORSDOF 8
ENDMDL
MODEL 3
REMARK VINA RESULT:      -6.4      1.703      2.525
REMARK  Name = 441123
REMARK  8 active torsions:
REMARK  status: ('A' for Active; 'I' for Inactive)
REMARK    1  A    between atoms: C_1  and  C_2
REMARK    2  A    between atoms: C_1  and  C_12
REMARK    3  A    between atoms: C_2  and  N_4
REMARK    4  A    between atoms: C_2  and  C_9
REMARK    5  A    between atoms: C_9  and  O_10
REMARK    6  A    between atoms: C_12  and  C_13
REMARK    7  A    between atoms: C_13  and  N_14
REMARK    8  A    between atoms: N_14  and  C_17
REMARK                            x       y       z     vdW  Elec       q    Type
REMARK                         _______ _______ _______ _____ _____    ______ ____
ROOT
ATOM      1  C   UNL     1      34.667 -19.325 -23.048  0.00  0.00    +0.033 C 
ENDROOT
BRANCH   1   2
ATOM      2  C   UNL     1      35.261 -19.054 -21.658  0.00  0.00    +0.175 C 
BRANCH   2   4
ATOM      3  O   UNL     1      32.462 -20.135 -20.664  0.00  0.00    -0.275 OA
ATOM      4  N   UNL     1      34.804 -20.071 -20.714  0.00  0.00    -0.271 N 
ATOM      5  C   UNL     1      35.560 -20.962 -19.887  0.00  0.00    +0.103 C 
ATOM      6  C   UNL     1      34.204 -21.500 -19.392  0.00  0.00    +0.107 C 
ATOM      7  C   UNL     1      33.581 -20.470 -20.349  0.00  0.00    +0.228 C 
ENDBRANCH   2   4
BRANCH   2   9
ATOM      8  O   UNL     1      35.476 -17.011 -20.347  0.00  0.00    -0.248 OA
ATOM      9  C   UNL     1      34.810 -17.721 -21.088  0.00  0.00    +0.332 C 
BRANCH   9  10
ATOM     10  O   UNL     1      33.566 -17.377 -21.515  0.00  0.00    -0.479 OA
ATOM     11  H   UNL     1      33.342 -16.473 -21.623  0.00  0.00    +0.295 HD
ENDBRANCH   9  10
ENDBRANCH   2   9
ENDBRANCH   1   2
BRANCH   1  12
ATOM     12  C   UNL     1      35.294 -18.434 -24.130  0.00  0.00    +0.029 C 
BRANCH  12  13
ATOM     13  C   UNL     1      34.295 -18.048 -25.217  0.00  0.00    +0.129 C 
BRANCH  13  14
ATOM     14  N   UNL     1      34.575 -16.693 -25.693  0.00  0.00    -0.240 NA
BRANCH  14  17
ATOM     15  N   UNL     1      33.016 -15.042 -26.158  0.00  0.00    -0.370 N 
ATOM     16  N   UNL     1      33.598 -15.330 -23.973  0.00  0.00    -0.370 N 
ATOM     17  C   UNL     1      33.789 -15.752 -25.270  0.00  0.00    +0.189 C 
ATOM     18  H   UNL     1      33.058 -15.246 -27.120  0.00  0.00    +0.159 HD
ATOM     19  H   UNL     1      32.421 -14.329 -25.832  0.00  0.00    +0.159 HD
ATOM     20  H   UNL     1      34.093 -15.758 -23.238  0.00  0.00    +0.159 HD
ATOM     21  H   UNL     1      32.967 -14.599 -23.781  0.00  0.00    +0.159 HD
ENDBRANCH  14  17
ENDBRANCH  13  14
ENDBRANCH  12  13
ENDBRANCH   1  12
TORSDOF 8
ENDMDL
MODEL 4
REMARK VINA RESULT:      -6.4      6.502      9.252
REMARK  Name = 441123
REMARK  8 active torsions:
REMARK  status: ('A' for Active; 'I' for Inactive)
REMARK    1  A    between atoms: C_1  and  C_2
REMARK    2  A    between atoms: C_1  and  C_12
REMARK    3  A    between atoms: C_2  and  N_4
REMARK    4  A    between atoms: C_2  and  C_9
REMARK    5  A    between atoms: C_9  and  O_10
REMARK    6  A    between atoms: C_12  and  C_13
REMARK    7  A    between atoms: C_13  and  N_14
REMARK    8  A    between atoms: N_14  and  C_17
REMARK                            x       y       z     vdW  Elec       q    Type
REMARK                         _______ _______ _______ _____ _____    ______ ____
ROOT
ATOM      1  C   UNL     1      31.674 -23.467 -15.792  0.00  0.00    +0.033 C 
ENDROOT
BRANCH   1   2
ATOM      2  C   UNL     1      30.424 -24.360 -15.769  0.00  0.00    +0.175 C 
BRANCH   2   4
ATOM      3  O   UNL     1      27.814 -24.432 -17.550  0.00  0.00    -0.275 OA
ATOM      4  N   UNL     1      29.225 -23.538 -15.907  0.00  0.00    -0.271 N 
ATOM      5  C   UNL     1      28.841 -22.348 -15.208  0.00  0.00    +0.103 C 
ATOM      6  C   UNL     1      27.563 -22.369 -16.068  0.00  0.00    +0.107 C 
ATOM      7  C   UNL     1      28.152 -23.643 -16.698  0.00  0.00    +0.228 C 
ENDBRANCH   2   4
BRANCH   2   9
ATOM      8  O   UNL     1      31.088 -25.095 -13.542  0.00  0.00    -0.248 OA
ATOM      9  C   UNL     1      30.272 -25.105 -14.455  0.00  0.00    +0.332 C 
BRANCH   9  10
ATOM     10  O   UNL     1      29.096 -25.783 -14.384  0.00  0.00    -0.479 OA
ATOM     11  H   UNL     1      28.824 -26.324 -15.099  0.00  0.00    +0.295 HD
ENDBRANCH   9  10
ENDBRANCH   2   9
ENDBRANCH   1   2
BRANCH   1  12
ATOM     12  C   UNL     1      31.862 -22.769 -17.147  0.00  0.00    +0.029 C 
BRANCH  12  13
ATOM     13  C   UNL     1      33.260 -22.981 -17.721  0.00  0.00    +0.129 C 
BRANCH  13  14
ATOM     14  N   UNL     1      33.252 -22.722 -19.162  0.00  0.00    -0.240 NA
BRANCH  14  17
ATOM     15  N   UNL     1      34.902 -21.166 -19.639  0.00  0.00    -0.370 N 
ATOM     16  N   UNL     1      32.740 -20.489 -19.885  0.00  0.00    -0.370 N 
ATOM     17  C   UNL     1      33.578 -21.526 -19.541  0.00  0.00    +0.189 C 
ATOM     18  H   UNL     1      35.607 -21.818 -19.420  0.00  0.00    +0.159 HD
ATOM     19  H   UNL     1      35.145 -20.257 -19.927  0.00  0.00    +0.159 HD
ATOM     20  H   UNL     1      31.764 -20.616 -19.857  0.00  0.00    +0.159 HD
ATOM     21  H   UNL     1      33.115 -19.622 -20.158  0.00  0.00    +0.159 HD
ENDBRANCH  14  17
ENDBRANCH  13  14
ENDBRANCH  12  13
ENDBRANCH   1  12
TORSDOF 8
ENDMDL
MODEL 5
REMARK VINA RESULT:      -6.4      7.823     10.505
REMARK  Name = 441123
REMARK  8 active torsions:
REMARK  status: ('A' for Active; 'I' for Inactive)
REMARK    1  A    between atoms: C_1  and  C_2
REMARK    2  A    between atoms: C_1  and  C_12
REMARK    3  A    between atoms: C_2  and  N_4
REMARK    4  A    between atoms: C_2  and  C_9
REMARK    5  A    between atoms: C_9  and  O_10
REMARK    6  A    between atoms: C_12  and  C_13
REMARK    7  A    between atoms: C_13  and  N_14
REMARK    8  A    between atoms: N_14  and  C_17
REMARK                            x       y       z     vdW  Elec       q    Type
REMARK                         _______ _______ _______ _____ _____    ______ ____
ROOT
ATOM      1  C   UNL     1      35.218 -24.084 -13.111  0.00  0.00    +0.033 C 
ENDROOT
BRANCH   1   2
ATOM      2  C   UNL     1      36.687 -23.639 -13.062  0.00  0.00    +0.175 C 
BRANCH   2   4
ATOM      3  O   UNL     1      38.893 -23.758 -15.324  0.00  0.00    -0.275 OA
ATOM      4  N   UNL     1      37.539 -24.673 -13.644  0.00  0.00    -0.271 N 
ATOM      5  C   UNL     1      37.637 -26.067 -13.330  0.00  0.00    +0.103 C 
ATOM      6  C   UNL     1      38.713 -26.142 -14.429  0.00  0.00    +0.107 C 
ATOM      7  C   UNL     1      38.460 -24.636 -14.613  0.00  0.00    +0.228 C 
ENDBRANCH   2   4
BRANCH   2   9
ATOM      8  O   UNL     1      36.650 -23.902 -10.640  0.00  0.00    -0.248 OA
ATOM      9  C   UNL     1      37.182 -23.440 -11.641  0.00  0.00    +0.332 C 
BRANCH   9  10
ATOM     10  O   UNL     1      38.320 -22.698 -11.594  0.00  0.00    -0.479 OA
ATOM     11  H   UNL     1      38.768 -22.579 -10.779  0.00  0.00    +0.295 HD
ENDBRANCH   9  10
ENDBRANCH   2   9
ENDBRANCH   1   2
BRANCH   1  12
ATOM     12  C   UNL     1      34.643 -24.027 -14.535  0.00  0.00    +0.029 C 
BRANCH  12  13
ATOM     13  C   UNL     1      35.024 -22.742 -15.265  0.00  0.00    +0.129 C 
BRANCH  13  14
ATOM     14  N   UNL     1      35.715 -23.066 -16.514  0.00  0.00    -0.240 NA
BRANCH  14  17
ATOM     15  N   UNL     1      36.252 -21.797 -18.379  0.00  0.00    -0.370 N 
ATOM     16  N   UNL     1      37.378 -21.333 -16.452  0.00  0.00    -0.370 N 
ATOM     17  C   UNL     1      36.420 -22.119 -17.052  0.00  0.00    +0.189 C 
ATOM     18  H   UNL     1      35.594 -22.286 -18.924  0.00  0.00    +0.159 HD
ATOM     19  H   UNL     1      36.789 -21.078 -18.782  0.00  0.00    +0.159 HD
ATOM     20  H   UNL     1      37.595 -21.462 -15.501  0.00  0.00    +0.159 HD
ATOM     21  H   UNL     1      37.846 -20.642 -16.975  0.00  0.00    +0.159 HD
ENDBRANCH  14  17
ENDBRANCH  13  14
ENDBRANCH  12  13
ENDBRANCH   1  12
TORSDOF 8
ENDMDL
MODEL 6
REMARK VINA RESULT:      -6.3      1.869      2.687
REMARK  Name = 441123
REMARK  8 active torsions:
REMARK  status: ('A' for Active; 'I' for Inactive)
REMARK    1  A    between atoms: C_1  and  C_2
REMARK    2  A    between atoms: C_1  and  C_12
REMARK    3  A    between atoms: C_2  and  N_4
REMARK    4  A    between atoms: C_2  and  C_9
REMARK    5  A    between atoms: C_9  and  O_10
REMARK    6  A    between atoms: C_12  and  C_13
REMARK    7  A    between atoms: C_13  and  N_14
REMARK    8  A    between atoms: N_14  and  C_17
REMARK                            x       y       z     vdW  Elec       q    Type
REMARK                         _______ _______ _______ _____ _____    ______ ____
ROOT
ATOM      1  C   UNL     1      34.658 -19.164 -23.250  0.00  0.00    +0.033 C 
ENDROOT
BRANCH   1   2
ATOM      2  C   UNL     1      35.042 -18.882 -21.789  0.00  0.00    +0.175 C 
BRANCH   2   4
ATOM      3  O   UNL     1      35.882 -21.140 -19.742  0.00  0.00    -0.275 OA
ATOM      4  N   UNL     1      34.342 -19.810 -20.904  0.00  0.00    -0.271 N 
ATOM      5  C   UNL     1      32.938 -19.983 -20.680  0.00  0.00    +0.103 C 
ATOM      6  C   UNL     1      33.331 -21.086 -19.679  0.00  0.00    +0.107 C 
ATOM      7  C   UNL     1      34.782 -20.746 -20.058  0.00  0.00    +0.228 C 
ENDBRANCH   2   4
BRANCH   2   9
ATOM      8  O   UNL     1      33.675 -16.865 -21.781  0.00  0.00    -0.248 OA
ATOM      9  C   UNL     1      34.633 -17.490 -21.344  0.00  0.00    +0.332 C 
BRANCH   9  10
ATOM     10  O   UNL     1      35.445 -17.005 -20.369  0.00  0.00    -0.479 OA
ATOM     11  H   UNL     1      35.750 -16.119 -20.411  0.00  0.00    +0.295 HD
ENDBRANCH   9  10
ENDBRANCH   2   9
ENDBRANCH   1   2
BRANCH   1  12
ATOM     12  C   UNL     1      35.150 -18.063 -24.201  0.00  0.00    +0.029 C 
BRANCH  12  13
ATOM     13  C   UNL     1      34.131 -17.734 -25.287  0.00  0.00    +0.129 C 
BRANCH  13  14
ATOM     14  N   UNL     1      34.379 -16.390 -25.812  0.00  0.00    -0.240 NA
BRANCH  14  17
ATOM     15  N   UNL     1      33.443 -14.997 -24.213  0.00  0.00    -0.370 N 
ATOM     16  N   UNL     1      32.596 -14.864 -26.325  0.00  0.00    -0.370 N 
ATOM     17  C   UNL     1      33.515 -15.474 -25.501  0.00  0.00    +0.189 C 
ATOM     18  H   UNL     1      34.048 -15.352 -23.523  0.00  0.00    +0.159 HD
ATOM     19  H   UNL     1      32.786 -14.302 -23.982  0.00  0.00    +0.159 HD
ATOM     20  H   UNL     1      32.544 -15.115 -27.275  0.00  0.00    +0.159 HD
ATOM     21  H   UNL     1      31.991 -14.177 -25.964  0.00  0.00    +0.159 HD
ENDBRANCH  14  17
ENDBRANCH  13  14
ENDBRANCH  12  13
ENDBRANCH   1  12
TORSDOF 8
ENDMDL
MODEL 7
REMARK VINA RESULT:      -6.3     11.029     11.900
REMARK  Name = 441123
REMARK  8 active torsions:
REMARK  status: ('A' for Active; 'I' for Inactive)
REMARK    1  A    between atoms: C_1  and  C_2
REMARK    2  A    between atoms: C_1  and  C_12
REMARK    3  A    between atoms: C_2  and  N_4
REMARK    4  A    between atoms: C_2  and  C_9
REMARK    5  A    between atoms: C_9  and  O_10
REMARK    6  A    between atoms: C_12  and  C_13
REMARK    7  A    between atoms: C_13  and  N_14
REMARK    8  A    between atoms: N_14  and  C_17
REMARK                            x       y       z     vdW  Elec       q    Type
REMARK                         _______ _______ _______ _____ _____    ______ ____
ROOT
ATOM      1  C   UNL     1      34.929 -23.943 -12.464  0.00  0.00    +0.033 C 
ENDROOT
BRANCH   1   2
ATOM      2  C   UNL     1      36.385 -23.607 -12.823  0.00  0.00    +0.175 C 
BRANCH   2   4
ATOM      3  O   UNL     1      37.027 -26.579 -11.958  0.00  0.00    -0.275 OA
ATOM      4  N   UNL     1      37.023 -24.766 -13.442  0.00  0.00    -0.271 N 
ATOM      5  C   UNL     1      37.598 -24.910 -14.746  0.00  0.00    +0.103 C 
ATOM      6  C   UNL     1      37.918 -26.361 -14.340  0.00  0.00    +0.107 C 
ATOM      7  C   UNL     1      37.256 -26.005 -12.998  0.00  0.00    +0.228 C 
ENDBRANCH   2   4
BRANCH   2   9
ATOM      8  O   UNL     1      38.235 -22.593 -11.604  0.00  0.00    -0.248 OA
ATOM      9  C   UNL     1      37.218 -23.275 -11.599  0.00  0.00    +0.332 C 
BRANCH   9  10
ATOM     10  O   UNL     1      36.694 -23.806 -10.462  0.00  0.00    -0.479 OA
ATOM     11  H   UNL     1      37.160 -23.730  -9.652  0.00  0.00    +0.295 HD
ENDBRANCH   9  10
ENDBRANCH   2   9
ENDBRANCH   1   2
BRANCH   1  12
ATOM     12  C   UNL     1      34.078 -24.231 -13.710  0.00  0.00    +0.029 C 
BRANCH  12  13
ATOM     13  C   UNL     1      32.633 -23.768 -13.546  0.00  0.00    +0.129 C 
BRANCH  13  14
ATOM     14  N   UNL     1      31.734 -24.923 -13.576  0.00  0.00    -0.240 NA
BRANCH  14  17
ATOM     15  N   UNL     1      29.571 -25.508 -14.171  0.00  0.00    -0.370 N 
ATOM     16  N   UNL     1      30.761 -24.278 -15.676  0.00  0.00    -0.370 N 
ATOM     17  C   UNL     1      30.768 -24.887 -14.441  0.00  0.00    +0.189 C 
ATOM     18  H   UNL     1      29.444 -25.982 -13.317  0.00  0.00    +0.159 HD
ATOM     19  H   UNL     1      28.841 -25.477 -14.830  0.00  0.00    +0.159 HD
ATOM     20  H   UNL     1      31.560 -23.797 -15.992  0.00  0.00    +0.159 HD
ATOM     21  H   UNL     1      29.959 -24.324 -16.243  0.00  0.00    +0.159 HD
ENDBRANCH  14  17
ENDBRANCH  13  14
ENDBRANCH  12  13
ENDBRANCH   1  12
TORSDOF 8
ENDMDL
MODEL 8
REMARK VINA RESULT:      -6.2      8.770     10.858
REMARK  Name = 441123
REMARK  8 active torsions:
REMARK  status: ('A' for Active; 'I' for Inactive)
REMARK    1  A    between atoms: C_1  and  C_2
REMARK    2  A    between atoms: C_1  and  C_12
REMARK    3  A    between atoms: C_2  and  N_4
REMARK    4  A    between atoms: C_2  and  C_9
REMARK    5  A    between atoms: C_9  and  O_10
REMARK    6  A    between atoms: C_12  and  C_13
REMARK    7  A    between atoms: C_13  and  N_14
REMARK    8  A    between atoms: N_14  and  C_17
REMARK                            x       y       z     vdW  Elec       q    Type
REMARK                         _______ _______ _______ _____ _____    ______ ____
ROOT
ATOM      1  C   UNL     1      34.992 -23.925 -12.633  0.00  0.00    +0.033 C 
ENDROOT
BRANCH   1   2
ATOM      2  C   UNL     1      36.472 -23.626 -12.915  0.00  0.00    +0.175 C 
BRANCH   2   4
ATOM      3  O   UNL     1      37.024 -26.587 -11.955  0.00  0.00    -0.275 OA
ATOM      4  N   UNL     1      37.119 -24.808 -13.478  0.00  0.00    -0.271 N 
ATOM      5  C   UNL     1      37.751 -24.991 -14.750  0.00  0.00    +0.103 C 
ATOM      6  C   UNL     1      38.028 -26.438 -14.297  0.00  0.00    +0.107 C 
ATOM      7  C   UNL     1      37.311 -26.040 -12.996  0.00  0.00    +0.228 C 
ENDBRANCH   2   4
BRANCH   2   9
ATOM      8  O   UNL     1      38.244 -22.587 -11.604  0.00  0.00    -0.248 OA
ATOM      9  C   UNL     1      37.242 -23.289 -11.651  0.00  0.00    +0.332 C 
BRANCH   9  10
ATOM     10  O   UNL     1      36.678 -23.840 -10.545  0.00  0.00    -0.479 OA
ATOM     11  H   UNL     1      35.752 -23.977 -10.510  0.00  0.00    +0.295 HD
ENDBRANCH   9  10
ENDBRANCH   2   9
ENDBRANCH   1   2
BRANCH   1  12
ATOM     12  C   UNL     1      34.196 -24.176 -13.923  0.00  0.00    +0.029 C 
BRANCH  12  13
ATOM     13  C   UNL     1      34.513 -23.152 -15.010  0.00  0.00    +0.129 C 
BRANCH  13  14
ATOM     14  N   UNL     1      34.418 -23.780 -16.328  0.00  0.00    -0.240 NA
BRANCH  14  17
ATOM     15  N   UNL     1      32.228 -23.203 -16.820  0.00  0.00    -0.370 N 
ATOM     16  N   UNL     1      33.798 -22.751 -18.409  0.00  0.00    -0.370 N 
ATOM     17  C   UNL     1      33.560 -23.271 -17.156  0.00  0.00    +0.189 C 
ATOM     18  H   UNL     1      31.923 -23.542 -15.947  0.00  0.00    +0.159 HD
ATOM     19  H   UNL     1      31.580 -22.815 -17.451  0.00  0.00    +0.159 HD
ATOM     20  H   UNL     1      34.714 -22.740 -18.771  0.00  0.00    +0.159 HD
ATOM     21  H   UNL     1      33.054 -22.392 -18.943  0.00  0.00    +0.159 HD
ENDBRANCH  14  17
ENDBRANCH  13  14
ENDBRANCH  12  13
ENDBRANCH   1  12
TORSDOF 8
ENDMDL
MODEL 9
REMARK VINA RESULT:      -6.1      1.431      1.908
REMARK  Name = 441123
REMARK  8 active torsions:
REMARK  status: ('A' for Active; 'I' for Inactive)
REMARK    1  A    between atoms: C_1  and  C_2
REMARK    2  A    between atoms: C_1  and  C_12
REMARK    3  A    between atoms: C_2  and  N_4
REMARK    4  A    between atoms: C_2  and  C_9
REMARK    5  A    between atoms: C_9  and  O_10
REMARK    6  A    between atoms: C_12  and  C_13
REMARK    7  A    between atoms: C_13  and  N_14
REMARK    8  A    between atoms: N_14  and  C_17
REMARK                            x       y       z     vdW  Elec       q    Type
REMARK                         _______ _______ _______ _____ _____    ______ ____
ROOT
ATOM      1  C   UNL     1      34.976 -17.026 -21.056  0.00  0.00    +0.033 C 
ENDROOT
BRANCH   1   2
ATOM      2  C   UNL     1      34.361 -18.149 -21.905  0.00  0.00    +0.175 C 
BRANCH   2   4
ATOM      3  O   UNL     1      36.095 -20.164 -20.195  0.00  0.00    -0.275 OA
ATOM      4  N   UNL     1      34.093 -19.315 -21.067  0.00  0.00    -0.271 N 
ATOM      5  C   UNL     1      32.849 -19.945 -20.742  0.00  0.00    +0.103 C 
ATOM      6  C   UNL     1      33.680 -20.936 -19.904  0.00  0.00    +0.107 C 
ATOM      7  C   UNL     1      34.898 -20.121 -20.369  0.00  0.00    +0.228 C 
ENDBRANCH   2   4
BRANCH   2   9
ATOM      8  O   UNL     1      34.966 -19.290 -23.971  0.00  0.00    -0.248 OA
ATOM      9  C   UNL     1      35.299 -18.626 -22.998  0.00  0.00    +0.332 C 
BRANCH   9  10
ATOM     10  O   UNL     1      36.577 -18.209 -22.794  0.00  0.00    -0.479 OA
ATOM     11  H   UNL     1      36.823 -17.331 -23.008  0.00  0.00    +0.295 HD
ENDBRANCH   9  10
ENDBRANCH   2   9
ENDBRANCH   1   2
BRANCH   1  12
ATOM     12  C   UNL     1      34.223 -15.698 -21.218  0.00  0.00    +0.029 C 
BRANCH  12  13
ATOM     13  C   UNL     1      34.505 -15.029 -22.560  0.00  0.00    +0.129 C 
BRANCH  13  14
ATOM     14  N   UNL     1      33.245 -14.696 -23.226  0.00  0.00    -0.240 NA
BRANCH  14  17
ATOM     15  N   UNL     1      31.883 -12.984 -22.460  0.00  0.00    -0.370 N 
ATOM     16  N   UNL     1      33.471 -12.433 -23.999  0.00  0.00    -0.370 N 
ATOM     17  C   UNL     1      32.911 -13.443 -23.250  0.00  0.00    +0.189 C 
ATOM     18  H   UNL     1      31.397 -13.608 -21.873  0.00  0.00    +0.159 HD
ATOM     19  H   UNL     1      31.634 -12.033 -22.481  0.00  0.00    +0.159 HD
ATOM     20  H   UNL     1      34.219 -12.629 -24.608  0.00  0.00    +0.159 HD
ATOM     21  H   UNL     1      33.124 -11.515 -23.926  0.00  0.00    +0.159 HD
ENDBRANCH  14  17
ENDBRANCH  13  14
ENDBRANCH  12  13
ENDBRANCH   1  12
TORSDOF 8
ENDMDL
