MODEL 1
REMARK VINA RESULT:     -10.3      0.000      0.000
REMARK  Name = 3001028
REMARK  2 active torsions:
REMARK  status: ('A' for Active; 'I' for Inactive)
REMARK    1  A    between atoms: C_19  and  O_20
REMARK    2  A    between atoms: O_20  and  S_21
REMARK                            x       y       z     vdW  Elec       q    Type
REMARK                         _______ _______ _______ _____ _____    ______ ____
ROOT
ATOM      1  O   UNL     1      38.686 -25.777 -11.992  0.00  0.00    -0.296 OA
ATOM      2  C   UNL     1      36.934 -24.215 -14.553  0.00  0.00    +0.007 C 
ATOM      3  C   UNL     1      36.831 -25.341 -13.504  0.00  0.00    +0.052 C 
ATOM      4  C   UNL     1      35.618 -24.040 -15.309  0.00  0.00    +0.005 C 
ATOM      5  C   UNL     1      34.522 -23.609 -14.286  0.00  0.00    +0.022 C 
ATOM      6  C   UNL     1      35.818 -24.905 -12.450  0.00  0.00    +0.007 C 
ATOM      7  C   UNL     1      38.217 -24.531 -15.314  0.00  0.00    +0.008 C 
ATOM      8  C   UNL     1      34.449 -24.592 -13.085  0.00  0.00    +0.005 C 
ATOM      9  C   UNL     1      35.704 -22.991 -16.417  0.00  0.00    +0.005 C 
ATOM     10  C   UNL     1      38.287 -25.377 -13.077  0.00  0.00    +0.150 C 
ATOM     11  C   UNL     1      39.201 -24.883 -14.187  0.00  0.00    +0.064 C 
ATOM     12  C   UNL     1      36.498 -26.744 -14.045  0.00  0.00    +0.007 C 
ATOM     13  C   UNL     1      33.192 -23.337 -14.982  0.00  0.00    -0.026 C 
ATOM     14  C   UNL     1      34.399 -22.964 -17.209  0.00  0.00    +0.026 C 
ATOM     15  C   UNL     1      33.157 -22.992 -16.351  0.00  0.00    -0.023 C 
ATOM     16  C   UNL     1      31.982 -23.334 -14.266  0.00  0.00    -0.001 C 
ATOM     17  C   UNL     1      31.927 -22.708 -16.971  0.00  0.00    +0.035 C 
ATOM     18  C   UNL     1      30.768 -23.044 -14.892  0.00  0.00    +0.040 C 
ATOM     19  C   UNL     1      30.740 -22.734 -16.246  0.00  0.00    +0.175 C 
ENDROOT
BRANCH  19  20
ATOM     20  O   UNL     1      29.558 -22.454 -16.859  0.00  0.00    -0.322 OA
BRANCH  20  21
ATOM     21  S   UNL     1      28.272 -23.445 -16.601  0.00  0.00    +0.282 S 
ATOM     22  O   UNL     1      27.454 -23.398 -18.013  0.00  0.00    -0.105 OA
ATOM     23  O   UNL     1      28.752 -24.801 -16.410  0.00  0.00    -0.012 OA
ATOM     24  O   UNL     1      27.432 -22.825 -15.594  0.00  0.00    -0.105 OA
ENDBRANCH  20  21
ENDBRANCH  19  20
TORSDOF 2
ENDMDL
MODEL 2
REMARK VINA RESULT:     -10.1      3.028      7.871
REMARK  Name = 3001028
REMARK  2 active torsions:
REMARK  status: ('A' for Active; 'I' for Inactive)
REMARK    1  A    between atoms: C_19  and  O_20
REMARK    2  A    between atoms: O_20  and  S_21
REMARK                            x       y       z     vdW  Elec       q    Type
REMARK                         _______ _______ _______ _____ _____    ______ ____
ROOT
ATOM      1  O   UNL     1      28.442 -24.169 -14.988  0.00  0.00    -0.296 OA
ATOM      2  C   UNL     1      31.719 -23.575 -15.979  0.00  0.00    +0.007 C 
ATOM      3  C   UNL     1      30.816 -23.702 -14.734  0.00  0.00    +0.052 C 
ATOM      4  C   UNL     1      33.184 -23.401 -15.585  0.00  0.00    +0.005 C 
ATOM      5  C   UNL     1      33.639 -24.684 -14.822  0.00  0.00    +0.022 C 
ATOM      6  C   UNL     1      31.194 -24.993 -14.014  0.00  0.00    +0.007 C 
ATOM      7  C   UNL     1      31.026 -22.520 -16.835  0.00  0.00    +0.008 C 
ATOM      8  C   UNL     1      32.688 -25.007 -13.638  0.00  0.00    +0.005 C 
ATOM      9  C   UNL     1      34.102 -23.187 -16.788  0.00  0.00    +0.005 C 
ATOM     10  C   UNL     1      29.471 -23.681 -15.436  0.00  0.00    +0.150 C 
ATOM     11  C   UNL     1      29.550 -22.941 -16.761  0.00  0.00    +0.064 C 
ATOM     12  C   UNL     1      30.824 -22.504 -13.766  0.00  0.00    +0.007 C 
ATOM     13  C   UNL     1      35.121 -24.619 -14.464  0.00  0.00    -0.026 C 
ATOM     14  C   UNL     1      35.522 -22.893 -16.312  0.00  0.00    +0.026 C 
ATOM     15  C   UNL     1      36.002 -23.801 -15.206  0.00  0.00    -0.023 C 
ATOM     16  C   UNL     1      35.663 -25.432 -13.452  0.00  0.00    -0.001 C 
ATOM     17  C   UNL     1      37.371 -23.778 -14.887  0.00  0.00    +0.035 C 
ATOM     18  C   UNL     1      37.026 -25.404 -13.152  0.00  0.00    +0.040 C 
ATOM     19  C   UNL     1      37.880 -24.574 -13.867  0.00  0.00    +0.175 C 
ENDROOT
BRANCH  19  20
ATOM     20  O   UNL     1      39.208 -24.544 -13.573  0.00  0.00    -0.322 OA
BRANCH  20  21
ATOM     21  S   UNL     1      40.258 -25.362 -14.538  0.00  0.00    +0.282 S 
ATOM     22  O   UNL     1      40.930 -26.464 -13.538  0.00  0.00    -0.105 OA
ATOM     23  O   UNL     1      39.506 -26.080 -15.551  0.00  0.00    -0.012 OA
ATOM     24  O   UNL     1      41.306 -24.440 -14.932  0.00  0.00    -0.105 OA
ENDBRANCH  20  21
ENDBRANCH  19  20
TORSDOF 2
ENDMDL
MODEL 3
REMARK VINA RESULT:     -10.0      4.939      7.774
REMARK  Name = 3001028
REMARK  2 active torsions:
REMARK  status: ('A' for Active; 'I' for Inactive)
REMARK    1  A    between atoms: C_19  and  O_20
REMARK    2  A    between atoms: O_20  and  S_21
REMARK                            x       y       z     vdW  Elec       q    Type
REMARK                         _______ _______ _______ _____ _____    ______ ____
ROOT
ATOM      1  O   UNL     1      34.063 -17.748 -23.879  0.00  0.00    -0.296 OA
ATOM      2  C   UNL     1      35.613 -19.667 -21.432  0.00  0.00    +0.007 C 
ATOM      3  C   UNL     1      34.373 -18.790 -21.702  0.00  0.00    +0.052 C 
ATOM      4  C   UNL     1      35.543 -20.313 -20.050  0.00  0.00    +0.005 C 
ATOM      5  C   UNL     1      34.302 -21.258 -20.015  0.00  0.00    +0.022 C 
ATOM      6  C   UNL     1      33.154 -19.706 -21.749  0.00  0.00    +0.007 C 
ATOM      7  C   UNL     1      36.790 -18.771 -21.800  0.00  0.00    +0.008 C 
ATOM      8  C   UNL     1      33.009 -20.510 -20.442  0.00  0.00    +0.005 C 
ATOM      9  C   UNL     1      36.794 -21.124 -19.709  0.00  0.00    +0.005 C 
ATOM     10  C   UNL     1      34.818 -18.180 -23.019  0.00  0.00    +0.150 C 
ATOM     11  C   UNL     1      36.334 -18.139 -23.124  0.00  0.00    +0.064 C 
ATOM     12  C   UNL     1      34.147 -17.616 -20.730  0.00  0.00    +0.007 C 
ATOM     13  C   UNL     1      34.211 -22.003 -18.687  0.00  0.00    -0.026 C 
ATOM     14  C   UNL     1      36.709 -21.629 -18.271  0.00  0.00    +0.026 C 
ATOM     15  C   UNL     1      35.365 -22.206 -17.898  0.00  0.00    -0.023 C 
ATOM     16  C   UNL     1      33.003 -22.582 -18.257  0.00  0.00    -0.001 C 
ATOM     17  C   UNL     1      35.273 -22.926 -16.694  0.00  0.00    +0.035 C 
ATOM     18  C   UNL     1      32.927 -23.300 -17.063  0.00  0.00    +0.040 C 
ATOM     19  C   UNL     1      34.062 -23.470 -16.279  0.00  0.00    +0.175 C 
ENDROOT
BRANCH  19  20
ATOM     20  O   UNL     1      33.989 -24.167 -15.113  0.00  0.00    -0.322 OA
BRANCH  20  21
ATOM     21  S   UNL     1      32.721 -23.899 -14.101  0.00  0.00    +0.282 S 
ATOM     22  O   UNL     1      33.420 -23.741 -12.634  0.00  0.00    -0.105 OA
ATOM     23  O   UNL     1      32.107 -22.628 -14.441  0.00  0.00    -0.012 OA
ATOM     24  O   UNL     1      31.918 -25.106 -14.070  0.00  0.00    -0.105 OA
ENDBRANCH  20  21
ENDBRANCH  19  20
TORSDOF 2
ENDMDL
MODEL 4
REMARK VINA RESULT:     -10.0      2.984      8.016
REMARK  Name = 3001028
REMARK  2 active torsions:
REMARK  status: ('A' for Active; 'I' for Inactive)
REMARK    1  A    between atoms: C_19  and  O_20
REMARK    2  A    between atoms: O_20  and  S_21
REMARK                            x       y       z     vdW  Elec       q    Type
REMARK                         _______ _______ _______ _____ _____    ______ ____
ROOT
ATOM      1  O   UNL     1      29.264 -22.547 -17.162  0.00  0.00    -0.296 OA
ATOM      2  C   UNL     1      31.696 -23.111 -14.746  0.00  0.00    +0.007 C 
ATOM      3  C   UNL     1      31.301 -23.460 -16.196  0.00  0.00    +0.052 C 
ATOM      4  C   UNL     1      33.062 -23.693 -14.389  0.00  0.00    +0.005 C 
ATOM      5  C   UNL     1      34.129 -23.037 -15.321  0.00  0.00    +0.022 C 
ATOM      6  C   UNL     1      32.288 -22.765 -17.128  0.00  0.00    +0.007 C 
ATOM      7  C   UNL     1      30.467 -23.487 -13.926  0.00  0.00    +0.008 C 
ATOM      8  C   UNL     1      33.739 -23.181 -16.818  0.00  0.00    +0.005 C 
ATOM      9  C   UNL     1      33.453 -23.442 -12.933  0.00  0.00    +0.005 C 
ATOM     10  C   UNL     1      29.884 -22.916 -16.175  0.00  0.00    +0.150 C 
ATOM     11  C   UNL     1      29.312 -22.919 -14.766  0.00  0.00    +0.064 C 
ATOM     12  C   UNL     1      31.189 -24.961 -16.527  0.00  0.00    +0.007 C 
ATOM     13  C   UNL     1      35.536 -23.511 -14.969  0.00  0.00    -0.026 C 
ATOM     14  C   UNL     1      34.763 -24.158 -12.616  0.00  0.00    +0.026 C 
ATOM     15  C   UNL     1      35.826 -23.997 -13.676  0.00  0.00    -0.023 C 
ATOM     16  C   UNL     1      36.594 -23.395 -15.888  0.00  0.00    -0.001 C 
ATOM     17  C   UNL     1      37.136 -24.396 -13.355  0.00  0.00    +0.035 C 
ATOM     18  C   UNL     1      37.892 -23.788 -15.554  0.00  0.00    +0.040 C 
ATOM     19  C   UNL     1      38.162 -24.292 -14.288  0.00  0.00    +0.175 C 
ENDROOT
BRANCH  19  20
ATOM     20  O   UNL     1      39.425 -24.679 -13.962  0.00  0.00    -0.322 OA
BRANCH  20  21
ATOM     21  S   UNL     1      39.970 -26.141 -14.480  0.00  0.00    +0.282 S 
ATOM     22  O   UNL     1      40.550 -25.835 -15.975  0.00  0.00    -0.105 OA
ATOM     23  O   UNL     1      41.085 -26.552 -13.646  0.00  0.00    -0.012 OA
ATOM     24  O   UNL     1      38.820 -27.013 -14.632  0.00  0.00    -0.105 OA
ENDBRANCH  20  21
ENDBRANCH  19  20
TORSDOF 2
ENDMDL
MODEL 5
REMARK VINA RESULT:      -9.9      1.081      2.495
REMARK  Name = 3001028
REMARK  2 active torsions:
REMARK  status: ('A' for Active; 'I' for Inactive)
REMARK    1  A    between atoms: C_19  and  O_20
REMARK    2  A    between atoms: O_20  and  S_21
REMARK                            x       y       z     vdW  Elec       q    Type
REMARK                         _______ _______ _______ _____ _____    ______ ____
ROOT
ATOM      1  O   UNL     1      39.223 -24.685 -13.930  0.00  0.00    -0.296 OA
ATOM      2  C   UNL     1      35.769 -24.733 -13.559  0.00  0.00    +0.007 C 
ATOM      3  C   UNL     1      36.935 -23.876 -14.094  0.00  0.00    +0.052 C 
ATOM      4  C   UNL     1      34.419 -24.090 -13.872  0.00  0.00    +0.005 C 
ATOM      5  C   UNL     1      34.260 -24.023 -15.423  0.00  0.00    +0.022 C 
ATOM      6  C   UNL     1      36.841 -23.861 -15.617  0.00  0.00    +0.007 C 
ATOM      7  C   UNL     1      36.159 -25.030 -12.115  0.00  0.00    +0.008 C 
ATOM      8  C   UNL     1      35.476 -23.324 -16.089  0.00  0.00    +0.005 C 
ATOM      9  C   UNL     1      33.241 -24.865 -13.283  0.00  0.00    +0.005 C 
ATOM     10  C   UNL     1      38.082 -24.663 -13.489  0.00  0.00    +0.150 C 
ATOM     11  C   UNL     1      37.645 -25.402 -12.235  0.00  0.00    +0.064 C 
ATOM     12  C   UNL     1      37.040 -22.446 -13.531  0.00  0.00    +0.007 C 
ATOM     13  C   UNL     1      32.896 -23.463 -15.814  0.00  0.00    -0.026 C 
ATOM     14  C   UNL     1      31.943 -24.099 -13.524  0.00  0.00    +0.026 C 
ATOM     15  C   UNL     1      31.804 -23.546 -14.922  0.00  0.00    -0.023 C 
ATOM     16  C   UNL     1      32.666 -22.934 -17.097  0.00  0.00    -0.001 C 
ATOM     17  C   UNL     1      30.543 -23.059 -15.311  0.00  0.00    +0.035 C 
ATOM     18  C   UNL     1      31.408 -22.460 -17.472  0.00  0.00    +0.040 C 
ATOM     19  C   UNL     1      30.346 -22.519 -16.577  0.00  0.00    +0.175 C 
ENDROOT
BRANCH  19  20
ATOM     20  O   UNL     1      29.120 -22.054 -16.940  0.00  0.00    -0.322 OA
BRANCH  20  21
ATOM     21  S   UNL     1      27.835 -23.077 -16.896  0.00  0.00    +0.282 S 
ATOM     22  O   UNL     1      26.921 -22.612 -18.167  0.00  0.00    -0.105 OA
ATOM     23  O   UNL     1      28.298 -24.429 -17.152  0.00  0.00    -0.012 OA
ATOM     24  O   UNL     1      27.080 -22.787 -15.691  0.00  0.00    -0.105 OA
ENDBRANCH  20  21
ENDBRANCH  19  20
TORSDOF 2
ENDMDL
MODEL 6
REMARK VINA RESULT:      -9.6      4.046      4.996
REMARK  Name = 3001028
REMARK  2 active torsions:
REMARK  status: ('A' for Active; 'I' for Inactive)
REMARK    1  A    between atoms: C_19  and  O_20
REMARK    2  A    between atoms: O_20  and  S_21
REMARK                            x       y       z     vdW  Elec       q    Type
REMARK                         _______ _______ _______ _____ _____    ______ ____
ROOT
ATOM      1  O   UNL     1      35.488 -25.412 -11.175  0.00  0.00    -0.296 OA
ATOM      2  C   UNL     1      36.658 -23.387 -13.744  0.00  0.00    +0.007 C 
ATOM      3  C   UNL     1      35.872 -24.685 -13.464  0.00  0.00    +0.052 C 
ATOM      4  C   UNL     1      36.675 -23.061 -15.236  0.00  0.00    +0.005 C 
ATOM      5  C   UNL     1      35.206 -22.811 -15.698  0.00  0.00    +0.022 C 
ATOM      6  C   UNL     1      34.414 -24.436 -13.837  0.00  0.00    +0.007 C 
ATOM      7  C   UNL     1      37.968 -23.575 -12.987  0.00  0.00    +0.008 C 
ATOM      8  C   UNL     1      34.280 -23.995 -15.308  0.00  0.00    +0.005 C 
ATOM      9  C   UNL     1      37.516 -21.828 -15.566  0.00  0.00    +0.005 C 
ATOM     10  C   UNL     1      36.184 -24.815 -11.985  0.00  0.00    +0.150 C 
ATOM     11  C   UNL     1      37.500 -24.138 -11.636  0.00  0.00    +0.064 C 
ATOM     12  C   UNL     1      36.407 -25.961 -14.140  0.00  0.00    +0.007 C 
ATOM     13  C   UNL     1      35.150 -22.400 -17.166  0.00  0.00    -0.026 C 
ATOM     14  C   UNL     1      37.593 -21.641 -17.079  0.00  0.00    +0.026 C 
ATOM     15  C   UNL     1      36.271 -21.810 -17.789  0.00  0.00    -0.023 C 
ATOM     16  C   UNL     1      33.961 -22.513 -17.909  0.00  0.00    -0.001 C 
ATOM     17  C   UNL     1      36.194 -21.403 -19.132  0.00  0.00    +0.035 C 
ATOM     18  C   UNL     1      33.896 -22.099 -19.241  0.00  0.00    +0.040 C 
ATOM     19  C   UNL     1      35.013 -21.546 -19.854  0.00  0.00    +0.175 C 
ENDROOT
BRANCH  19  20
ATOM     20  O   UNL     1      34.952 -21.145 -21.152  0.00  0.00    -0.322 OA
BRANCH  20  21
ATOM     21  S   UNL     1      34.631 -19.567 -21.485  0.00  0.00    +0.282 S 
ATOM     22  O   UNL     1      33.093 -19.365 -20.976  0.00  0.00    -0.105 OA
ATOM     23  O   UNL     1      35.485 -18.728 -20.664  0.00  0.00    -0.012 OA
ATOM     24  O   UNL     1      34.634 -19.410 -22.927  0.00  0.00    -0.105 OA
ENDBRANCH  20  21
ENDBRANCH  19  20
TORSDOF 2
ENDMDL
MODEL 7
REMARK VINA RESULT:      -9.5     13.233     15.829
REMARK  Name = 3001028
REMARK  2 active torsions:
REMARK  status: ('A' for Active; 'I' for Inactive)
REMARK    1  A    between atoms: C_19  and  O_20
REMARK    2  A    between atoms: O_20  and  S_21
REMARK                            x       y       z     vdW  Elec       q    Type
REMARK                         _______ _______ _______ _____ _____    ______ ____
ROOT
ATOM      1  O   UNL     1      31.038  -5.874 -21.528  0.00  0.00    -0.296 OA
ATOM      2  C   UNL     1      32.461  -8.492 -23.314  0.00  0.00    +0.007 C 
ATOM      3  C   UNL     1      32.214  -7.974 -21.882  0.00  0.00    +0.052 C 
ATOM      4  C   UNL     1      33.106  -9.877 -23.299  0.00  0.00    +0.005 C 
ATOM      5  C   UNL     1      32.111 -10.870 -22.621  0.00  0.00    +0.022 C 
ATOM      6  C   UNL     1      31.184  -8.888 -21.227  0.00  0.00    +0.007 C 
ATOM      7  C   UNL     1      33.158  -7.331 -24.015  0.00  0.00    +0.008 C 
ATOM      8  C   UNL     1      31.657 -10.355 -21.227  0.00  0.00    +0.005 C 
ATOM      9  C   UNL     1      33.445 -10.390 -24.698  0.00  0.00    +0.005 C 
ATOM     10  C   UNL     1      31.755  -6.570 -22.233  0.00  0.00    +0.150 C 
ATOM     11  C   UNL     1      32.330  -6.117 -23.565  0.00  0.00    +0.064 C 
ATOM     12  C   UNL     1      33.462  -7.817 -20.993  0.00  0.00    +0.007 C 
ATOM     13  C   UNL     1      32.653 -12.295 -22.640  0.00  0.00    -0.026 C 
ATOM     14  C   UNL     1      34.199 -11.713 -24.596  0.00  0.00    +0.026 C 
ATOM     15  C   UNL     1      33.606 -12.687 -23.606  0.00  0.00    -0.023 C 
ATOM     16  C   UNL     1      32.159 -13.275 -21.760  0.00  0.00    -0.001 C 
ATOM     17  C   UNL     1      34.071 -14.014 -23.635  0.00  0.00    +0.035 C 
ATOM     18  C   UNL     1      32.624 -14.591 -21.804  0.00  0.00    +0.040 C 
ATOM     19  C   UNL     1      33.582 -14.960 -22.739  0.00  0.00    +0.175 C 
ENDROOT
BRANCH  19  20
ATOM     20  O   UNL     1      34.039 -16.241 -22.781  0.00  0.00    -0.322 OA
BRANCH  20  21
ATOM     21  S   UNL     1      34.572 -16.943 -21.394  0.00  0.00    +0.282 S 
ATOM     22  O   UNL     1      35.867 -17.815 -21.870  0.00  0.00    -0.105 OA
ATOM     23  O   UNL     1      35.040 -15.908 -20.490  0.00  0.00    -0.012 OA
ATOM     24  O   UNL     1      33.556 -17.882 -20.955  0.00  0.00    -0.105 OA
ENDBRANCH  20  21
ENDBRANCH  19  20
TORSDOF 2
ENDMDL
MODEL 8
REMARK VINA RESULT:      -9.2     13.795     15.881
REMARK  Name = 3001028
REMARK  2 active torsions:
REMARK  status: ('A' for Active; 'I' for Inactive)
REMARK    1  A    between atoms: C_19  and  O_20
REMARK    2  A    between atoms: O_20  and  S_21
REMARK                            x       y       z     vdW  Elec       q    Type
REMARK                         _______ _______ _______ _____ _____    ______ ____
ROOT
ATOM      1  O   UNL     1      33.815 -16.753 -22.771  0.00  0.00    -0.296 OA
ATOM      2  C   UNL     1      32.375 -13.860 -21.497  0.00  0.00    +0.007 C 
ATOM      3  C   UNL     1      33.654 -14.402 -22.168  0.00  0.00    +0.052 C 
ATOM      4  C   UNL     1      32.444 -12.345 -21.317  0.00  0.00    +0.005 C 
ATOM      5  C   UNL     1      32.529 -11.689 -22.730  0.00  0.00    +0.022 C 
ATOM      6  C   UNL     1      33.717 -13.833 -23.582  0.00  0.00    +0.007 C 
ATOM      7  C   UNL     1      32.176 -14.766 -20.288  0.00  0.00    +0.008 C 
ATOM      8  C   UNL     1      33.692 -12.292 -23.565  0.00  0.00    +0.005 C 
ATOM      9  C   UNL     1      31.231 -11.778 -20.579  0.00  0.00    +0.005 C 
ATOM     10  C   UNL     1      33.355 -15.885 -22.042  0.00  0.00    +0.150 C 
ATOM     11  C   UNL     1      32.433 -16.166 -20.867  0.00  0.00    +0.064 C 
ATOM     12  C   UNL     1      34.973 -14.155 -21.411  0.00  0.00    +0.007 C 
ATOM     13  C   UNL     1      32.521 -10.167 -22.635  0.00  0.00    -0.026 C 
ATOM     14  C   UNL     1      31.430 -10.287 -20.322  0.00  0.00    +0.026 C 
ATOM     15  C   UNL     1      31.960  -9.522 -21.511  0.00  0.00    -0.023 C 
ATOM     16  C   UNL     1      32.988  -9.368 -23.694  0.00  0.00    -0.001 C 
ATOM     17  C   UNL     1      31.926  -8.117 -21.453  0.00  0.00    +0.035 C 
ATOM     18  C   UNL     1      32.942  -7.974 -23.627  0.00  0.00    +0.040 C 
ATOM     19  C   UNL     1      32.414  -7.348 -22.504  0.00  0.00    +0.175 C 
ENDROOT
BRANCH  19  20
ATOM     20  O   UNL     1      32.372  -5.990 -22.435  0.00  0.00    -0.322 OA
BRANCH  20  21
ATOM     21  S   UNL     1      31.061  -5.201 -23.036  0.00  0.00    +0.282 S 
ATOM     22  O   UNL     1      31.581  -3.665 -23.223  0.00  0.00    -0.105 OA
ATOM     23  O   UNL     1      30.754  -5.730 -24.353  0.00  0.00    -0.012 OA
ATOM     24  O   UNL     1      30.041  -5.190 -22.004  0.00  0.00    -0.105 OA
ENDBRANCH  20  21
ENDBRANCH  19  20
TORSDOF 2
ENDMDL
MODEL 9
REMARK VINA RESULT:      -8.7     13.722     16.243
REMARK  Name = 3001028
REMARK  2 active torsions:
REMARK  status: ('A' for Active; 'I' for Inactive)
REMARK    1  A    between atoms: C_19  and  O_20
REMARK    2  A    between atoms: O_20  and  S_21
REMARK                            x       y       z     vdW  Elec       q    Type
REMARK                         _______ _______ _______ _____ _____    ______ ____
ROOT
ATOM      1  O   UNL     1      31.613  -5.394 -22.086  0.00  0.00    -0.296 OA
ATOM      2  C   UNL     1      32.785  -8.262 -23.660  0.00  0.00    +0.007 C 
ATOM      3  C   UNL     1      32.583  -7.617 -22.272  0.00  0.00    +0.052 C 
ATOM      4  C   UNL     1      33.294  -9.696 -23.535  0.00  0.00    +0.005 C 
ATOM      5  C   UNL     1      32.205 -10.537 -22.798  0.00  0.00    +0.022 C 
ATOM      6  C   UNL     1      31.467  -8.377 -21.563  0.00  0.00    +0.007 C 
ATOM      7  C   UNL     1      33.594  -7.228 -24.436  0.00  0.00    +0.008 C 
ATOM      8  C   UNL     1      31.797  -9.879 -21.451  0.00  0.00    +0.005 C 
ATOM      9  C   UNL     1      33.587 -10.343 -24.889  0.00  0.00    +0.005 C 
ATOM     10  C   UNL     1      32.263  -6.206 -22.731  0.00  0.00    +0.150 C 
ATOM     11  C   UNL     1      32.884  -5.911 -24.086  0.00  0.00    +0.064 C 
ATOM     12  C   UNL     1      33.838  -7.515 -21.383  0.00  0.00    +0.007 C 
ATOM     13  C   UNL     1      32.608 -12.005 -22.706  0.00  0.00    -0.026 C 
ATOM     14  C   UNL     1      34.210 -11.720 -24.682  0.00  0.00    +0.026 C 
ATOM     15  C   UNL     1      33.522 -12.556 -23.630  0.00  0.00    -0.023 C 
ATOM     16  C   UNL     1      32.018 -12.865 -21.762  0.00  0.00    -0.001 C 
ATOM     17  C   UNL     1      33.857 -13.920 -23.556  0.00  0.00    +0.035 C 
ATOM     18  C   UNL     1      32.354 -14.219 -21.704  0.00  0.00    +0.040 C 
ATOM     19  C   UNL     1      33.277 -14.746 -22.599  0.00  0.00    +0.175 C 
ENDROOT
BRANCH  19  20
ATOM     20  O   UNL     1      33.608 -16.064 -22.541  0.00  0.00    -0.322 OA
BRANCH  20  21
ATOM     21  S   UNL     1      34.557 -16.701 -23.723  0.00  0.00    +0.282 S 
ATOM     22  O   UNL     1      34.641 -18.287 -23.345  0.00  0.00    -0.105 OA
ATOM     23  O   UNL     1      33.868 -16.583 -24.996  0.00  0.00    -0.012 OA
ATOM     24  O   UNL     1      35.888 -16.147 -23.567  0.00  0.00    -0.105 OA
ENDBRANCH  20  21
ENDBRANCH  19  20
TORSDOF 2
ENDMDL
