MODEL 1
REMARK VINA RESULT:      -8.4      0.000      0.000
REMARK  Name = 71733
REMARK  6 active torsions:
REMARK  status: ('A' for Active; 'I' for Inactive)
REMARK    1  A    between atoms: C_1  and  C_3
REMARK    2  A    between atoms: C_1  and  O_13
REMARK    3  A    between atoms: C_1  and  C_15
REMARK    4  A    between atoms: C_7  and  C_11
REMARK    5  A    between atoms: C_15  and  N_16
REMARK    6  A    between atoms: N_16  and  C_19
REMARK                            x       y       z     vdW  Elec       q    Type
REMARK                         _______ _______ _______ _____ _____    ______ ____
ROOT
ATOM      1  C   UNL     1      34.285 -15.148 -21.377  0.00  0.00    +0.146 C 
ENDROOT
BRANCH   1   3
ATOM      2  O   UNL     1      34.123 -13.463 -23.081  0.00  0.00    -0.456 OA
ATOM      3  C   UNL     1      33.995 -14.769 -22.813  0.00  0.00    +0.147 C 
ATOM      4  C   UNL     1      33.825 -13.338 -24.404  0.00  0.00    +0.141 C 
ATOM      5  C   UNL     1      33.511 -14.580 -24.945  0.00  0.00    +0.037 C 
ATOM      6  C   UNL     1      33.631 -15.508 -23.878  0.00  0.00    +0.038 C 
ATOM      7  C   UNL     1      33.826 -12.146 -25.128  0.00  0.00    +0.012 C 
ATOM      8  C   UNL     1      33.172 -14.652 -26.309  0.00  0.00    +0.003 C 
ATOM      9  C   UNL     1      33.487 -12.242 -26.481  0.00  0.00    -0.001 C 
ATOM     10  C   UNL     1      33.166 -13.471 -27.063  0.00  0.00    -0.000 C 
BRANCH   7  11
ATOM     11  C   UNL     1      34.163 -10.826 -24.528  0.00  0.00    +0.029 C 
ATOM     12  C   UNL     1      35.283 -10.113 -25.280  0.00  0.00    +0.005 C 
ENDBRANCH   7  11
ENDBRANCH   1   3
BRANCH   1  13
ATOM     13  O   UNL     1      33.447 -14.363 -20.530  0.00  0.00    -0.379 OA
ATOM     14  H   UNL     1      33.584 -14.625 -19.606  0.00  0.00    +0.211 HD
ENDBRANCH   1  13
BRANCH   1  15
ATOM     15  C   UNL     1      34.041 -16.642 -21.129  0.00  0.00    -0.044 C 
BRANCH  15  16
ATOM     16  N   UNL     1      35.275 -17.314 -20.764  0.00  0.00    +0.388 N 
ATOM     17  H   UNL     1      36.068 -16.741 -21.054  0.00  0.00    -0.084 HD
ATOM     18  H   UNL     1      35.289 -17.450 -19.753  0.00  0.00    -0.084 HD
BRANCH  16  19
ATOM     19  C   UNL     1      35.362 -18.624 -21.418  0.00  0.00    -0.046 C 
ATOM     20  C   UNL     1      36.475 -19.433 -20.745  0.00  0.00    -0.022 C 
ATOM     21  C   UNL     1      34.018 -19.341 -21.255  0.00  0.00    -0.022 C 
ATOM     22  C   UNL     1      35.678 -18.430 -22.905  0.00  0.00    -0.022 C 
ENDBRANCH  16  19
ENDBRANCH  15  16
ENDBRANCH   1  15
TORSDOF 6
ENDMDL
MODEL 2
REMARK VINA RESULT:      -8.3      1.811      2.725
REMARK  Name = 71733
REMARK  6 active torsions:
REMARK  status: ('A' for Active; 'I' for Inactive)
REMARK    1  A    between atoms: C_1  and  C_3
REMARK    2  A    between atoms: C_1  and  O_13
REMARK    3  A    between atoms: C_1  and  C_15
REMARK    4  A    between atoms: C_7  and  C_11
REMARK    5  A    between atoms: C_15  and  N_16
REMARK    6  A    between atoms: N_16  and  C_19
REMARK                            x       y       z     vdW  Elec       q    Type
REMARK                         _______ _______ _______ _____ _____    ______ ____
ROOT
ATOM      1  C   UNL     1      34.320 -15.990 -22.863  0.00  0.00    +0.146 C 
ENDROOT
BRANCH   1   3
ATOM      2  O   UNL     1      34.032 -13.687 -23.479  0.00  0.00    -0.456 OA
ATOM      3  C   UNL     1      33.617 -14.666 -22.663  0.00  0.00    +0.147 C 
ATOM      4  C   UNL     1      33.285 -12.599 -23.141  0.00  0.00    +0.141 C 
ATOM      5  C   UNL     1      32.408 -12.920 -22.110  0.00  0.00    +0.037 C 
ATOM      6  C   UNL     1      32.645 -14.287 -21.812  0.00  0.00    +0.038 C 
ATOM      7  C   UNL     1      33.372 -11.338 -23.730  0.00  0.00    +0.012 C 
ATOM      8  C   UNL     1      31.550 -11.917 -21.623  0.00  0.00    +0.003 C 
ATOM      9  C   UNL     1      32.510 -10.358 -23.231  0.00  0.00    -0.001 C 
ATOM     10  C   UNL     1      31.614 -10.640 -22.196  0.00  0.00    -0.000 C 
BRANCH   7  11
ATOM     11  C   UNL     1      34.321 -11.016 -24.832  0.00  0.00    +0.029 C 
ATOM     12  C   UNL     1      35.073  -9.710 -24.590  0.00  0.00    +0.005 C 
ENDBRANCH   7  11
ENDBRANCH   1   3
BRANCH   1  13
ATOM     13  O   UNL     1      35.463 -15.770 -23.687  0.00  0.00    -0.379 OA
ATOM     14  H   UNL     1      36.108 -16.480 -23.544  0.00  0.00    +0.211 HD
ENDBRANCH   1  13
BRANCH   1  15
ATOM     15  C   UNL     1      34.742 -16.611 -21.526  0.00  0.00    -0.044 C 
BRANCH  15  16
ATOM     16  N   UNL     1      33.978 -17.815 -21.250  0.00  0.00    +0.388 N 
ATOM     17  H   UNL     1      33.668 -17.800 -20.278  0.00  0.00    -0.084 HD
ATOM     18  H   UNL     1      33.174 -17.845 -21.875  0.00  0.00    -0.084 HD
BRANCH  16  19
ATOM     19  C   UNL     1      34.799 -19.010 -21.475  0.00  0.00    -0.046 C 
ATOM     20  C   UNL     1      34.259 -20.146 -20.600  0.00  0.00    -0.022 C 
ATOM     21  C   UNL     1      34.701 -19.395 -22.956  0.00  0.00    -0.022 C 
ATOM     22  C   UNL     1      36.254 -18.705 -21.105  0.00  0.00    -0.022 C 
ENDBRANCH  16  19
ENDBRANCH  15  16
ENDBRANCH   1  15
TORSDOF 6
ENDMDL
MODEL 3
REMARK VINA RESULT:      -8.0      5.842     10.889
REMARK  Name = 71733
REMARK  6 active torsions:
REMARK  status: ('A' for Active; 'I' for Inactive)
REMARK    1  A    between atoms: C_1  and  C_3
REMARK    2  A    between atoms: C_1  and  O_13
REMARK    3  A    between atoms: C_1  and  C_15
REMARK    4  A    between atoms: C_7  and  C_11
REMARK    5  A    between atoms: C_15  and  N_16
REMARK    6  A    between atoms: N_16  and  C_19
REMARK                            x       y       z     vdW  Elec       q    Type
REMARK                         _______ _______ _______ _____ _____    ______ ____
ROOT
ATOM      1  C   UNL     1      33.829 -21.999 -19.838  0.00  0.00    +0.146 C 
ENDROOT
BRANCH   1   3
ATOM      2  O   UNL     1      32.294 -22.522 -18.067  0.00  0.00    -0.456 OA
ATOM      3  C   UNL     1      33.584 -22.489 -18.428  0.00  0.00    +0.147 C 
ATOM      4  C   UNL     1      32.293 -22.986 -16.786  0.00  0.00    +0.141 C 
ATOM      5  C   UNL     1      33.594 -23.237 -16.364  0.00  0.00    +0.037 C 
ATOM      6  C   UNL     1      34.427 -22.903 -17.464  0.00  0.00    +0.038 C 
ATOM      7  C   UNL     1      31.162 -23.186 -15.995  0.00  0.00    +0.012 C 
ATOM      8  C   UNL     1      33.795 -23.724 -15.060  0.00  0.00    +0.003 C 
ATOM      9  C   UNL     1      31.385 -23.671 -14.703  0.00  0.00    -0.001 C 
ATOM     10  C   UNL     1      32.677 -23.936 -14.242  0.00  0.00    -0.000 C 
BRANCH   7  11
ATOM     11  C   UNL     1      29.777 -22.909 -16.466  0.00  0.00    +0.029 C 
ATOM     12  C   UNL     1      28.799 -24.018 -16.086  0.00  0.00    +0.005 C 
ENDBRANCH   7  11
ENDBRANCH   1   3
BRANCH   1  13
ATOM     13  O   UNL     1      32.602 -21.482 -20.351  0.00  0.00    -0.379 OA
ATOM     14  H   UNL     1      31.858 -21.977 -19.973  0.00  0.00    +0.211 HD
ENDBRANCH   1  13
BRANCH   1  15
ATOM     15  C   UNL     1      34.917 -20.919 -19.876  0.00  0.00    -0.044 C 
BRANCH  15  16
ATOM     16  N   UNL     1      34.367 -19.645 -20.303  0.00  0.00    +0.388 N 
ATOM     17  H   UNL     1      33.479 -19.805 -20.779  0.00  0.00    -0.084 HD
ATOM     18  H   UNL     1      34.226 -19.056 -19.483  0.00  0.00    -0.084 HD
BRANCH  16  19
ATOM     19  C   UNL     1      35.289 -18.966 -21.221  0.00  0.00    -0.046 C 
ATOM     20  C   UNL     1      34.961 -19.401 -22.653  0.00  0.00    -0.022 C 
ATOM     21  C   UNL     1      35.097 -17.453 -21.074  0.00  0.00    -0.022 C 
ATOM     22  C   UNL     1      36.731 -19.351 -20.870  0.00  0.00    -0.022 C 
ENDBRANCH  16  19
ENDBRANCH  15  16
ENDBRANCH   1  15
TORSDOF 6
ENDMDL
MODEL 4
REMARK VINA RESULT:      -8.0      3.334      6.701
REMARK  Name = 71733
REMARK  6 active torsions:
REMARK  status: ('A' for Active; 'I' for Inactive)
REMARK    1  A    between atoms: C_1  and  C_3
REMARK    2  A    between atoms: C_1  and  O_13
REMARK    3  A    between atoms: C_1  and  C_15
REMARK    4  A    between atoms: C_7  and  C_11
REMARK    5  A    between atoms: C_15  and  N_16
REMARK    6  A    between atoms: N_16  and  C_19
REMARK                            x       y       z     vdW  Elec       q    Type
REMARK                         _______ _______ _______ _____ _____    ______ ____
ROOT
ATOM      1  C   UNL     1      30.959 -11.464 -21.174  0.00  0.00    +0.146 C 
ENDROOT
BRANCH   1   3
ATOM      2  O   UNL     1      32.100 -12.889 -22.735  0.00  0.00    -0.456 OA
ATOM      3  C   UNL     1      31.868 -12.644 -21.438  0.00  0.00    +0.147 C 
ATOM      4  C   UNL     1      32.927 -13.971 -22.752  0.00  0.00    +0.141 C 
ATOM      5  C   UNL     1      33.201 -14.388 -21.454  0.00  0.00    +0.037 C 
ATOM      6  C   UNL     1      32.492 -13.498 -20.605  0.00  0.00    +0.038 C 
ATOM      7  C   UNL     1      33.436 -14.586 -23.896  0.00  0.00    +0.012 C 
ATOM      8  C   UNL     1      34.043 -15.499 -21.270  0.00  0.00    +0.003 C 
ATOM      9  C   UNL     1      34.271 -15.688 -23.688  0.00  0.00    -0.001 C 
ATOM     10  C   UNL     1      34.571 -16.138 -22.399  0.00  0.00    -0.000 C 
BRANCH   7  11
ATOM     11  C   UNL     1      33.128 -14.125 -25.277  0.00  0.00    +0.029 C 
ATOM     12  C   UNL     1      33.077 -15.276 -26.278  0.00  0.00    +0.005 C 
ENDBRANCH   7  11
ENDBRANCH   1   3
BRANCH   1  13
ATOM     13  O   UNL     1      31.283 -10.928 -19.893  0.00  0.00    -0.379 OA
ATOM     14  H   UNL     1      30.653 -11.259 -19.234  0.00  0.00    +0.211 HD
ENDBRANCH   1  13
BRANCH   1  15
ATOM     15  C   UNL     1      31.110 -10.386 -22.255  0.00  0.00    -0.044 C 
BRANCH  15  16
ATOM     16  N   UNL     1      32.488  -9.937 -22.349  0.00  0.00    +0.388 N 
ATOM     17  H   UNL     1      32.995 -10.231 -21.513  0.00  0.00    -0.084 HD
ATOM     18  H   UNL     1      32.912 -10.348 -23.180  0.00  0.00    -0.084 HD
BRANCH  16  19
ATOM     19  C   UNL     1      32.549  -8.476 -22.459  0.00  0.00    -0.046 C 
ATOM     20  C   UNL     1      32.543  -7.879 -21.048  0.00  0.00    -0.022 C 
ATOM     21  C   UNL     1      33.845  -8.095 -23.185  0.00  0.00    -0.022 C 
ATOM     22  C   UNL     1      31.336  -7.974 -23.249  0.00  0.00    -0.022 C 
ENDBRANCH  16  19
ENDBRANCH  15  16
ENDBRANCH   1  15
TORSDOF 6
ENDMDL
MODEL 5
REMARK VINA RESULT:      -7.9      2.551      4.730
REMARK  Name = 71733
REMARK  6 active torsions:
REMARK  status: ('A' for Active; 'I' for Inactive)
REMARK    1  A    between atoms: C_1  and  C_3
REMARK    2  A    between atoms: C_1  and  O_13
REMARK    3  A    between atoms: C_1  and  C_15
REMARK    4  A    between atoms: C_7  and  C_11
REMARK    5  A    between atoms: C_15  and  N_16
REMARK    6  A    between atoms: N_16  and  C_19
REMARK                            x       y       z     vdW  Elec       q    Type
REMARK                         _______ _______ _______ _____ _____    ______ ____
ROOT
ATOM      1  C   UNL     1      33.237 -13.385 -24.771  0.00  0.00    +0.146 C 
ENDROOT
BRANCH   1   3
ATOM      2  O   UNL     1      32.871 -11.389 -23.487  0.00  0.00    -0.456 OA
ATOM      3  C   UNL     1      33.585 -11.942 -24.477  0.00  0.00    +0.147 C 
ATOM      4  C   UNL     1      33.333 -10.112 -23.383  0.00  0.00    +0.141 C 
ATOM      5  C   UNL     1      34.337  -9.886 -24.319  0.00  0.00    +0.037 C 
ATOM      6  C   UNL     1      34.485 -11.107 -25.027  0.00  0.00    +0.038 C 
ATOM      7  C   UNL     1      32.878  -9.154 -22.477  0.00  0.00    +0.012 C 
ATOM      8  C   UNL     1      34.939  -8.616 -24.364  0.00  0.00    +0.003 C 
ATOM      9  C   UNL     1      33.491  -7.899 -22.540  0.00  0.00    -0.001 C 
ATOM     10  C   UNL     1      34.503  -7.633 -23.466  0.00  0.00    -0.000 C 
BRANCH   7  11
ATOM     11  C   UNL     1      31.800  -9.417 -21.485  0.00  0.00    +0.029 C 
ATOM     12  C   UNL     1      32.182  -8.967 -20.077  0.00  0.00    +0.005 C 
ENDBRANCH   7  11
ENDBRANCH   1   3
BRANCH   1  13
ATOM     13  O   UNL     1      33.298 -13.579 -26.183  0.00  0.00    -0.379 OA
ATOM     14  H   UNL     1      32.481 -13.253 -26.591  0.00  0.00    +0.211 HD
ENDBRANCH   1  13
BRANCH   1  15
ATOM     15  C   UNL     1      34.194 -14.350 -24.061  0.00  0.00    -0.044 C 
BRANCH  15  16
ATOM     16  N   UNL     1      34.367 -13.976 -22.668  0.00  0.00    +0.388 N 
ATOM     17  H   UNL     1      35.349 -13.753 -22.500  0.00  0.00    -0.084 HD
ATOM     18  H   UNL     1      33.783 -13.164 -22.471  0.00  0.00    -0.084 HD
BRANCH  16  19
ATOM     19  C   UNL     1      33.966 -15.075 -21.784  0.00  0.00    -0.046 C 
ATOM     20  C   UNL     1      34.353 -16.401 -22.447  0.00  0.00    -0.022 C 
ATOM     21  C   UNL     1      34.701 -14.920 -20.449  0.00  0.00    -0.022 C 
ATOM     22  C   UNL     1      32.451 -15.021 -21.561  0.00  0.00    -0.022 C 
ENDBRANCH  16  19
ENDBRANCH  15  16
ENDBRANCH   1  15
TORSDOF 6
ENDMDL
MODEL 6
REMARK VINA RESULT:      -7.9      2.498      3.706
REMARK  Name = 71733
REMARK  6 active torsions:
REMARK  status: ('A' for Active; 'I' for Inactive)
REMARK    1  A    between atoms: C_1  and  C_3
REMARK    2  A    between atoms: C_1  and  O_13
REMARK    3  A    between atoms: C_1  and  C_15
REMARK    4  A    between atoms: C_7  and  C_11
REMARK    5  A    between atoms: C_15  and  N_16
REMARK    6  A    between atoms: N_16  and  C_19
REMARK                            x       y       z     vdW  Elec       q    Type
REMARK                         _______ _______ _______ _____ _____    ______ ____
ROOT
ATOM      1  C   UNL     1      33.494 -15.163 -23.589  0.00  0.00    +0.146 C 
ENDROOT
BRANCH   1   3
ATOM      2  O   UNL     1      32.472 -13.216 -22.624  0.00  0.00    -0.456 OA
ATOM      3  C   UNL     1      33.333 -13.659 -23.550  0.00  0.00    +0.147 C 
ATOM      4  C   UNL     1      32.476 -11.860 -22.753  0.00  0.00    +0.141 C 
ATOM      5  C   UNL     1      33.347 -11.475 -23.767  0.00  0.00    +0.037 C 
ATOM      6  C   UNL     1      33.900 -12.678 -24.277  0.00  0.00    +0.038 C 
ATOM      7  C   UNL     1      31.721 -10.969 -21.990  0.00  0.00    +0.012 C 
ATOM      8  C   UNL     1      33.484 -10.104 -24.049  0.00  0.00    +0.003 C 
ATOM      9  C   UNL     1      31.875  -9.611 -22.288  0.00  0.00    -0.001 C 
ATOM     10  C   UNL     1      32.740  -9.185 -23.298  0.00  0.00    -0.000 C 
BRANCH   7  11
ATOM     11  C   UNL     1      30.793 -11.403 -20.910  0.00  0.00    +0.029 C 
ATOM     12  C   UNL     1      31.342 -11.109 -19.516  0.00  0.00    +0.005 C 
ENDBRANCH   7  11
ENDBRANCH   1   3
BRANCH   1  13
ATOM     13  O   UNL     1      33.859 -15.539 -24.916  0.00  0.00    -0.379 OA
ATOM     14  H   UNL     1      33.119 -15.365 -25.518  0.00  0.00    +0.211 HD
ENDBRANCH   1  13
BRANCH   1  15
ATOM     15  C   UNL     1      34.555 -15.641 -22.591  0.00  0.00    -0.044 C 
BRANCH  15  16
ATOM     16  N   UNL     1      35.451 -16.602 -23.208  0.00  0.00    +0.388 N 
ATOM     17  H   UNL     1      35.246 -16.659 -24.206  0.00  0.00    -0.084 HD
ATOM     18  H   UNL     1      36.413 -16.296 -23.064  0.00  0.00    -0.084 HD
BRANCH  16  19
ATOM     19  C   UNL     1      35.281 -17.929 -22.605  0.00  0.00    -0.046 C 
ATOM     20  C   UNL     1      34.333 -17.803 -21.408  0.00  0.00    -0.022 C 
ATOM     21  C   UNL     1      34.679 -18.868 -23.656  0.00  0.00    -0.022 C 
ATOM     22  C   UNL     1      36.643 -18.458 -22.145  0.00  0.00    -0.022 C 
ENDBRANCH  16  19
ENDBRANCH  15  16
ENDBRANCH   1  15
TORSDOF 6
ENDMDL
MODEL 7
REMARK VINA RESULT:      -7.9      3.716      6.283
REMARK  Name = 71733
REMARK  6 active torsions:
REMARK  status: ('A' for Active; 'I' for Inactive)
REMARK    1  A    between atoms: C_1  and  C_3
REMARK    2  A    between atoms: C_1  and  O_13
REMARK    3  A    between atoms: C_1  and  C_15
REMARK    4  A    between atoms: C_7  and  C_11
REMARK    5  A    between atoms: C_15  and  N_16
REMARK    6  A    between atoms: N_16  and  C_19
REMARK                            x       y       z     vdW  Elec       q    Type
REMARK                         _______ _______ _______ _____ _____    ______ ____
ROOT
ATOM      1  C   UNL     1      33.946 -10.789 -24.958  0.00  0.00    +0.146 C 
ENDROOT
BRANCH   1   3
ATOM      2  O   UNL     1      32.843 -10.370 -22.867  0.00  0.00    -0.456 OA
ATOM      3  C   UNL     1      33.551  -9.822 -23.863  0.00  0.00    +0.147 C 
ATOM      4  C   UNL     1      32.596  -9.348 -22.001  0.00  0.00    +0.141 C 
ATOM      5  C   UNL     1      33.158  -8.168 -22.475  0.00  0.00    +0.037 C 
ATOM      6  C   UNL     1      33.783  -8.506 -23.704  0.00  0.00    +0.038 C 
ATOM      7  C   UNL     1      31.883  -9.450 -20.806  0.00  0.00    +0.012 C 
ATOM      8  C   UNL     1      33.005  -6.997 -21.712  0.00  0.00    +0.003 C 
ATOM      9  C   UNL     1      31.744  -8.273 -20.064  0.00  0.00    -0.001 C 
ATOM     10  C   UNL     1      32.294  -7.068 -20.506  0.00  0.00    -0.000 C 
BRANCH   7  11
ATOM     11  C   UNL     1      31.286 -10.724 -20.318  0.00  0.00    +0.029 C 
ATOM     12  C   UNL     1      31.334 -10.843 -18.796  0.00  0.00    +0.005 C 
ENDBRANCH   7  11
ENDBRANCH   1   3
BRANCH   1  13
ATOM     13  O   UNL     1      35.365 -10.744 -25.104  0.00  0.00    -0.379 OA
ATOM     14  H   UNL     1      35.650  -9.824 -25.221  0.00  0.00    +0.211 HD
ENDBRANCH   1  13
BRANCH   1  15
ATOM     15  C   UNL     1      33.490 -12.218 -24.638  0.00  0.00    -0.044 C 
BRANCH  15  16
ATOM     16  N   UNL     1      34.286 -12.787 -23.564  0.00  0.00    +0.388 N 
ATOM     17  H   UNL     1      35.225 -12.985 -23.912  0.00  0.00    -0.084 HD
ATOM     18  H   UNL     1      34.329 -12.118 -22.796  0.00  0.00    -0.084 HD
BRANCH  16  19
ATOM     19  C   UNL     1      33.681 -14.030 -23.077  0.00  0.00    -0.046 C 
ATOM     20  C   UNL     1      32.339 -13.695 -22.419  0.00  0.00    -0.022 C 
ATOM     21  C   UNL     1      33.462 -14.967 -24.270  0.00  0.00    -0.022 C 
ATOM     22  C   UNL     1      34.618 -14.687 -22.057  0.00  0.00    -0.022 C 
ENDBRANCH  16  19
ENDBRANCH  15  16
ENDBRANCH   1  15
TORSDOF 6
ENDMDL
MODEL 8
REMARK VINA RESULT:      -7.9     11.573     13.700
REMARK  Name = 71733
REMARK  6 active torsions:
REMARK  status: ('A' for Active; 'I' for Inactive)
REMARK    1  A    between atoms: C_1  and  C_3
REMARK    2  A    between atoms: C_1  and  O_13
REMARK    3  A    between atoms: C_1  and  C_15
REMARK    4  A    between atoms: C_7  and  C_11
REMARK    5  A    between atoms: C_15  and  N_16
REMARK    6  A    between atoms: N_16  and  C_19
REMARK                            x       y       z     vdW  Elec       q    Type
REMARK                         _______ _______ _______ _____ _____    ______ ____
ROOT
ATOM      1  C   UNL     1      35.779 -24.552 -12.254  0.00  0.00    +0.146 C 
ENDROOT
BRANCH   1   3
ATOM      2  O   UNL     1      33.625 -24.352 -13.297  0.00  0.00    -0.456 OA
ATOM      3  C   UNL     1      34.944 -24.182 -13.460  0.00  0.00    +0.147 C 
ATOM      4  C   UNL     1      33.066 -23.966 -14.478  0.00  0.00    +0.141 C 
ATOM      5  C   UNL     1      34.054 -23.558 -15.367  0.00  0.00    +0.037 C 
ATOM      6  C   UNL     1      35.283 -23.708 -14.674  0.00  0.00    +0.038 C 
ATOM      7  C   UNL     1      31.703 -23.974 -14.772  0.00  0.00    +0.012 C 
ATOM      8  C   UNL     1      33.667 -23.122 -16.647  0.00  0.00    +0.003 C 
ATOM      9  C   UNL     1      31.341 -23.535 -16.050  0.00  0.00    -0.001 C 
ATOM     10  C   UNL     1      32.304 -23.117 -16.972  0.00  0.00    -0.000 C 
BRANCH   7  11
ATOM     11  C   UNL     1      30.661 -24.417 -13.805  0.00  0.00    +0.029 C 
ATOM     12  C   UNL     1      29.485 -25.106 -14.492  0.00  0.00    +0.005 C 
ENDBRANCH   7  11
ENDBRANCH   1   3
BRANCH   1  13
ATOM     13  O   UNL     1      34.913 -25.097 -11.261  0.00  0.00    -0.379 OA
ATOM     14  H   UNL     1      34.692 -26.014 -11.490  0.00  0.00    +0.211 HD
ENDBRANCH   1  13
BRANCH   1  15
ATOM     15  C   UNL     1      36.873 -25.564 -12.618  0.00  0.00    -0.044 C 
BRANCH  15  16
ATOM     16  N   UNL     1      38.123 -24.889 -12.919  0.00  0.00    +0.388 N 
ATOM     17  H   UNL     1      37.959 -23.883 -12.963  0.00  0.00    -0.084 HD
ATOM     18  H   UNL     1      38.798 -25.103 -12.185  0.00  0.00    -0.084 HD
BRANCH  16  19
ATOM     19  C   UNL     1      38.661 -25.346 -14.205  0.00  0.00    -0.046 C 
ATOM     20  C   UNL     1      37.820 -26.531 -14.692  0.00  0.00    -0.022 C 
ATOM     21  C   UNL     1      38.572 -24.191 -15.208  0.00  0.00    -0.022 C 
ATOM     22  C   UNL     1      40.120 -25.775 -14.023  0.00  0.00    -0.022 C 
ENDBRANCH  16  19
ENDBRANCH  15  16
ENDBRANCH   1  15
TORSDOF 6
ENDMDL
MODEL 9
REMARK VINA RESULT:      -7.9      3.548      7.178
REMARK  Name = 71733
REMARK  6 active torsions:
REMARK  status: ('A' for Active; 'I' for Inactive)
REMARK    1  A    between atoms: C_1  and  C_3
REMARK    2  A    between atoms: C_1  and  O_13
REMARK    3  A    between atoms: C_1  and  C_15
REMARK    4  A    between atoms: C_7  and  C_11
REMARK    5  A    between atoms: C_15  and  N_16
REMARK    6  A    between atoms: N_16  and  C_19
REMARK                            x       y       z     vdW  Elec       q    Type
REMARK                         _______ _______ _______ _____ _____    ______ ____
ROOT
ATOM      1  C   UNL     1      31.393 -11.616 -22.351  0.00  0.00    +0.146 C 
ENDROOT
BRANCH   1   3
ATOM      2  O   UNL     1      32.625 -13.559 -23.038  0.00  0.00    -0.456 OA
ATOM      3  C   UNL     1      32.210 -12.837 -21.989  0.00  0.00    +0.147 C 
ATOM      4  C   UNL     1      33.332 -14.594 -22.503  0.00  0.00    +0.141 C 
ATOM      5  C   UNL     1      33.346 -14.500 -21.115  0.00  0.00    +0.037 C 
ATOM      6  C   UNL     1      32.600 -13.334 -20.800  0.00  0.00    +0.038 C 
ATOM      7  C   UNL     1      33.956 -15.611 -23.225  0.00  0.00    +0.012 C 
ATOM      8  C   UNL     1      34.030 -15.486 -20.383  0.00  0.00    +0.003 C 
ATOM      9  C   UNL     1      34.631 -16.579 -22.476  0.00  0.00    -0.001 C 
ATOM     10  C   UNL     1      34.669 -16.520 -21.080  0.00  0.00    -0.000 C 
BRANCH   7  11
ATOM     11  C   UNL     1      33.927 -15.693 -24.711  0.00  0.00    +0.029 C 
ATOM     12  C   UNL     1      34.648 -16.930 -25.240  0.00  0.00    +0.005 C 
ENDBRANCH   7  11
ENDBRANCH   1   3
BRANCH   1  13
ATOM     13  O   UNL     1      30.388 -11.439 -21.354  0.00  0.00    -0.379 OA
ATOM     14  H   UNL     1      30.149 -10.501 -21.297  0.00  0.00    +0.211 HD
ENDBRANCH   1  13
BRANCH   1  15
ATOM     15  C   UNL     1      32.271 -10.361 -22.447  0.00  0.00    -0.044 C 
BRANCH  15  16
ATOM     16  N   UNL     1      31.456  -9.172 -22.618  0.00  0.00    +0.388 N 
ATOM     17  H   UNL     1      31.291  -9.018 -23.613  0.00  0.00    -0.084 HD
ATOM     18  H   UNL     1      30.570  -9.307 -22.131  0.00  0.00    -0.084 HD
BRANCH  16  19
ATOM     19  C   UNL     1      32.132  -7.998 -22.055  0.00  0.00    -0.046 C 
ATOM     20  C   UNL     1      31.257  -6.764 -22.304  0.00  0.00    -0.022 C 
ATOM     21  C   UNL     1      32.315  -8.216 -20.549  0.00  0.00    -0.022 C 
ATOM     22  C   UNL     1      33.495  -7.822 -22.732  0.00  0.00    -0.022 C 
ENDBRANCH  16  19
ENDBRANCH  15  16
ENDBRANCH   1  15
TORSDOF 6
ENDMDL
