MODEL 1
REMARK VINA RESULT:     -10.1      0.000      0.000
REMARK  Name = 11987861
REMARK  10 active torsions:
REMARK  status: ('A' for Active; 'I' for Inactive)
REMARK    1  A    between atoms: C_1  and  O_2
REMARK    2  A    between atoms: C_1  and  C_15
REMARK    3  A    between atoms: O_2  and  N_3
REMARK    4  A    between atoms: N_3  and  C_4
REMARK    5  A    between atoms: C_15  and  O_16
REMARK    6  A    between atoms: O_16  and  N_17
REMARK    7  A    between atoms: N_17  and  C_18
REMARK    8  A    between atoms: C_18  and  C_19
REMARK    9  A    between atoms: C_20  and  C_26
REMARK   10  A    between atoms: C_26  and  O_27
REMARK                            x       y       z     vdW  Elec       q    Type
REMARK                         _______ _______ _______ _____ _____    ______ ____
ROOT
ATOM      1  C   UNL     1      33.792 -23.572 -15.758  0.00  0.00    +0.210 C 
ENDROOT
BRANCH   1   2
ATOM      2  O   UNL     1      35.139 -23.955 -15.997  0.00  0.00    -0.233 OA
BRANCH   2   3
ATOM      3  N   UNL     1      35.970 -22.909 -15.572  0.00  0.00    -0.129 NA
BRANCH   3   4
ATOM      4  C   UNL     1      37.202 -23.267 -15.731  0.00  0.00    +0.138 C 
ATOM      5  O   UNL     1      36.998 -26.298 -12.101  0.00  0.00    -0.252 OA
ATOM      6  O   UNL     1      40.968 -25.890 -14.435  0.00  0.00    -0.274 OA
ATOM      7  N   UNL     1      37.129 -24.832 -13.871  0.00  0.00    -0.270 N 
ATOM      8  N   UNL     1      38.990 -26.111 -13.253  0.00  0.00    -0.239 N 
ATOM      9  C   UNL     1      37.856 -24.260 -14.880  0.00  0.00    +0.059 C 
ATOM     10  C   UNL     1      39.133 -24.570 -15.117  0.00  0.00    +0.128 C 
ATOM     11  C   UNL     1      37.652 -25.784 -13.008  0.00  0.00    +0.310 C 
ATOM     12  C   UNL     1      39.794 -25.578 -14.252  0.00  0.00    +0.235 C 
ATOM     13  H   UNL     1      36.191 -24.556 -13.753  0.00  0.00    +0.156 HD
ATOM     14  H   UNL     1      39.400 -26.783 -12.661  0.00  0.00    +0.159 HD
ENDBRANCH   3   4
ENDBRANCH   2   3
ENDBRANCH   1   2
BRANCH   1  15
ATOM     15  C   UNL     1      33.131 -23.241 -17.082  0.00  0.00    +0.203 C 
BRANCH  15  16
ATOM     16  O   UNL     1      33.799 -23.943 -18.123  0.00  0.00    -0.263 OA
BRANCH  16  17
ATOM     17  N   UNL     1      33.854 -23.104 -19.243  0.00  0.00    -0.079 NA
BRANCH  17  18
ATOM     18  C   UNL     1      34.878 -22.325 -19.122  0.00  0.00    +0.148 C 
BRANCH  18  19
ATOM     19  C   UNL     1      34.996 -21.060 -19.866  0.00  0.00    -0.002 C 
ATOM     20  C   UNL     1      35.215 -18.678 -21.266  0.00  0.00    +0.075 C 
ATOM     21  C   UNL     1      33.847 -20.428 -20.315  0.00  0.00    -0.003 C 
ATOM     22  C   UNL     1      36.252 -20.525 -20.103  0.00  0.00    -0.003 C 
ATOM     23  C   UNL     1      33.957 -19.228 -21.020  0.00  0.00    +0.006 C 
ATOM     24  C   UNL     1      36.363 -19.327 -20.809  0.00  0.00    +0.006 C 
BRANCH  20  26
ATOM     25  O   UNL     1      34.845 -16.346 -21.656  0.00  0.00    -0.245 OA
ATOM     26  C   UNL     1      35.331 -17.429 -22.002  0.00  0.00    +0.338 C 
BRANCH  26  27
ATOM     27  O   UNL     1      36.051 -17.564 -23.149  0.00  0.00    -0.477 OA
ATOM     28  H   UNL     1      35.615 -17.562 -23.979  0.00  0.00    +0.295 HD
ENDBRANCH  26  27
ENDBRANCH  20  26
ENDBRANCH  18  19
ENDBRANCH  17  18
ENDBRANCH  16  17
ENDBRANCH  15  16
ENDBRANCH   1  15
TORSDOF 10
ENDMDL
MODEL 2
REMARK VINA RESULT:      -9.9      1.765      2.275
REMARK  Name = 11987861
REMARK  10 active torsions:
REMARK  status: ('A' for Active; 'I' for Inactive)
REMARK    1  A    between atoms: C_1  and  O_2
REMARK    2  A    between atoms: C_1  and  C_15
REMARK    3  A    between atoms: O_2  and  N_3
REMARK    4  A    between atoms: N_3  and  C_4
REMARK    5  A    between atoms: C_15  and  O_16
REMARK    6  A    between atoms: O_16  and  N_17
REMARK    7  A    between atoms: N_17  and  C_18
REMARK    8  A    between atoms: C_18  and  C_19
REMARK    9  A    between atoms: C_20  and  C_26
REMARK   10  A    between atoms: C_26  and  O_27
REMARK                            x       y       z     vdW  Elec       q    Type
REMARK                         _______ _______ _______ _____ _____    ______ ____
ROOT
ATOM      1  C   UNL     1      32.947 -24.262 -14.277  0.00  0.00    +0.210 C 
ENDROOT
BRANCH   1   2
ATOM      2  O   UNL     1      33.659 -23.638 -13.219  0.00  0.00    -0.233 OA
BRANCH   2   3
ATOM      3  N   UNL     1      34.254 -24.642 -12.442  0.00  0.00    -0.129 NA
BRANCH   3   4
ATOM      4  C   UNL     1      35.516 -24.388 -12.330  0.00  0.00    +0.138 C 
ATOM      5  O   UNL     1      36.598 -27.092 -16.061  0.00  0.00    -0.252 OA
ATOM      6  O   UNL     1      40.013 -24.925 -13.823  0.00  0.00    -0.274 OA
ATOM      7  N   UNL     1      36.103 -25.770 -14.242  0.00  0.00    -0.270 N 
ATOM      8  N   UNL     1      38.319 -26.019 -14.959  0.00  0.00    -0.239 N 
ATOM      9  C   UNL     1      36.521 -24.943 -13.235  0.00  0.00    +0.059 C 
ATOM     10  C   UNL     1      37.805 -24.625 -13.045  0.00  0.00    +0.128 C 
ATOM     11  C   UNL     1      36.974 -26.349 -15.155  0.00  0.00    +0.310 C 
ATOM     12  C   UNL     1      38.822 -25.191 -13.965  0.00  0.00    +0.235 C 
ATOM     13  H   UNL     1      35.141 -25.961 -14.324  0.00  0.00    +0.156 HD
ATOM     14  H   UNL     1      38.969 -26.411 -15.585  0.00  0.00    +0.159 HD
ENDBRANCH   3   4
ENDBRANCH   2   3
ENDBRANCH   1   2
BRANCH   1  15
ATOM     15  C   UNL     1      33.252 -23.536 -15.573  0.00  0.00    +0.203 C 
BRANCH  15  16
ATOM     16  O   UNL     1      34.452 -24.061 -16.128  0.00  0.00    -0.263 OA
BRANCH  16  17
ATOM     17  N   UNL     1      34.965 -23.113 -17.022  0.00  0.00    -0.079 NA
BRANCH  17  18
ATOM     18  C   UNL     1      34.066 -22.867 -17.919  0.00  0.00    +0.148 C 
BRANCH  18  19
ATOM     19  C   UNL     1      34.257 -21.847 -18.964  0.00  0.00    -0.002 C 
ATOM     20  C   UNL     1      34.615 -19.926 -20.929  0.00  0.00    +0.075 C 
ATOM     21  C   UNL     1      33.148 -21.228 -19.519  0.00  0.00    -0.003 C 
ATOM     22  C   UNL     1      35.542 -21.525 -19.372  0.00  0.00    -0.003 C 
ATOM     23  C   UNL     1      33.328 -20.260 -20.508  0.00  0.00    +0.006 C 
ATOM     24  C   UNL     1      35.722 -20.558 -20.362  0.00  0.00    +0.006 C 
BRANCH  20  26
ATOM     25  O   UNL     1      34.595 -19.084 -23.168  0.00  0.00    -0.245 OA
ATOM     26  C   UNL     1      34.804 -18.919 -21.961  0.00  0.00    +0.338 C 
BRANCH  26  27
ATOM     27  O   UNL     1      35.246 -17.734 -21.460  0.00  0.00    -0.477 OA
ATOM     28  H   UNL     1      35.516 -17.050 -22.042  0.00  0.00    +0.295 HD
ENDBRANCH  26  27
ENDBRANCH  20  26
ENDBRANCH  18  19
ENDBRANCH  17  18
ENDBRANCH  16  17
ENDBRANCH  15  16
ENDBRANCH   1  15
TORSDOF 10
ENDMDL
MODEL 3
REMARK VINA RESULT:      -9.8      5.631     11.423
REMARK  Name = 11987861
REMARK  10 active torsions:
REMARK  status: ('A' for Active; 'I' for Inactive)
REMARK    1  A    between atoms: C_1  and  O_2
REMARK    2  A    between atoms: C_1  and  C_15
REMARK    3  A    between atoms: O_2  and  N_3
REMARK    4  A    between atoms: N_3  and  C_4
REMARK    5  A    between atoms: C_15  and  O_16
REMARK    6  A    between atoms: O_16  and  N_17
REMARK    7  A    between atoms: N_17  and  C_18
REMARK    8  A    between atoms: C_18  and  C_19
REMARK    9  A    between atoms: C_20  and  C_26
REMARK   10  A    between atoms: C_26  and  O_27
REMARK                            x       y       z     vdW  Elec       q    Type
REMARK                         _______ _______ _______ _____ _____    ______ ____
ROOT
ATOM      1  C   UNL     1      34.340 -17.776 -25.103  0.00  0.00    +0.210 C 
ENDROOT
BRANCH   1   2
ATOM      2  O   UNL     1      34.650 -16.591 -25.823  0.00  0.00    -0.233 OA
BRANCH   2   3
ATOM      3  N   UNL     1      33.445 -16.011 -26.244  0.00  0.00    -0.129 NA
BRANCH   3   4
ATOM      4  C   UNL     1      33.540 -14.727 -26.131  0.00  0.00    +0.138 C 
ATOM      5  O   UNL     1      32.459 -14.854 -21.524  0.00  0.00    -0.252 OA
ATOM      6  O   UNL     1      33.306 -10.759 -23.496  0.00  0.00    -0.274 OA
ATOM      7  N   UNL     1      32.987 -14.759 -23.763  0.00  0.00    -0.270 N 
ATOM      8  N   UNL     1      32.879 -12.798 -22.488  0.00  0.00    -0.239 N 
ATOM      9  C   UNL     1      33.315 -14.023 -24.869  0.00  0.00    +0.059 C 
ATOM     10  C   UNL     1      33.436 -12.693 -24.843  0.00  0.00    +0.128 C 
ATOM     11  C   UNL     1      32.754 -14.191 -22.519  0.00  0.00    +0.310 C 
ATOM     12  C   UNL     1      33.207 -11.982 -23.561  0.00  0.00    +0.235 C 
ATOM     13  H   UNL     1      32.915 -15.737 -23.854  0.00  0.00    +0.156 HD
ATOM     14  H   UNL     1      32.720 -12.356 -21.623  0.00  0.00    +0.159 HD
ENDBRANCH   3   4
ENDBRANCH   2   3
ENDBRANCH   1   2
BRANCH   1  15
ATOM     15  C   UNL     1      35.314 -17.921 -23.949  0.00  0.00    +0.203 C 
BRANCH  15  16
ATOM     16  O   UNL     1      35.198 -16.785 -23.099  0.00  0.00    -0.263 OA
BRANCH  16  17
ATOM     17  N   UNL     1      35.197 -17.237 -21.774  0.00  0.00    -0.079 NA
BRANCH  17  18
ATOM     18  C   UNL     1      35.706 -18.425 -21.744  0.00  0.00    +0.148 C 
BRANCH  18  19
ATOM     19  C   UNL     1      35.103 -19.519 -20.964  0.00  0.00    -0.002 C 
ATOM     20  C   UNL     1      33.971 -21.578 -19.494  0.00  0.00    +0.075 C 
ATOM     21  C   UNL     1      35.929 -20.423 -20.313  0.00  0.00    -0.003 C 
ATOM     22  C   UNL     1      33.723 -19.624 -20.895  0.00  0.00    -0.003 C 
ATOM     23  C   UNL     1      35.358 -21.459 -19.573  0.00  0.00    +0.006 C 
ATOM     24  C   UNL     1      33.153 -20.661 -20.156  0.00  0.00    +0.006 C 
BRANCH  20  26
ATOM     25  O   UNL     1      33.847 -23.795 -18.604  0.00  0.00    -0.245 OA
ATOM     26  C   UNL     1      33.376 -22.659 -18.725  0.00  0.00    +0.338 C 
BRANCH  26  27
ATOM     27  O   UNL     1      32.210 -22.292 -18.126  0.00  0.00    -0.477 OA
ATOM     28  H   UNL     1      32.217 -21.656 -17.437  0.00  0.00    +0.295 HD
ENDBRANCH  26  27
ENDBRANCH  20  26
ENDBRANCH  18  19
ENDBRANCH  17  18
ENDBRANCH  16  17
ENDBRANCH  15  16
ENDBRANCH   1  15
TORSDOF 10
ENDMDL
MODEL 4
REMARK VINA RESULT:      -9.5      2.293      3.616
REMARK  Name = 11987861
REMARK  10 active torsions:
REMARK  status: ('A' for Active; 'I' for Inactive)
REMARK    1  A    between atoms: C_1  and  O_2
REMARK    2  A    between atoms: C_1  and  C_15
REMARK    3  A    between atoms: O_2  and  N_3
REMARK    4  A    between atoms: N_3  and  C_4
REMARK    5  A    between atoms: C_15  and  O_16
REMARK    6  A    between atoms: O_16  and  N_17
REMARK    7  A    between atoms: N_17  and  C_18
REMARK    8  A    between atoms: C_18  and  C_19
REMARK    9  A    between atoms: C_20  and  C_26
REMARK   10  A    between atoms: C_26  and  O_27
REMARK                            x       y       z     vdW  Elec       q    Type
REMARK                         _______ _______ _______ _____ _____    ______ ____
ROOT
ATOM      1  C   UNL     1      36.482 -21.484 -18.344  0.00  0.00    +0.210 C 
ENDROOT
BRANCH   1   2
ATOM      2  O   UNL     1      36.198 -22.493 -17.385  0.00  0.00    -0.233 OA
BRANCH   2   3
ATOM      3  N   UNL     1      37.201 -22.457 -16.407  0.00  0.00    -0.129 NA
BRANCH   3   4
ATOM      4  C   UNL     1      36.771 -23.062 -15.348  0.00  0.00    +0.138 C 
ATOM      5  O   UNL     1      40.482 -25.999 -15.274  0.00  0.00    -0.252 OA
ATOM      6  O   UNL     1      37.256 -26.411 -11.989  0.00  0.00    -0.274 OA
ATOM      7  N   UNL     1      38.665 -24.585 -15.283  0.00  0.00    -0.270 N 
ATOM      8  N   UNL     1      38.883 -26.222 -13.624  0.00  0.00    -0.239 N 
ATOM      9  C   UNL     1      37.488 -24.171 -14.721  0.00  0.00    +0.059 C 
ATOM     10  C   UNL     1      36.970 -24.737 -13.628  0.00  0.00    +0.128 C 
ATOM     11  C   UNL     1      39.423 -25.627 -14.768  0.00  0.00    +0.310 C 
ATOM     12  C   UNL     1      37.700 -25.862 -12.994  0.00  0.00    +0.235 C 
ATOM     13  H   UNL     1      38.989 -24.122 -16.090  0.00  0.00    +0.156 HD
ATOM     14  H   UNL     1      39.391 -26.967 -13.227  0.00  0.00    +0.159 HD
ENDBRANCH   3   4
ENDBRANCH   2   3
ENDBRANCH   1   2
BRANCH   1  15
ATOM     15  C   UNL     1      35.539 -21.643 -19.522  0.00  0.00    +0.203 C 
BRANCH  15  16
ATOM     16  O   UNL     1      36.017 -20.859 -20.608  0.00  0.00    -0.263 OA
BRANCH  16  17
ATOM     17  N   UNL     1      35.386 -19.611 -20.550  0.00  0.00    -0.079 NA
BRANCH  17  18
ATOM     18  C   UNL     1      36.070 -18.772 -21.258  0.00  0.00    +0.148 C 
BRANCH  18  19
ATOM     19  C   UNL     1      35.450 -17.924 -22.290  0.00  0.00    -0.002 C 
ATOM     20  C   UNL     1      34.282 -16.327 -24.231  0.00  0.00    +0.075 C 
ATOM     21  C   UNL     1      34.951 -16.680 -21.936  0.00  0.00    -0.003 C 
ATOM     22  C   UNL     1      35.376 -18.386 -23.594  0.00  0.00    -0.003 C 
ATOM     23  C   UNL     1      34.364 -15.876 -22.914  0.00  0.00    +0.006 C 
ATOM     24  C   UNL     1      34.787 -17.583 -24.571  0.00  0.00    +0.006 C 
BRANCH  20  26
ATOM     25  O   UNL     1      33.629 -15.748 -26.458  0.00  0.00    -0.245 OA
ATOM     26  C   UNL     1      33.668 -15.491 -25.250  0.00  0.00    +0.338 C 
BRANCH  26  27
ATOM     27  O   UNL     1      33.119 -14.358 -24.734  0.00  0.00    -0.477 OA
ATOM     28  H   UNL     1      33.623 -13.569 -24.694  0.00  0.00    +0.295 HD
ENDBRANCH  26  27
ENDBRANCH  20  26
ENDBRANCH  18  19
ENDBRANCH  17  18
ENDBRANCH  16  17
ENDBRANCH  15  16
ENDBRANCH   1  15
TORSDOF 10
ENDMDL
MODEL 5
REMARK VINA RESULT:      -9.5      4.284      6.057
REMARK  Name = 11987861
REMARK  10 active torsions:
REMARK  status: ('A' for Active; 'I' for Inactive)
REMARK    1  A    between atoms: C_1  and  O_2
REMARK    2  A    between atoms: C_1  and  C_15
REMARK    3  A    between atoms: O_2  and  N_3
REMARK    4  A    between atoms: N_3  and  C_4
REMARK    5  A    between atoms: C_15  and  O_16
REMARK    6  A    between atoms: O_16  and  N_17
REMARK    7  A    between atoms: N_17  and  C_18
REMARK    8  A    between atoms: C_18  and  C_19
REMARK    9  A    between atoms: C_20  and  C_26
REMARK   10  A    between atoms: C_26  and  O_27
REMARK                            x       y       z     vdW  Elec       q    Type
REMARK                         _______ _______ _______ _____ _____    ______ ____
ROOT
ATOM      1  C   UNL     1      34.187 -23.508 -16.302  0.00  0.00    +0.210 C 
ENDROOT
BRANCH   1   2
ATOM      2  O   UNL     1      35.506 -23.172 -16.709  0.00  0.00    -0.233 OA
BRANCH   2   3
ATOM      3  N   UNL     1      36.240 -22.827 -15.565  0.00  0.00    -0.129 NA
BRANCH   3   4
ATOM      4  C   UNL     1      37.442 -23.285 -15.689  0.00  0.00    +0.138 C 
ATOM      5  O   UNL     1      36.894 -26.263 -12.051  0.00  0.00    -0.252 OA
ATOM      6  O   UNL     1      40.944 -26.199 -14.279  0.00  0.00    -0.274 OA
ATOM      7  N   UNL     1      37.191 -24.826 -13.824  0.00  0.00    -0.270 N 
ATOM      8  N   UNL     1      38.925 -26.248 -13.149  0.00  0.00    -0.239 N 
ATOM      9  C   UNL     1      37.989 -24.323 -14.816  0.00  0.00    +0.059 C 
ATOM     10  C   UNL     1      39.243 -24.738 -15.017  0.00  0.00    +0.128 C 
ATOM     11  C   UNL     1      37.612 -25.811 -12.942  0.00  0.00    +0.310 C 
ATOM     12  C   UNL     1      39.795 -25.790 -14.129  0.00  0.00    +0.235 C 
ATOM     13  H   UNL     1      36.276 -24.473 -13.733  0.00  0.00    +0.156 HD
ATOM     14  H   UNL     1      39.262 -26.947 -12.543  0.00  0.00    +0.159 HD
ENDBRANCH   3   4
ENDBRANCH   2   3
ENDBRANCH   1   2
BRANCH   1  15
ATOM     15  C   UNL     1      34.061 -23.288 -14.806  0.00  0.00    +0.203 C 
BRANCH  15  16
ATOM     16  O   UNL     1      33.876 -24.545 -14.167  0.00  0.00    -0.263 OA
BRANCH  16  17
ATOM     17  N   UNL     1      32.817 -24.416 -13.259  0.00  0.00    -0.079 NA
BRANCH  17  18
ATOM     18  C   UNL     1      31.805 -25.081 -13.712  0.00  0.00    +0.148 C 
BRANCH  18  19
ATOM     19  C   UNL     1      30.759 -24.454 -14.537  0.00  0.00    -0.002 C 
ATOM     20  C   UNL     1      28.791 -23.272 -16.090  0.00  0.00    +0.075 C 
ATOM     21  C   UNL     1      30.594 -23.078 -14.494  0.00  0.00    -0.003 C 
ATOM     22  C   UNL     1      29.959 -25.251 -15.341  0.00  0.00    -0.003 C 
ATOM     23  C   UNL     1      29.603 -22.484 -15.276  0.00  0.00    +0.006 C 
ATOM     24  C   UNL     1      28.968 -24.656 -16.122  0.00  0.00    +0.006 C 
BRANCH  20  26
ATOM     25  O   UNL     1      27.313 -21.510 -16.749  0.00  0.00    -0.245 OA
ATOM     26  C   UNL     1      27.757 -22.653 -16.904  0.00  0.00    +0.338 C 
BRANCH  26  27
ATOM     27  O   UNL     1      27.306 -23.476 -17.889  0.00  0.00    -0.477 OA
ATOM     28  H   UNL     1      27.881 -24.114 -18.266  0.00  0.00    +0.295 HD
ENDBRANCH  26  27
ENDBRANCH  20  26
ENDBRANCH  18  19
ENDBRANCH  17  18
ENDBRANCH  16  17
ENDBRANCH  15  16
ENDBRANCH   1  15
TORSDOF 10
ENDMDL
MODEL 6
REMARK VINA RESULT:      -9.5      4.423      6.188
REMARK  Name = 11987861
REMARK  10 active torsions:
REMARK  status: ('A' for Active; 'I' for Inactive)
REMARK    1  A    between atoms: C_1  and  O_2
REMARK    2  A    between atoms: C_1  and  C_15
REMARK    3  A    between atoms: O_2  and  N_3
REMARK    4  A    between atoms: N_3  and  C_4
REMARK    5  A    between atoms: C_15  and  O_16
REMARK    6  A    between atoms: O_16  and  N_17
REMARK    7  A    between atoms: N_17  and  C_18
REMARK    8  A    between atoms: C_18  and  C_19
REMARK    9  A    between atoms: C_20  and  C_26
REMARK   10  A    between atoms: C_26  and  O_27
REMARK                            x       y       z     vdW  Elec       q    Type
REMARK                         _______ _______ _______ _____ _____    ______ ____
ROOT
ATOM      1  C   UNL     1      34.771 -21.515 -19.484  0.00  0.00    +0.210 C 
ENDROOT
BRANCH   1   2
ATOM      2  O   UNL     1      34.632 -22.870 -19.080  0.00  0.00    -0.233 OA
BRANCH   2   3
ATOM      3  N   UNL     1      33.313 -23.062 -18.647  0.00  0.00    -0.129 NA
BRANCH   3   4
ATOM      4  C   UNL     1      33.324 -23.307 -17.377  0.00  0.00    +0.138 C 
ATOM      5  O   UNL     1      28.780 -22.071 -16.896  0.00  0.00    -0.252 OA
ATOM      6  O   UNL     1      31.111 -23.467 -13.156  0.00  0.00    -0.274 OA
ATOM      7  N   UNL     1      30.992 -22.678 -17.098  0.00  0.00    -0.270 N 
ATOM      8  N   UNL     1      29.925 -22.765 -15.016  0.00  0.00    -0.239 N 
ATOM      9  C   UNL     1      32.150 -23.128 -16.525  0.00  0.00    +0.059 C 
ATOM     10  C   UNL     1      32.252 -23.407 -15.222  0.00  0.00    +0.128 C 
ATOM     11  C   UNL     1      29.822 -22.475 -16.380  0.00  0.00    +0.310 C 
ATOM     12  C   UNL     1      31.059 -23.223 -14.359  0.00  0.00    +0.235 C 
ATOM     13  H   UNL     1      30.988 -22.492 -18.066  0.00  0.00    +0.156 HD
ATOM     14  H   UNL     1      29.116 -22.633 -14.470  0.00  0.00    +0.159 HD
ENDBRANCH   3   4
ENDBRANCH   2   3
ENDBRANCH   1   2
BRANCH   1  15
ATOM     15  C   UNL     1      36.213 -21.265 -19.884  0.00  0.00    +0.203 C 
BRANCH  15  16
ATOM     16  O   UNL     1      36.462 -19.865 -19.867  0.00  0.00    -0.263 OA
BRANCH  16  17
ATOM     17  N   UNL     1      35.526 -19.249 -20.708  0.00  0.00    -0.079 NA
BRANCH  17  18
ATOM     18  C   UNL     1      36.162 -18.511 -21.558  0.00  0.00    +0.148 C 
BRANCH  18  19
ATOM     19  C   UNL     1      35.465 -17.695 -22.567  0.00  0.00    -0.002 C 
ATOM     20  C   UNL     1      34.153 -16.158 -24.464  0.00  0.00    +0.075 C 
ATOM     21  C   UNL     1      35.060 -16.410 -22.239  0.00  0.00    -0.003 C 
ATOM     22  C   UNL     1      35.226 -18.227 -23.824  0.00  0.00    -0.003 C 
ATOM     23  C   UNL     1      34.400 -15.637 -23.195  0.00  0.00    +0.006 C 
ATOM     24  C   UNL     1      34.566 -17.454 -24.779  0.00  0.00    +0.006 C 
BRANCH  20  26
ATOM     25  O   UNL     1      33.345 -15.642 -26.656  0.00  0.00    -0.245 OA
ATOM     26  C   UNL     1      33.463 -15.354 -25.460  0.00  0.00    +0.338 C 
BRANCH  26  27
ATOM     27  O   UNL     1      32.939 -14.213 -24.937  0.00  0.00    -0.477 OA
ATOM     28  H   UNL     1      32.975 -13.413 -25.425  0.00  0.00    +0.295 HD
ENDBRANCH  26  27
ENDBRANCH  20  26
ENDBRANCH  18  19
ENDBRANCH  17  18
ENDBRANCH  16  17
ENDBRANCH  15  16
ENDBRANCH   1  15
TORSDOF 10
ENDMDL
MODEL 7
REMARK VINA RESULT:      -9.4      4.515      6.261
REMARK  Name = 11987861
REMARK  10 active torsions:
REMARK  status: ('A' for Active; 'I' for Inactive)
REMARK    1  A    between atoms: C_1  and  O_2
REMARK    2  A    between atoms: C_1  and  C_15
REMARK    3  A    between atoms: O_2  and  N_3
REMARK    4  A    between atoms: N_3  and  C_4
REMARK    5  A    between atoms: C_15  and  O_16
REMARK    6  A    between atoms: O_16  and  N_17
REMARK    7  A    between atoms: N_17  and  C_18
REMARK    8  A    between atoms: C_18  and  C_19
REMARK    9  A    between atoms: C_20  and  C_26
REMARK   10  A    between atoms: C_26  and  O_27
REMARK                            x       y       z     vdW  Elec       q    Type
REMARK                         _______ _______ _______ _____ _____    ______ ____
ROOT
ATOM      1  C   UNL     1      33.804 -21.264 -19.810  0.00  0.00    +0.210 C 
ENDROOT
BRANCH   1   2
ATOM      2  O   UNL     1      32.959 -21.805 -18.804  0.00  0.00    -0.233 OA
BRANCH   2   3
ATOM      3  N   UNL     1      33.379 -23.116 -18.542  0.00  0.00    -0.129 NA
BRANCH   3   4
ATOM      4  C   UNL     1      33.373 -23.307 -17.264  0.00  0.00    +0.138 C 
ATOM      5  O   UNL     1      28.758 -22.306 -16.935  0.00  0.00    -0.252 OA
ATOM      6  O   UNL     1      31.071 -23.412 -13.089  0.00  0.00    -0.274 OA
ATOM      7  N   UNL     1      31.004 -22.798 -17.063  0.00  0.00    -0.270 N 
ATOM      8  N   UNL     1      29.893 -22.856 -15.002  0.00  0.00    -0.239 N 
ATOM      9  C   UNL     1      32.170 -23.158 -16.445  0.00  0.00    +0.059 C 
ATOM     10  C   UNL     1      32.256 -23.375 -15.130  0.00  0.00    +0.128 C 
ATOM     11  C   UNL     1      29.808 -22.629 -16.380  0.00  0.00    +0.310 C 
ATOM     12  C   UNL     1      31.034 -23.222 -14.302  0.00  0.00    +0.235 C 
ATOM     13  H   UNL     1      31.012 -22.653 -18.037  0.00  0.00    +0.156 HD
ATOM     14  H   UNL     1      29.066 -22.746 -14.481  0.00  0.00    +0.159 HD
ENDBRANCH   3   4
ENDBRANCH   2   3
ENDBRANCH   1   2
BRANCH   1  15
ATOM     15  C   UNL     1      33.074 -20.136 -20.514  0.00  0.00    +0.203 C 
BRANCH  15  16
ATOM     16  O   UNL     1      33.967 -19.499 -21.419  0.00  0.00    -0.263 OA
BRANCH  16  17
ATOM     17  N   UNL     1      35.096 -19.093 -20.697  0.00  0.00    -0.079 NA
BRANCH  17  18
ATOM     18  C   UNL     1      35.741 -18.220 -21.401  0.00  0.00    +0.148 C 
BRANCH  18  19
ATOM     19  C   UNL     1      35.134 -16.945 -21.820  0.00  0.00    -0.002 C 
ATOM     20  C   UNL     1      33.993 -14.545 -22.607  0.00  0.00    +0.075 C 
ATOM     21  C   UNL     1      34.606 -16.097 -20.859  0.00  0.00    -0.003 C 
ATOM     22  C   UNL     1      35.103 -16.618 -23.166  0.00  0.00    -0.003 C 
ATOM     23  C   UNL     1      34.032 -14.888 -21.256  0.00  0.00    +0.006 C 
ATOM     24  C   UNL     1      34.528 -15.410 -23.563  0.00  0.00    +0.006 C 
BRANCH  20  26
ATOM     25  O   UNL     1      32.257 -12.904 -22.723  0.00  0.00    -0.245 OA
ATOM     26  C   UNL     1      33.393 -13.287 -23.021  0.00  0.00    +0.338 C 
BRANCH  26  27
ATOM     27  O   UNL     1      34.228 -12.541 -23.794  0.00  0.00    -0.477 OA
ATOM     28  H   UNL     1      34.978 -12.938 -24.192  0.00  0.00    +0.295 HD
ENDBRANCH  26  27
ENDBRANCH  20  26
ENDBRANCH  18  19
ENDBRANCH  17  18
ENDBRANCH  16  17
ENDBRANCH  15  16
ENDBRANCH   1  15
TORSDOF 10
ENDMDL
MODEL 8
REMARK VINA RESULT:      -9.3      1.582      2.212
REMARK  Name = 11987861
REMARK  10 active torsions:
REMARK  status: ('A' for Active; 'I' for Inactive)
REMARK    1  A    between atoms: C_1  and  O_2
REMARK    2  A    between atoms: C_1  and  C_15
REMARK    3  A    between atoms: O_2  and  N_3
REMARK    4  A    between atoms: N_3  and  C_4
REMARK    5  A    between atoms: C_15  and  O_16
REMARK    6  A    between atoms: O_16  and  N_17
REMARK    7  A    between atoms: N_17  and  C_18
REMARK    8  A    between atoms: C_18  and  C_19
REMARK    9  A    between atoms: C_20  and  C_26
REMARK   10  A    between atoms: C_26  and  O_27
REMARK                            x       y       z     vdW  Elec       q    Type
REMARK                         _______ _______ _______ _____ _____    ______ ____
ROOT
ATOM      1  C   UNL     1      32.762 -23.067 -15.352  0.00  0.00    +0.210 C 
ENDROOT
BRANCH   1   2
ATOM      2  O   UNL     1      33.049 -24.262 -14.639  0.00  0.00    -0.233 OA
BRANCH   2   3
ATOM      3  N   UNL     1      33.926 -23.944 -13.592  0.00  0.00    -0.129 NA
BRANCH   3   4
ATOM      4  C   UNL     1      34.831 -24.864 -13.514  0.00  0.00    +0.138 C 
ATOM      5  O   UNL     1      37.876 -22.370 -16.143  0.00  0.00    -0.252 OA
ATOM      6  O   UNL     1      39.178 -26.516 -14.568  0.00  0.00    -0.274 OA
ATOM      7  N   UNL     1      36.417 -23.607 -14.862  0.00  0.00    -0.270 N 
ATOM      8  N   UNL     1      38.548 -24.437 -15.367  0.00  0.00    -0.239 N 
ATOM      9  C   UNL     1      36.141 -24.743 -14.151  0.00  0.00    +0.059 C 
ATOM     10  C   UNL     1      37.017 -25.743 -14.018  0.00  0.00    +0.128 C 
ATOM     11  C   UNL     1      37.628 -23.392 -15.504  0.00  0.00    +0.310 C 
ATOM     12  C   UNL     1      38.345 -25.619 -14.666  0.00  0.00    +0.235 C 
ATOM     13  H   UNL     1      35.725 -22.908 -14.919  0.00  0.00    +0.156 HD
ATOM     14  H   UNL     1      39.420 -24.324 -15.809  0.00  0.00    +0.159 HD
ENDBRANCH   3   4
ENDBRANCH   2   3
ENDBRANCH   1   2
BRANCH   1  15
ATOM     15  C   UNL     1      33.022 -23.299 -16.828  0.00  0.00    +0.203 C 
BRANCH  15  16
ATOM     16  O   UNL     1      34.367 -23.730 -17.001  0.00  0.00    -0.263 OA
BRANCH  16  17
ATOM     17  N   UNL     1      34.976 -22.879 -17.931  0.00  0.00    -0.079 NA
BRANCH  17  18
ATOM     18  C   UNL     1      34.091 -22.527 -18.807  0.00  0.00    +0.148 C 
BRANCH  18  19
ATOM     19  C   UNL     1      34.253 -21.332 -19.652  0.00  0.00    -0.002 C 
ATOM     20  C   UNL     1      34.556 -19.082 -21.241  0.00  0.00    +0.075 C 
ATOM     21  C   UNL     1      33.127 -20.673 -20.118  0.00  0.00    -0.003 C 
ATOM     22  C   UNL     1      35.529 -20.889 -19.964  0.00  0.00    -0.003 C 
ATOM     23  C   UNL     1      33.280 -19.540 -20.918  0.00  0.00    +0.006 C 
ATOM     24  C   UNL     1      35.682 -19.757 -20.765  0.00  0.00    +0.006 C 
BRANCH  20  26
ATOM     25  O   UNL     1      34.821 -17.907 -23.308  0.00  0.00    -0.245 OA
ATOM     26  C   UNL     1      34.717 -17.903 -22.077  0.00  0.00    +0.338 C 
BRANCH  26  27
ATOM     27  O   UNL     1      34.741 -16.751 -21.353  0.00  0.00    -0.477 OA
ATOM     28  H   UNL     1      35.557 -16.409 -21.044  0.00  0.00    +0.295 HD
ENDBRANCH  26  27
ENDBRANCH  20  26
ENDBRANCH  18  19
ENDBRANCH  17  18
ENDBRANCH  16  17
ENDBRANCH  15  16
ENDBRANCH   1  15
TORSDOF 10
ENDMDL
MODEL 9
REMARK VINA RESULT:      -9.3      3.561      8.089
REMARK  Name = 11987861
REMARK  10 active torsions:
REMARK  status: ('A' for Active; 'I' for Inactive)
REMARK    1  A    between atoms: C_1  and  O_2
REMARK    2  A    between atoms: C_1  and  C_15
REMARK    3  A    between atoms: O_2  and  N_3
REMARK    4  A    between atoms: N_3  and  C_4
REMARK    5  A    between atoms: C_15  and  O_16
REMARK    6  A    between atoms: O_16  and  N_17
REMARK    7  A    between atoms: N_17  and  C_18
REMARK    8  A    between atoms: C_18  and  C_19
REMARK    9  A    between atoms: C_20  and  C_26
REMARK   10  A    between atoms: C_26  and  O_27
REMARK                            x       y       z     vdW  Elec       q    Type
REMARK                         _______ _______ _______ _____ _____    ______ ____
ROOT
ATOM      1  C   UNL     1      35.715 -23.825 -15.309  0.00  0.00    +0.210 C 
ENDROOT
BRANCH   1   2
ATOM      2  O   UNL     1      35.059 -23.025 -16.282  0.00  0.00    -0.233 OA
BRANCH   2   3
ATOM      3  N   UNL     1      34.200 -23.852 -17.019  0.00  0.00    -0.129 NA
BRANCH   3   4
ATOM      4  C   UNL     1      33.396 -23.108 -17.706  0.00  0.00    +0.138 C 
ATOM      5  O   UNL     1      36.967 -21.030 -20.015  0.00  0.00    -0.252 OA
ATOM      6  O   UNL     1      32.637 -19.749 -21.004  0.00  0.00    -0.274 OA
ATOM      7  N   UNL     1      35.209 -22.022 -18.908  0.00  0.00    -0.270 N 
ATOM      8  N   UNL     1      34.813 -20.375 -20.525  0.00  0.00    -0.239 N 
ATOM      9  C   UNL     1      33.862 -22.143 -18.700  0.00  0.00    +0.059 C 
ATOM     10  C   UNL     1      32.959 -21.416 -19.364  0.00  0.00    +0.128 C 
ATOM     11  C   UNL     1      35.755 -21.138 -19.828  0.00  0.00    +0.310 C 
ATOM     12  C   UNL     1      33.434 -20.437 -20.372  0.00  0.00    +0.235 C 
ATOM     13  H   UNL     1      35.818 -22.590 -18.383  0.00  0.00    +0.156 HD
ATOM     14  H   UNL     1      35.160 -19.734 -21.186  0.00  0.00    +0.159 HD
ENDBRANCH   3   4
ENDBRANCH   2   3
ENDBRANCH   1   2
BRANCH   1  15
ATOM     15  C   UNL     1      34.688 -24.702 -14.617  0.00  0.00    +0.203 C 
BRANCH  15  16
ATOM     16  O   UNL     1      34.515 -24.247 -13.281  0.00  0.00    -0.263 OA
BRANCH  16  17
ATOM     17  N   UNL     1      33.167 -23.908 -13.112  0.00  0.00    -0.079 NA
BRANCH  17  18
ATOM     18  C   UNL     1      32.450 -24.704 -13.837  0.00  0.00    +0.148 C 
BRANCH  18  19
ATOM     19  C   UNL     1      31.206 -24.265 -14.491  0.00  0.00    -0.002 C 
ATOM     20  C   UNL     1      28.864 -23.440 -15.722  0.00  0.00    +0.075 C 
ATOM     21  C   UNL     1      30.162 -25.165 -14.637  0.00  0.00    -0.003 C 
ATOM     22  C   UNL     1      31.103 -22.961 -14.948  0.00  0.00    -0.003 C 
ATOM     23  C   UNL     1      28.983 -24.749 -15.256  0.00  0.00    +0.006 C 
ATOM     24  C   UNL     1      29.924 -22.545 -15.568  0.00  0.00    +0.006 C 
BRANCH  20  26
ATOM     25  O   UNL     1      26.687 -22.450 -15.804  0.00  0.00    -0.245 OA
ATOM     26  C   UNL     1      27.636 -23.006 -16.369  0.00  0.00    +0.338 C 
BRANCH  26  27
ATOM     27  O   UNL     1      27.626 -23.275 -17.702  0.00  0.00    -0.477 OA
ATOM     28  H   UNL     1      27.286 -22.643 -18.305  0.00  0.00    +0.295 HD
ENDBRANCH  26  27
ENDBRANCH  20  26
ENDBRANCH  18  19
ENDBRANCH  17  18
ENDBRANCH  16  17
ENDBRANCH  15  16
ENDBRANCH   1  15
TORSDOF 10
ENDMDL
