MODEL 1
REMARK VINA RESULT:      -7.2      0.000      0.000
REMARK  Name = 9034
REMARK  5 active torsions:
REMARK  status: ('A' for Active; 'I' for Inactive)
REMARK    1  A    between atoms: C_6  and  C_12
REMARK    2  A    between atoms: C_6  and  C_18
REMARK    3  A    between atoms: C_12  and  C_14
REMARK    4  A    between atoms: C_15  and  C_16
REMARK    5  A    between atoms: C_18  and  C_19
REMARK                            x       y       z     vdW  Elec       q    Type
REMARK                         _______ _______ _______ _____ _____    ______ ____
ROOT
ATOM      1  O   UNL     1      37.944 -23.159 -13.622  0.00  0.00    -0.274 OA
ATOM      2  O   UNL     1      34.640 -24.958 -16.322  0.00  0.00    -0.274 OA
ATOM      3  O   UNL     1      37.840 -27.710 -14.553  0.00  0.00    -0.252 OA
ATOM      4  N   UNL     1      37.856 -25.470 -13.896  0.00  0.00    -0.212 N 
ATOM      5  N   UNL     1      36.215 -26.326 -15.368  0.00  0.00    -0.239 N 
ATOM      6  C   UNL     1      35.870 -24.105 -14.417  0.00  0.00    +0.153 C 
ATOM      7  C   UNL     1      37.325 -24.172 -13.958  0.00  0.00    +0.241 C 
ATOM      8  C   UNL     1      35.517 -25.135 -15.478  0.00  0.00    +0.238 C 
ATOM      9  C   UNL     1      37.336 -26.585 -14.582  0.00  0.00    +0.316 C 
ATOM     10  C   UNL     1      39.123 -25.652 -13.198  0.00  0.00    +0.124 C 
ATOM     11  H   UNL     1      35.880 -27.077 -15.908  0.00  0.00    +0.159 HD
ENDROOT
BRANCH   6  12
ATOM     12  C   UNL     1      34.988 -24.390 -13.189  0.00  0.00    +0.081 C 
ATOM     13  C   UNL     1      35.512 -23.633 -11.975  0.00  0.00    +0.015 C 
BRANCH  12  14
ATOM     14  C   UNL     1      33.594 -24.019 -13.473  0.00  0.00    -0.091 C 
ATOM     15  C   UNL     1      32.457 -23.718 -13.712  0.00  0.00    -0.091 C 
BRANCH  15  16
ATOM     16  C   UNL     1      31.066 -23.349 -14.003  0.00  0.00    +0.076 C 
ATOM     17  C   UNL     1      30.893 -22.953 -15.458  0.00  0.00    +0.015 C 
ENDBRANCH  15  16
ENDBRANCH  12  14
ENDBRANCH   6  12
BRANCH   6  18
ATOM     18  C   UNL     1      35.554 -22.697 -14.946  0.00  0.00    +0.044 C 
BRANCH  18  19
ATOM     19  C   UNL     1      36.136 -22.498 -16.305  0.00  0.00    -0.025 C 
ATOM     20  C   UNL     1      37.114 -21.626 -16.573  0.00  0.00    -0.005 C 
ENDBRANCH  18  19
ENDBRANCH   6  18
TORSDOF 5
ENDMDL
MODEL 2
REMARK VINA RESULT:      -6.9      1.840      3.432
REMARK  Name = 9034
REMARK  5 active torsions:
REMARK  status: ('A' for Active; 'I' for Inactive)
REMARK    1  A    between atoms: C_6  and  C_12
REMARK    2  A    between atoms: C_6  and  C_18
REMARK    3  A    between atoms: C_12  and  C_14
REMARK    4  A    between atoms: C_15  and  C_16
REMARK    5  A    between atoms: C_18  and  C_19
REMARK                            x       y       z     vdW  Elec       q    Type
REMARK                         _______ _______ _______ _____ _____    ______ ____
ROOT
ATOM      1  O   UNL     1      38.607 -23.609 -12.627  0.00  0.00    -0.274 OA
ATOM      2  O   UNL     1      36.228 -25.963 -15.829  0.00  0.00    -0.274 OA
ATOM      3  O   UNL     1      34.117 -24.625 -11.994  0.00  0.00    -0.252 OA
ATOM      4  N   UNL     1      36.320 -23.924 -12.318  0.00  0.00    -0.212 N 
ATOM      5  N   UNL     1      35.176 -25.222 -13.930  0.00  0.00    -0.239 N 
ATOM      6  C   UNL     1      37.293 -24.189 -14.568  0.00  0.00    +0.153 C 
ATOM      7  C   UNL     1      37.498 -23.897 -13.083  0.00  0.00    +0.241 C 
ATOM      8  C   UNL     1      36.217 -25.227 -14.843  0.00  0.00    +0.238 C 
ATOM      9  C   UNL     1      35.129 -24.571 -12.698  0.00  0.00    +0.316 C 
ATOM     10  C   UNL     1      36.376 -23.376 -10.968  0.00  0.00    +0.124 C 
ATOM     11  H   UNL     1      34.377 -25.738 -14.180  0.00  0.00    +0.159 HD
ENDROOT
BRANCH   6  12
ATOM     12  C   UNL     1      36.848 -22.876 -15.236  0.00  0.00    +0.081 C 
ATOM     13  C   UNL     1      37.846 -22.465 -16.311  0.00  0.00    +0.015 C 
BRANCH  12  14
ATOM     14  C   UNL     1      35.502 -23.033 -15.806  0.00  0.00    -0.091 C 
ATOM     15  C   UNL     1      34.401 -23.153 -16.272  0.00  0.00    -0.091 C 
BRANCH  15  16
ATOM     16  C   UNL     1      33.056 -23.302 -16.840  0.00  0.00    +0.076 C 
ATOM     17  C   UNL     1      32.001 -23.364 -15.750  0.00  0.00    +0.015 C 
ENDBRANCH  15  16
ENDBRANCH  12  14
ENDBRANCH   6  12
BRANCH   6  18
ATOM     18  C   UNL     1      38.619 -24.647 -15.196  0.00  0.00    +0.044 C 
BRANCH  18  19
ATOM     19  C   UNL     1      39.141 -25.862 -14.506  0.00  0.00    -0.025 C 
ATOM     20  C   UNL     1      40.443 -26.126 -14.353  0.00  0.00    -0.005 C 
ENDBRANCH  18  19
ENDBRANCH   6  18
TORSDOF 5
ENDMDL
MODEL 3
REMARK VINA RESULT:      -6.5     16.737     19.022
REMARK  Name = 9034
REMARK  5 active torsions:
REMARK  status: ('A' for Active; 'I' for Inactive)
REMARK    1  A    between atoms: C_6  and  C_12
REMARK    2  A    between atoms: C_6  and  C_18
REMARK    3  A    between atoms: C_12  and  C_14
REMARK    4  A    between atoms: C_15  and  C_16
REMARK    5  A    between atoms: C_18  and  C_19
REMARK                            x       y       z     vdW  Elec       q    Type
REMARK                         _______ _______ _______ _____ _____    ______ ____
ROOT
ATOM      1  O   UNL     1      30.616  -9.724 -22.929  0.00  0.00    -0.274 OA
ATOM      2  O   UNL     1      32.639  -6.011 -21.041  0.00  0.00    -0.274 OA
ATOM      3  O   UNL     1      32.531  -9.943 -18.701  0.00  0.00    -0.252 OA
ATOM      4  N   UNL     1      31.708  -9.961 -20.886  0.00  0.00    -0.212 N 
ATOM      5  N   UNL     1      32.632  -8.011 -19.918  0.00  0.00    -0.239 N 
ATOM      6  C   UNL     1      32.219  -8.024 -22.323  0.00  0.00    +0.153 C 
ATOM      7  C   UNL     1      31.413  -9.300 -22.089  0.00  0.00    +0.241 C 
ATOM      8  C   UNL     1      32.489  -7.232 -21.054  0.00  0.00    +0.238 C 
ATOM      9  C   UNL     1      32.320  -9.361 -19.768  0.00  0.00    +0.316 C 
ATOM     10  C   UNL     1      31.210 -11.321 -20.719  0.00  0.00    +0.124 C 
ATOM     11  H   UNL     1      32.996  -7.558 -19.124  0.00  0.00    +0.159 HD
ENDROOT
BRANCH   6  12
ATOM     12  C   UNL     1      33.581  -8.441 -22.904  0.00  0.00    +0.081 C 
ATOM     13  C   UNL     1      33.513  -9.865 -23.440  0.00  0.00    +0.015 C 
BRANCH  12  14
ATOM     14  C   UNL     1      33.985  -7.504 -23.962  0.00  0.00    -0.091 C 
ATOM     15  C   UNL     1      34.318  -6.744 -24.831  0.00  0.00    -0.091 C 
BRANCH  15  16
ATOM     16  C   UNL     1      34.724  -5.814 -25.891  0.00  0.00    +0.076 C 
ATOM     17  C   UNL     1      33.528  -5.077 -26.466  0.00  0.00    +0.015 C 
ENDBRANCH  15  16
ENDBRANCH  12  14
ENDBRANCH   6  12
BRANCH   6  18
ATOM     18  C   UNL     1      31.493  -7.128 -23.339  0.00  0.00    +0.044 C 
BRANCH  18  19
ATOM     19  C   UNL     1      30.756  -6.031 -22.648  0.00  0.00    -0.025 C 
ATOM     20  C   UNL     1      30.730  -4.766 -23.082  0.00  0.00    -0.005 C 
ENDBRANCH  18  19
ENDBRANCH   6  18
TORSDOF 5
ENDMDL
MODEL 4
REMARK VINA RESULT:      -6.3      1.944      3.954
REMARK  Name = 9034
REMARK  5 active torsions:
REMARK  status: ('A' for Active; 'I' for Inactive)
REMARK    1  A    between atoms: C_6  and  C_12
REMARK    2  A    between atoms: C_6  and  C_18
REMARK    3  A    between atoms: C_12  and  C_14
REMARK    4  A    between atoms: C_15  and  C_16
REMARK    5  A    between atoms: C_18  and  C_19
REMARK                            x       y       z     vdW  Elec       q    Type
REMARK                         _______ _______ _______ _____ _____    ______ ____
ROOT
ATOM      1  O   UNL     1      35.407 -26.081 -15.753  0.00  0.00    -0.274 OA
ATOM      2  O   UNL     1      34.090 -23.497 -12.142  0.00  0.00    -0.274 OA
ATOM      3  O   UNL     1      38.012 -25.845 -11.913  0.00  0.00    -0.252 OA
ATOM      4  N   UNL     1      36.851 -25.873 -13.938  0.00  0.00    -0.212 N 
ATOM      5  N   UNL     1      36.084 -24.629 -12.079  0.00  0.00    -0.239 N 
ATOM      6  C   UNL     1      35.039 -24.230 -14.248  0.00  0.00    +0.153 C 
ATOM      7  C   UNL     1      35.752 -25.493 -14.726  0.00  0.00    +0.241 C 
ATOM      8  C   UNL     1      34.988 -24.093 -12.735  0.00  0.00    +0.238 C 
ATOM      9  C   UNL     1      37.065 -25.466 -12.607  0.00  0.00    +0.316 C 
ATOM     10  C   UNL     1      37.756 -26.881 -14.478  0.00  0.00    +0.124 C 
ATOM     11  H   UNL     1      36.181 -24.391 -11.129  0.00  0.00    +0.159 HD
ENDROOT
BRANCH   6  12
ATOM     12  C   UNL     1      35.826 -23.025 -14.792  0.00  0.00    +0.081 C 
ATOM     13  C   UNL     1      37.324 -23.297 -14.725  0.00  0.00    +0.015 C 
BRANCH  12  14
ATOM     14  C   UNL     1      35.411 -22.734 -16.173  0.00  0.00    -0.091 C 
ATOM     15  C   UNL     1      35.073 -22.505 -17.302  0.00  0.00    -0.091 C 
BRANCH  15  16
ATOM     16  C   UNL     1      34.659 -22.221 -18.681  0.00  0.00    +0.076 C 
ATOM     17  C   UNL     1      35.775 -21.553 -19.465  0.00  0.00    +0.015 C 
ENDBRANCH  15  16
ENDBRANCH  12  14
ENDBRANCH   6  12
BRANCH   6  18
ATOM     18  C   UNL     1      33.610 -24.192 -14.813  0.00  0.00    +0.044 C 
BRANCH  18  19
ATOM     19  C   UNL     1      32.682 -24.991 -13.961  0.00  0.00    -0.025 C 
ATOM     20  C   UNL     1      31.349 -24.900 -14.028  0.00  0.00    -0.005 C 
ENDBRANCH  18  19
ENDBRANCH   6  18
TORSDOF 5
ENDMDL
MODEL 5
REMARK VINA RESULT:      -6.3     17.697     19.868
REMARK  Name = 9034
REMARK  5 active torsions:
REMARK  status: ('A' for Active; 'I' for Inactive)
REMARK    1  A    between atoms: C_6  and  C_12
REMARK    2  A    between atoms: C_6  and  C_18
REMARK    3  A    between atoms: C_12  and  C_14
REMARK    4  A    between atoms: C_15  and  C_16
REMARK    5  A    between atoms: C_18  and  C_19
REMARK                            x       y       z     vdW  Elec       q    Type
REMARK                         _______ _______ _______ _____ _____    ______ ____
ROOT
ATOM      1  O   UNL     1      33.261  -6.138 -24.672  0.00  0.00    -0.274 OA
ATOM      2  O   UNL     1      32.320  -6.780 -20.183  0.00  0.00    -0.274 OA
ATOM      3  O   UNL     1      30.142  -3.478 -22.485  0.00  0.00    -0.252 OA
ATOM      4  N   UNL     1      31.559  -4.885 -23.694  0.00  0.00    -0.212 N 
ATOM      5  N   UNL     1      31.193  -5.177 -21.376  0.00  0.00    -0.239 N 
ATOM      6  C   UNL     1      32.330  -6.955 -22.600  0.00  0.00    +0.153 C 
ATOM      7  C   UNL     1      32.461  -5.960 -23.751  0.00  0.00    +0.241 C 
ATOM      8  C   UNL     1      31.986  -6.307 -21.269  0.00  0.00    +0.238 C 
ATOM      9  C   UNL     1      30.896  -4.454 -22.529  0.00  0.00    +0.316 C 
ATOM     10  C   UNL     1      31.414  -4.058 -24.886  0.00  0.00    +0.124 C 
ATOM     11  H   UNL     1      30.792  -4.847 -20.540  0.00  0.00    +0.159 HD
ENDROOT
BRANCH   6  12
ATOM     12  C   UNL     1      31.183  -7.918 -22.954  0.00  0.00    +0.081 C 
ATOM     13  C   UNL     1      31.075  -8.080 -24.465  0.00  0.00    +0.015 C 
BRANCH  12  14
ATOM     14  C   UNL     1      31.400  -9.219 -22.304  0.00  0.00    -0.091 C 
ATOM     15  C   UNL     1      31.569 -10.284 -21.774  0.00  0.00    -0.091 C 
BRANCH  15  16
ATOM     16  C   UNL     1      31.778 -11.584 -21.127  0.00  0.00    +0.076 C 
ATOM     17  C   UNL     1      31.569 -11.492 -19.625  0.00  0.00    +0.015 C 
ENDBRANCH  15  16
ENDBRANCH  12  14
ENDBRANCH   6  12
BRANCH   6  18
ATOM     18  C   UNL     1      33.633  -7.759 -22.456  0.00  0.00    +0.044 C 
BRANCH  18  19
ATOM     19  C   UNL     1      34.254  -8.007 -23.790  0.00  0.00    -0.025 C 
ATOM     20  C   UNL     1      34.763  -9.186 -24.163  0.00  0.00    -0.005 C 
ENDBRANCH  18  19
ENDBRANCH   6  18
TORSDOF 5
ENDMDL
MODEL 6
REMARK VINA RESULT:      -6.2     15.950     18.162
REMARK  Name = 9034
REMARK  5 active torsions:
REMARK  status: ('A' for Active; 'I' for Inactive)
REMARK    1  A    between atoms: C_6  and  C_12
REMARK    2  A    between atoms: C_6  and  C_18
REMARK    3  A    between atoms: C_12  and  C_14
REMARK    4  A    between atoms: C_15  and  C_16
REMARK    5  A    between atoms: C_18  and  C_19
REMARK                            x       y       z     vdW  Elec       q    Type
REMARK                         _______ _______ _______ _____ _____    ______ ____
ROOT
ATOM      1  O   UNL     1      30.586 -10.049 -22.987  0.00  0.00    -0.274 OA
ATOM      2  O   UNL     1      31.728  -5.920 -21.228  0.00  0.00    -0.274 OA
ATOM      3  O   UNL     1      32.600  -9.709 -18.813  0.00  0.00    -0.252 OA
ATOM      4  N   UNL     1      31.752  -9.973 -20.972  0.00  0.00    -0.212 N 
ATOM      5  N   UNL     1      32.217  -7.838 -20.068  0.00  0.00    -0.239 N 
ATOM      6  C   UNL     1      31.760  -8.007 -22.459  0.00  0.00    +0.153 C 
ATOM      7  C   UNL     1      31.282  -9.429 -22.178  0.00  0.00    +0.241 C 
ATOM      8  C   UNL     1      31.868  -7.142 -21.214  0.00  0.00    +0.238 C 
ATOM      9  C   UNL     1      32.233  -9.219 -19.884  0.00  0.00    +0.316 C 
ATOM     10  C   UNL     1      31.590 -11.407 -20.766  0.00  0.00    +0.124 C 
ATOM     11  H   UNL     1      32.484  -7.293 -19.293  0.00  0.00    +0.159 HD
ENDROOT
BRANCH   6  12
ATOM     12  C   UNL     1      33.168  -8.108 -23.072  0.00  0.00    +0.081 C 
ATOM     13  C   UNL     1      34.222  -7.725 -22.041  0.00  0.00    +0.015 C 
BRANCH  12  14
ATOM     14  C   UNL     1      33.401  -9.470 -23.575  0.00  0.00    -0.091 C 
ATOM     15  C   UNL     1      33.597 -10.579 -23.991  0.00  0.00    -0.091 C 
BRANCH  15  16
ATOM     16  C   UNL     1      33.834 -11.936 -24.498  0.00  0.00    +0.076 C 
ATOM     17  C   UNL     1      33.277 -12.984 -23.550  0.00  0.00    +0.015 C 
ENDBRANCH  15  16
ENDBRANCH  12  14
ENDBRANCH   6  12
BRANCH   6  18
ATOM     18  C   UNL     1      30.821  -7.331 -23.471  0.00  0.00    +0.044 C 
BRANCH  18  19
ATOM     19  C   UNL     1      31.593  -6.499 -24.439  0.00  0.00    -0.025 C 
ATOM     20  C   UNL     1      31.332  -5.211 -24.684  0.00  0.00    -0.005 C 
ENDBRANCH  18  19
ENDBRANCH   6  18
TORSDOF 5
ENDMDL
MODEL 7
REMARK VINA RESULT:      -6.2     17.286     19.593
REMARK  Name = 9034
REMARK  5 active torsions:
REMARK  status: ('A' for Active; 'I' for Inactive)
REMARK    1  A    between atoms: C_6  and  C_12
REMARK    2  A    between atoms: C_6  and  C_18
REMARK    3  A    between atoms: C_12  and  C_14
REMARK    4  A    between atoms: C_15  and  C_16
REMARK    5  A    between atoms: C_18  and  C_19
REMARK                            x       y       z     vdW  Elec       q    Type
REMARK                         _______ _______ _______ _____ _____    ______ ____
ROOT
ATOM      1  O   UNL     1      34.873  -7.701 -22.916  0.00  0.00    -0.274 OA
ATOM      2  O   UNL     1      30.956  -5.839 -21.291  0.00  0.00    -0.274 OA
ATOM      3  O   UNL     1      32.334  -4.825 -25.537  0.00  0.00    -0.252 OA
ATOM      4  N   UNL     1      33.566  -6.413 -24.350  0.00  0.00    -0.212 N 
ATOM      5  N   UNL     1      31.633  -5.401 -23.439  0.00  0.00    -0.239 N 
ATOM      6  C   UNL     1      32.567  -7.344 -22.297  0.00  0.00    +0.153 C 
ATOM      7  C   UNL     1      33.795  -7.168 -23.188  0.00  0.00    +0.241 C 
ATOM      8  C   UNL     1      31.660  -6.124 -22.259  0.00  0.00    +0.238 C 
ATOM      9  C   UNL     1      32.496  -5.515 -24.527  0.00  0.00    +0.316 C 
ATOM     10  C   UNL     1      34.588  -6.441 -25.389  0.00  0.00    +0.124 C 
ATOM     11  H   UNL     1      30.920  -4.727 -23.519  0.00  0.00    +0.159 HD
ENDROOT
BRANCH   6  12
ATOM     12  C   UNL     1      31.745  -8.510 -22.873  0.00  0.00    +0.081 C 
ATOM     13  C   UNL     1      30.659  -7.983 -23.802  0.00  0.00    +0.015 C 
BRANCH  12  14
ATOM     14  C   UNL     1      32.629  -9.447 -23.583  0.00  0.00    -0.091 C 
ATOM     15  C   UNL     1      33.346 -10.212 -24.168  0.00  0.00    -0.091 C 
BRANCH  15  16
ATOM     16  C   UNL     1      34.224 -11.147 -24.882  0.00  0.00    +0.076 C 
ATOM     17  C   UNL     1      35.324 -10.412 -25.627  0.00  0.00    +0.015 C 
ENDBRANCH  15  16
ENDBRANCH  12  14
ENDBRANCH   6  12
BRANCH   6  18
ATOM     18  C   UNL     1      33.007  -7.699 -20.867  0.00  0.00    +0.044 C 
BRANCH  18  19
ATOM     19  C   UNL     1      31.995  -8.571 -20.202  0.00  0.00    -0.025 C 
ATOM     20  C   UNL     1      32.307  -9.657 -19.488  0.00  0.00    -0.005 C 
ENDBRANCH  18  19
ENDBRANCH   6  18
TORSDOF 5
ENDMDL
MODEL 8
REMARK VINA RESULT:      -6.0      2.140      4.133
REMARK  Name = 9034
REMARK  5 active torsions:
REMARK  status: ('A' for Active; 'I' for Inactive)
REMARK    1  A    between atoms: C_6  and  C_12
REMARK    2  A    between atoms: C_6  and  C_18
REMARK    3  A    between atoms: C_12  and  C_14
REMARK    4  A    between atoms: C_15  and  C_16
REMARK    5  A    between atoms: C_18  and  C_19
REMARK                            x       y       z     vdW  Elec       q    Type
REMARK                         _______ _______ _______ _____ _____    ______ ____
ROOT
ATOM      1  O   UNL     1      38.130 -22.684 -13.061  0.00  0.00    -0.274 OA
ATOM      2  O   UNL     1      37.436 -27.141 -14.111  0.00  0.00    -0.274 OA
ATOM      3  O   UNL     1      35.390 -25.357 -10.426  0.00  0.00    -0.252 OA
ATOM      4  N   UNL     1      36.605 -23.909 -11.796  0.00  0.00    -0.212 N 
ATOM      5  N   UNL     1      36.369 -26.205 -12.309  0.00  0.00    -0.239 N 
ATOM      6  C   UNL     1      37.273 -24.725 -14.025  0.00  0.00    +0.153 C 
ATOM      7  C   UNL     1      37.409 -23.676 -12.924  0.00  0.00    +0.241 C 
ATOM      8  C   UNL     1      37.071 -26.137 -13.500  0.00  0.00    +0.238 C 
ATOM      9  C   UNL     1      36.057 -25.158 -11.445  0.00  0.00    +0.316 C 
ATOM     10  C   UNL     1      36.450 -22.822 -10.837  0.00  0.00    +0.124 C 
ATOM     11  H   UNL     1      36.052 -27.098 -12.042  0.00  0.00    +0.159 HD
ENDROOT
BRANCH   6  12
ATOM     12  C   UNL     1      36.030 -24.360 -14.855  0.00  0.00    +0.081 C 
ATOM     13  C   UNL     1      34.890 -23.931 -13.940  0.00  0.00    +0.015 C 
BRANCH  12  14
ATOM     14  C   UNL     1      36.360 -23.295 -15.813  0.00  0.00    -0.091 C 
ATOM     15  C   UNL     1      36.632 -22.430 -16.600  0.00  0.00    -0.091 C 
BRANCH  15  16
ATOM     16  C   UNL     1      36.964 -21.371 -17.561  0.00  0.00    +0.076 C 
ATOM     17  C   UNL     1      36.212 -21.555 -18.867  0.00  0.00    +0.015 C 
ENDBRANCH  15  16
ENDBRANCH  12  14
ENDBRANCH   6  12
BRANCH   6  18
ATOM     18  C   UNL     1      38.512 -24.689 -14.934  0.00  0.00    +0.044 C 
BRANCH  18  19
ATOM     19  C   UNL     1      39.728 -25.130 -14.191  0.00  0.00    -0.025 C 
ATOM     20  C   UNL     1      40.603 -26.025 -14.663  0.00  0.00    -0.005 C 
ENDBRANCH  18  19
ENDBRANCH   6  18
TORSDOF 5
ENDMDL
MODEL 9
REMARK VINA RESULT:      -6.0     16.945     19.123
REMARK  Name = 9034
REMARK  5 active torsions:
REMARK  status: ('A' for Active; 'I' for Inactive)
REMARK    1  A    between atoms: C_6  and  C_12
REMARK    2  A    between atoms: C_6  and  C_18
REMARK    3  A    between atoms: C_12  and  C_14
REMARK    4  A    between atoms: C_15  and  C_16
REMARK    5  A    between atoms: C_18  and  C_19
REMARK                            x       y       z     vdW  Elec       q    Type
REMARK                         _______ _______ _______ _____ _____    ______ ____
ROOT
ATOM      1  O   UNL     1      31.576  -9.496 -21.488  0.00  0.00    -0.274 OA
ATOM      2  O   UNL     1      34.889  -7.140 -23.707  0.00  0.00    -0.274 OA
ATOM      3  O   UNL     1      34.342 -11.601 -24.571  0.00  0.00    -0.252 OA
ATOM      4  N   UNL     1      32.802 -10.578 -23.146  0.00  0.00    -0.212 N 
ATOM      5  N   UNL     1      34.550  -9.360 -24.172  0.00  0.00    -0.239 N 
ATOM      6  C   UNL     1      32.763  -8.114 -23.072  0.00  0.00    +0.153 C 
ATOM      7  C   UNL     1      32.328  -9.446 -22.464  0.00  0.00    +0.241 C 
ATOM      8  C   UNL     1      34.170  -8.136 -23.647  0.00  0.00    +0.238 C 
ATOM      9  C   UNL     1      33.910 -10.588 -24.015  0.00  0.00    +0.316 C 
ATOM     10  C   UNL     1      32.205 -11.867 -22.817  0.00  0.00    +0.124 C 
ATOM     11  H   UNL     1      35.367  -9.363 -24.720  0.00  0.00    +0.159 HD
ENDROOT
BRANCH   6  12
ATOM     12  C   UNL     1      31.798  -7.802 -24.230  0.00  0.00    +0.081 C 
ATOM     13  C   UNL     1      30.360  -8.078 -23.809  0.00  0.00    +0.015 C 
BRANCH  12  14
ATOM     14  C   UNL     1      31.958  -6.403 -24.655  0.00  0.00    -0.091 C 
ATOM     15  C   UNL     1      32.085  -5.259 -24.995  0.00  0.00    -0.091 C 
BRANCH  15  16
ATOM     16  C   UNL     1      32.242  -3.860 -25.412  0.00  0.00    +0.076 C 
ATOM     17  C   UNL     1      31.730  -2.906 -24.348  0.00  0.00    +0.015 C 
ENDBRANCH  15  16
ENDBRANCH  12  14
ENDBRANCH   6  12
BRANCH   6  18
ATOM     18  C   UNL     1      32.658  -7.001 -22.018  0.00  0.00    +0.044 C 
BRANCH  18  19
ATOM     19  C   UNL     1      33.118  -7.488 -20.685  0.00  0.00    -0.025 C 
ATOM     20  C   UNL     1      32.612  -7.058 -19.524  0.00  0.00    -0.005 C 
ENDBRANCH  18  19
ENDBRANCH   6  18
TORSDOF 5
ENDMDL
