MODEL 1
REMARK VINA RESULT:      -8.8      0.000      0.000
REMARK  Name = 62156
REMARK  8 active torsions:
REMARK  status: ('A' for Active; 'I' for Inactive)
REMARK    1  A    between atoms: N_1  and  C_23
REMARK    2  A    between atoms: C_2  and  N_9
REMARK    3  A    between atoms: C_2  and  C_20
REMARK    4  A    between atoms: N_9  and  C_11
REMARK    5  A    between atoms: C_10  and  C_17
REMARK    6  A    between atoms: C_20  and  O_21
REMARK    7  A    between atoms: C_23  and  C_24
REMARK    8  A    between atoms: C_24  and  C_25
REMARK                            x       y       z     vdW  Elec       q    Type
REMARK                         _______ _______ _______ _____ _____    ______ ____
ROOT
ATOM      1  N   UNL     1      36.184 -21.778 -17.407  0.00  0.00    +0.387 N 
ATOM      2  C   UNL     1      35.552 -23.583 -15.177  0.00  0.00    +0.149 C 
ATOM      3  C   UNL     1      34.534 -23.227 -16.263  0.00  0.00    +0.007 C 
ATOM      4  C   UNL     1      36.649 -22.518 -15.090  0.00  0.00    +0.007 C 
ATOM      5  C   UNL     1      35.205 -22.857 -17.590  0.00  0.00    -0.075 C 
ATOM      6  C   UNL     1      37.236 -22.176 -16.463  0.00  0.00    -0.075 C 
ATOM      7  H   UNL     1      35.696 -20.972 -17.015  0.00  0.00    -0.080 HD
ENDROOT
BRANCH   2   9
ATOM      8  O   UNL     1      36.839 -23.734 -12.534  0.00  0.00    -0.275 OA
ATOM      9  N   UNL     1      34.902 -23.755 -13.899  0.00  0.00    -0.252 N 
ATOM     10  C   UNL     1      35.615 -23.817 -12.665  0.00  0.00    +0.230 C 
BRANCH   9  11
ATOM     11  C   UNL     1      33.445 -23.872 -13.869  0.00  0.00    +0.054 C 
ATOM     12  C   UNL     1      32.653 -22.730 -13.979  0.00  0.00    +0.015 C 
ATOM     13  C   UNL     1      32.848 -25.125 -13.731  0.00  0.00    +0.015 C 
ATOM     14  C   UNL     1      31.263 -22.840 -13.951  0.00  0.00    +0.001 C 
ATOM     15  C   UNL     1      31.458 -25.236 -13.703  0.00  0.00    +0.001 C 
ATOM     16  C   UNL     1      30.666 -24.093 -13.813  0.00  0.00    +0.000 C 
ENDBRANCH   9  11
BRANCH  10  17
ATOM     17  C   UNL     1      34.748 -24.050 -11.430  0.00  0.00    +0.086 C 
ATOM     18  C   UNL     1      35.551 -24.508 -10.223  0.00  0.00    +0.010 C 
ENDBRANCH  10  17
ENDBRANCH   2   9
BRANCH   2  20
ATOM     19  O   UNL     1      35.491 -25.925 -15.753  0.00  0.00    -0.248 OA
ATOM     20  C   UNL     1      36.142 -24.947 -15.414  0.00  0.00    +0.333 C 
BRANCH  20  21
ATOM     21  O   UNL     1      37.487 -24.907 -15.192  0.00  0.00    -0.443 OA
ATOM     22  C   UNL     1      38.070 -26.128 -14.725  0.00  0.00    +0.256 C 
ENDBRANCH  20  21
ENDBRANCH   2  20
BRANCH   1  23
ATOM     23  C   UNL     1      36.768 -21.394 -18.691  0.00  0.00    -0.073 C 
BRANCH  23  24
ATOM     24  C   UNL     1      35.855 -21.794 -19.851  0.00  0.00    +0.004 C 
BRANCH  24  25
ATOM     25  C   UNL     1      35.021 -20.631 -20.325  0.00  0.00    -0.024 C 
ATOM     26  C   UNL     1      35.635 -19.522 -20.906  0.00  0.00    -0.004 C 
ATOM     27  C   UNL     1      33.633 -20.664 -20.182  0.00  0.00    -0.004 C 
ATOM     28  C   UNL     1      34.863 -18.445 -21.344  0.00  0.00    -0.000 C 
ATOM     29  C   UNL     1      32.861 -19.588 -20.621  0.00  0.00    -0.000 C 
ATOM     30  C   UNL     1      33.476 -18.479 -21.202  0.00  0.00    -0.000 C 
ENDBRANCH  24  25
ENDBRANCH  23  24
ENDBRANCH   1  23
TORSDOF 8
ENDMDL
MODEL 2
REMARK VINA RESULT:      -7.5      7.786     13.238
REMARK  Name = 62156
REMARK  8 active torsions:
REMARK  status: ('A' for Active; 'I' for Inactive)
REMARK    1  A    between atoms: N_1  and  C_23
REMARK    2  A    between atoms: C_2  and  N_9
REMARK    3  A    between atoms: C_2  and  C_20
REMARK    4  A    between atoms: N_9  and  C_11
REMARK    5  A    between atoms: C_10  and  C_17
REMARK    6  A    between atoms: C_20  and  O_21
REMARK    7  A    between atoms: C_23  and  C_24
REMARK    8  A    between atoms: C_24  and  C_25
REMARK                            x       y       z     vdW  Elec       q    Type
REMARK                         _______ _______ _______ _____ _____    ______ ____
ROOT
ATOM      1  N   UNL     1      34.203 -15.353 -20.998  0.00  0.00    +0.387 N 
ATOM      2  C   UNL     1      33.166 -13.399 -22.931  0.00  0.00    +0.149 C 
ATOM      3  C   UNL     1      34.659 -13.703 -22.785  0.00  0.00    +0.007 C 
ATOM      4  C   UNL     1      32.407 -13.780 -21.656  0.00  0.00    +0.007 C 
ATOM      5  C   UNL     1      34.917 -15.118 -22.259  0.00  0.00    -0.075 C 
ATOM      6  C   UNL     1      32.754 -15.192 -21.174  0.00  0.00    -0.075 C 
ATOM      7  H   UNL     1      34.518 -14.658 -20.322  0.00  0.00    -0.080 HD
ENDROOT
BRANCH   2   9
ATOM      8  O   UNL     1      31.113 -11.606 -21.821  0.00  0.00    -0.275 OA
ATOM      9  N   UNL     1      32.953 -12.009 -23.258  0.00  0.00    -0.252 N 
ATOM     10  C   UNL     1      31.926 -11.218 -22.664  0.00  0.00    +0.230 C 
BRANCH   9  11
ATOM     11  C   UNL     1      33.831 -11.384 -24.246  0.00  0.00    +0.054 C 
ATOM     12  C   UNL     1      34.594 -10.271 -23.894  0.00  0.00    +0.015 C 
ATOM     13  C   UNL     1      33.906 -11.900 -25.539  0.00  0.00    +0.015 C 
ATOM     14  C   UNL     1      35.432  -9.674 -24.835  0.00  0.00    +0.001 C 
ATOM     15  C   UNL     1      34.743 -11.303 -26.481  0.00  0.00    +0.001 C 
ATOM     16  C   UNL     1      35.507 -10.190 -26.129  0.00  0.00    +0.000 C 
ENDBRANCH   9  11
BRANCH  10  17
ATOM     17  C   UNL     1      31.836  -9.784 -23.180  0.00  0.00    +0.086 C 
ATOM     18  C   UNL     1      31.857  -8.753 -22.063  0.00  0.00    +0.010 C 
ENDBRANCH  10  17
ENDBRANCH   2   9
BRANCH   2  20
ATOM     19  O   UNL     1      31.541 -13.769 -24.675  0.00  0.00    -0.248 OA
ATOM     20  C   UNL     1      32.587 -14.097 -24.132  0.00  0.00    +0.333 C 
BRANCH  20  21
ATOM     21  O   UNL     1      33.403 -15.125 -24.499  0.00  0.00    -0.443 OA
ATOM     22  C   UNL     1      33.347 -15.490 -25.882  0.00  0.00    +0.256 C 
ENDBRANCH  20  21
ENDBRANCH   2  20
BRANCH   1  23
ATOM     23  C   UNL     1      34.510 -16.685 -20.477  0.00  0.00    -0.073 C 
BRANCH  23  24
ATOM     24  C   UNL     1      34.229 -17.762 -21.526  0.00  0.00    +0.004 C 
BRANCH  24  25
ATOM     25  C   UNL     1      34.247 -19.142 -20.920  0.00  0.00    -0.024 C 
ATOM     26  C   UNL     1      33.050 -19.760 -20.557  0.00  0.00    -0.004 C 
ATOM     27  C   UNL     1      35.460 -19.802 -20.722  0.00  0.00    -0.004 C 
ATOM     28  C   UNL     1      33.066 -21.037 -19.995  0.00  0.00    -0.000 C 
ATOM     29  C   UNL     1      35.476 -21.079 -20.162  0.00  0.00    -0.000 C 
ATOM     30  C   UNL     1      34.279 -21.697 -19.798  0.00  0.00    -0.000 C 
ENDBRANCH  24  25
ENDBRANCH  23  24
ENDBRANCH   1  23
TORSDOF 8
ENDMDL
MODEL 3
REMARK VINA RESULT:      -7.4      7.427     12.387
REMARK  Name = 62156
REMARK  8 active torsions:
REMARK  status: ('A' for Active; 'I' for Inactive)
REMARK    1  A    between atoms: N_1  and  C_23
REMARK    2  A    between atoms: C_2  and  N_9
REMARK    3  A    between atoms: C_2  and  C_20
REMARK    4  A    between atoms: N_9  and  C_11
REMARK    5  A    between atoms: C_10  and  C_17
REMARK    6  A    between atoms: C_20  and  O_21
REMARK    7  A    between atoms: C_23  and  C_24
REMARK    8  A    between atoms: C_24  and  C_25
REMARK                            x       y       z     vdW  Elec       q    Type
REMARK                         _______ _______ _______ _____ _____    ______ ____
ROOT
ATOM      1  N   UNL     1      34.455 -16.323 -21.756  0.00  0.00    +0.387 N 
ATOM      2  C   UNL     1      33.298 -13.929 -23.004  0.00  0.00    +0.149 C 
ATOM      3  C   UNL     1      34.796 -14.241 -23.051  0.00  0.00    +0.007 C 
ATOM      4  C   UNL     1      32.628 -14.653 -21.832  0.00  0.00    +0.007 C 
ATOM      5  C   UNL     1      35.080 -15.743 -22.951  0.00  0.00    -0.075 C 
ATOM      6  C   UNL     1      32.998 -16.139 -21.781  0.00  0.00    -0.075 C 
ATOM      7  H   UNL     1      34.822 -15.834 -20.939  0.00  0.00    -0.080 HD
ENDROOT
BRANCH   2   9
ATOM      8  O   UNL     1      34.339 -11.858 -24.819  0.00  0.00    -0.275 OA
ATOM      9  N   UNL     1      33.071 -12.505 -22.923  0.00  0.00    -0.252 N 
ATOM     10  C   UNL     1      33.622 -11.575 -23.855  0.00  0.00    +0.230 C 
BRANCH   9  11
ATOM     11  C   UNL     1      32.241 -11.993 -21.836  0.00  0.00    +0.054 C 
ATOM     12  C   UNL     1      32.696 -12.063 -20.519  0.00  0.00    +0.015 C 
ATOM     13  C   UNL     1      30.994 -11.433 -22.113  0.00  0.00    +0.015 C 
ATOM     14  C   UNL     1      31.904 -11.575 -19.480  0.00  0.00    +0.001 C 
ATOM     15  C   UNL     1      30.201 -10.945 -21.074  0.00  0.00    +0.001 C 
ATOM     16  C   UNL     1      30.657 -11.015 -19.758  0.00  0.00    +0.000 C 
ENDBRANCH   9  11
BRANCH  10  17
ATOM     17  C   UNL     1      33.304 -10.110 -23.568  0.00  0.00    +0.086 C 
ATOM     18  C   UNL     1      34.437  -9.174 -23.958  0.00  0.00    +0.010 C 
ENDBRANCH  10  17
ENDBRANCH   2   9
BRANCH   2  20
ATOM     19  O   UNL     1      31.550 -13.833 -24.664  0.00  0.00    -0.248 OA
ATOM     20  C   UNL     1      32.631 -14.279 -24.307  0.00  0.00    +0.333 C 
BRANCH  20  21
ATOM     21  O   UNL     1      33.415 -15.153 -25.000  0.00  0.00    -0.443 OA
ATOM     22  C   UNL     1      33.309 -15.077 -26.425  0.00  0.00    +0.256 C 
ENDBRANCH  20  21
ENDBRANCH   2  20
BRANCH   1  23
ATOM     23  C   UNL     1      34.789 -17.742 -21.642  0.00  0.00    -0.073 C 
BRANCH  23  24
ATOM     24  C   UNL     1      33.585 -18.552 -21.159  0.00  0.00    +0.004 C 
BRANCH  24  25
ATOM     25  C   UNL     1      34.011 -19.844 -20.510  0.00  0.00    -0.024 C 
ATOM     26  C   UNL     1      35.357 -20.208 -20.497  0.00  0.00    -0.004 C 
ATOM     27  C   UNL     1      33.058 -20.676 -19.921  0.00  0.00    -0.004 C 
ATOM     28  C   UNL     1      35.752 -21.404 -19.897  0.00  0.00    -0.000 C 
ATOM     29  C   UNL     1      33.452 -21.872 -19.320  0.00  0.00    -0.000 C 
ATOM     30  C   UNL     1      34.799 -22.236 -19.308  0.00  0.00    -0.000 C 
ENDBRANCH  24  25
ENDBRANCH  23  24
ENDBRANCH   1  23
TORSDOF 8
ENDMDL
MODEL 4
REMARK VINA RESULT:      -7.0      2.363      6.069
REMARK  Name = 62156
REMARK  8 active torsions:
REMARK  status: ('A' for Active; 'I' for Inactive)
REMARK    1  A    between atoms: N_1  and  C_23
REMARK    2  A    between atoms: C_2  and  N_9
REMARK    3  A    between atoms: C_2  and  C_20
REMARK    4  A    between atoms: N_9  and  C_11
REMARK    5  A    between atoms: C_10  and  C_17
REMARK    6  A    between atoms: C_20  and  O_21
REMARK    7  A    between atoms: C_23  and  C_24
REMARK    8  A    between atoms: C_24  and  C_25
REMARK                            x       y       z     vdW  Elec       q    Type
REMARK                         _______ _______ _______ _____ _____    ______ ____
ROOT
ATOM      1  N   UNL     1      31.743 -24.092 -14.222  0.00  0.00    +0.387 N 
ATOM      2  C   UNL     1      34.674 -24.117 -14.032  0.00  0.00    +0.149 C 
ATOM      3  C   UNL     1      33.886 -22.876 -14.458  0.00  0.00    +0.007 C 
ATOM      4  C   UNL     1      33.852 -25.388 -14.263  0.00  0.00    +0.007 C 
ATOM      5  C   UNL     1      32.467 -22.861 -13.881  0.00  0.00    -0.075 C 
ATOM      6  C   UNL     1      32.435 -25.275 -13.694  0.00  0.00    -0.075 C 
ATOM      7  H   UNL     1      31.715 -24.171 -15.239  0.00  0.00    -0.080 HD
ENDROOT
BRANCH   2   9
ATOM      8  O   UNL     1      36.835 -26.068 -13.598  0.00  0.00    -0.275 OA
ATOM      9  N   UNL     1      35.937 -24.189 -14.729  0.00  0.00    -0.252 N 
ATOM     10  C   UNL     1      36.927 -25.176 -14.447  0.00  0.00    +0.230 C 
BRANCH   9  11
ATOM     11  C   UNL     1      36.214 -23.203 -15.772  0.00  0.00    +0.054 C 
ATOM     12  C   UNL     1      35.390 -23.127 -16.895  0.00  0.00    +0.015 C 
ATOM     13  C   UNL     1      37.300 -22.337 -15.644  0.00  0.00    +0.015 C 
ATOM     14  C   UNL     1      35.653 -22.186 -17.890  0.00  0.00    +0.001 C 
ATOM     15  C   UNL     1      37.563 -21.397 -16.640  0.00  0.00    +0.001 C 
ATOM     16  C   UNL     1      36.739 -21.321 -17.763  0.00  0.00    +0.000 C 
ENDBRANCH   9  11
BRANCH  10  17
ATOM     17  C   UNL     1      38.212 -25.052 -15.261  0.00  0.00    +0.086 C 
ATOM     18  C   UNL     1      39.434 -25.564 -14.515  0.00  0.00    +0.010 C 
ENDBRANCH  10  17
ENDBRANCH   2   9
BRANCH   2  20
ATOM     19  O   UNL     1      34.771 -24.789 -11.717  0.00  0.00    -0.248 OA
ATOM     20  C   UNL     1      35.114 -24.012 -12.597  0.00  0.00    +0.333 C 
BRANCH  20  21
ATOM     21  O   UNL     1      35.935 -22.933 -12.449  0.00  0.00    -0.443 OA
ATOM     22  C   UNL     1      36.978 -23.082 -11.481  0.00  0.00    +0.256 C 
ENDBRANCH  20  21
ENDBRANCH   2  20
BRANCH   1  23
ATOM     23  C   UNL     1      30.371 -24.035 -13.719  0.00  0.00    -0.073 C 
BRANCH  23  24
ATOM     24  C   UNL     1      29.425 -24.838 -14.612  0.00  0.00    +0.004 C 
BRANCH  24  25
ATOM     25  C   UNL     1      28.644 -23.942 -15.539  0.00  0.00    -0.024 C 
ATOM     26  C   UNL     1      28.458 -24.309 -16.872  0.00  0.00    -0.004 C 
ATOM     27  C   UNL     1      28.108 -22.744 -15.065  0.00  0.00    -0.004 C 
ATOM     28  C   UNL     1      27.736 -23.479 -17.730  0.00  0.00    -0.000 C 
ATOM     29  C   UNL     1      27.386 -21.915 -15.922  0.00  0.00    -0.000 C 
ATOM     30  C   UNL     1      27.200 -22.282 -17.255  0.00  0.00    -0.000 C 
ENDBRANCH  24  25
ENDBRANCH  23  24
ENDBRANCH   1  23
TORSDOF 8
ENDMDL
MODEL 5
REMARK VINA RESULT:      -7.0     11.971     17.293
REMARK  Name = 62156
REMARK  8 active torsions:
REMARK  status: ('A' for Active; 'I' for Inactive)
REMARK    1  A    between atoms: N_1  and  C_23
REMARK    2  A    between atoms: C_2  and  N_9
REMARK    3  A    between atoms: C_2  and  C_20
REMARK    4  A    between atoms: N_9  and  C_11
REMARK    5  A    between atoms: C_10  and  C_17
REMARK    6  A    between atoms: C_20  and  O_21
REMARK    7  A    between atoms: C_23  and  C_24
REMARK    8  A    between atoms: C_24  and  C_25
REMARK                            x       y       z     vdW  Elec       q    Type
REMARK                         _______ _______ _______ _____ _____    ______ ____
ROOT
ATOM      1  N   UNL     1      33.384 -10.908 -24.299  0.00  0.00    +0.387 N 
ATOM      2  C   UNL     1      32.923  -8.113 -23.520  0.00  0.00    +0.149 C 
ATOM      3  C   UNL     1      31.786  -9.128 -23.661  0.00  0.00    +0.007 C 
ATOM      4  C   UNL     1      34.147  -8.552 -24.330  0.00  0.00    +0.007 C 
ATOM      5  C   UNL     1      32.257 -10.566 -23.422  0.00  0.00    -0.075 C 
ATOM      6  C   UNL     1      34.524 -10.013 -24.065  0.00  0.00    -0.075 C 
ATOM      7  H   UNL     1      33.081 -10.786 -25.266  0.00  0.00    -0.080 HD
ENDROOT
BRANCH   2   9
ATOM      8  O   UNL     1      30.730  -6.533 -22.355  0.00  0.00    -0.275 OA
ATOM      9  N   UNL     1      32.489  -6.795 -23.921  0.00  0.00    -0.252 N 
ATOM     10  C   UNL     1      31.411  -6.106 -23.292  0.00  0.00    +0.230 C 
BRANCH   9  11
ATOM     11  C   UNL     1      33.188  -6.138 -25.024  0.00  0.00    +0.054 C 
ATOM     12  C   UNL     1      32.474  -5.361 -25.936  0.00  0.00    +0.015 C 
ATOM     13  C   UNL     1      34.568  -6.286 -25.163  0.00  0.00    +0.015 C 
ATOM     14  C   UNL     1      33.140  -4.733 -26.989  0.00  0.00    +0.001 C 
ATOM     15  C   UNL     1      35.234  -5.658 -26.216  0.00  0.00    +0.001 C 
ATOM     16  C   UNL     1      34.520  -4.882 -27.128  0.00  0.00    +0.000 C 
ENDBRANCH   9  11
BRANCH  10  17
ATOM     17  C   UNL     1      31.077  -4.744 -23.895  0.00  0.00    +0.086 C 
ATOM     18  C   UNL     1      31.265  -3.601 -22.909  0.00  0.00    +0.010 C 
ENDBRANCH  10  17
ENDBRANCH   2   9
BRANCH   2  20
ATOM     19  O   UNL     1      34.123  -7.100 -21.689  0.00  0.00    -0.248 OA
ATOM     20  C   UNL     1      33.281  -7.899 -22.074  0.00  0.00    +0.333 C 
BRANCH  20  21
ATOM     21  O   UNL     1      32.529  -8.723 -21.292  0.00  0.00    -0.443 OA
ATOM     22  C   UNL     1      32.264  -8.243 -19.970  0.00  0.00    +0.256 C 
ENDBRANCH  20  21
ENDBRANCH   2  20
BRANCH   1  23
ATOM     23  C   UNL     1      33.779 -12.302 -24.104  0.00  0.00    -0.073 C 
BRANCH  23  24
ATOM     24  C   UNL     1      32.918 -12.972 -23.033  0.00  0.00    +0.004 C 
BRANCH  24  25
ATOM     25  C   UNL     1      33.606 -14.176 -22.443  0.00  0.00    -0.024 C 
ATOM     26  C   UNL     1      33.518 -14.429 -21.074  0.00  0.00    -0.004 C 
ATOM     27  C   UNL     1      34.330 -15.039 -23.266  0.00  0.00    -0.004 C 
ATOM     28  C   UNL     1      34.156 -15.544 -20.528  0.00  0.00    -0.000 C 
ATOM     29  C   UNL     1      34.966 -16.154 -22.720  0.00  0.00    -0.000 C 
ATOM     30  C   UNL     1      34.879 -16.406 -21.351  0.00  0.00    -0.000 C 
ENDBRANCH  24  25
ENDBRANCH  23  24
ENDBRANCH   1  23
TORSDOF 8
ENDMDL
MODEL 6
REMARK VINA RESULT:      -6.9      1.092      2.849
REMARK  Name = 62156
REMARK  8 active torsions:
REMARK  status: ('A' for Active; 'I' for Inactive)
REMARK    1  A    between atoms: N_1  and  C_23
REMARK    2  A    between atoms: C_2  and  N_9
REMARK    3  A    between atoms: C_2  and  C_20
REMARK    4  A    between atoms: N_9  and  C_11
REMARK    5  A    between atoms: C_10  and  C_17
REMARK    6  A    between atoms: C_20  and  O_21
REMARK    7  A    between atoms: C_23  and  C_24
REMARK    8  A    between atoms: C_24  and  C_25
REMARK                            x       y       z     vdW  Elec       q    Type
REMARK                         _______ _______ _______ _____ _____    ______ ____
ROOT
ATOM      1  N   UNL     1      36.133 -21.688 -17.848  0.00  0.00    +0.387 N 
ATOM      2  C   UNL     1      35.274 -23.402 -15.622  0.00  0.00    +0.149 C 
ATOM      3  C   UNL     1      34.387 -23.124 -16.838  0.00  0.00    +0.007 C 
ATOM      4  C   UNL     1      36.331 -22.306 -15.458  0.00  0.00    +0.007 C 
ATOM      5  C   UNL     1      35.205 -22.799 -18.093  0.00  0.00    -0.075 C 
ATOM      6  C   UNL     1      37.072 -22.014 -16.766  0.00  0.00    -0.075 C 
ATOM      7  H   UNL     1      35.586 -20.878 -17.558  0.00  0.00    -0.080 HD
ENDROOT
BRANCH   2   9
ATOM      8  O   UNL     1      32.338 -23.343 -15.424  0.00  0.00    -0.275 OA
ATOM      9  N   UNL     1      34.478 -23.530 -14.424  0.00  0.00    -0.252 N 
ATOM     10  C   UNL     1      33.052 -23.489 -14.428  0.00  0.00    +0.230 C 
BRANCH   9  11
ATOM     11  C   UNL     1      35.166 -23.710 -13.147  0.00  0.00    +0.054 C 
ATOM     12  C   UNL     1      36.264 -22.910 -12.830  0.00  0.00    +0.015 C 
ATOM     13  C   UNL     1      34.725 -24.679 -12.246  0.00  0.00    +0.015 C 
ATOM     14  C   UNL     1      36.922 -23.081 -11.611  0.00  0.00    +0.001 C 
ATOM     15  C   UNL     1      35.382 -24.849 -11.028  0.00  0.00    +0.001 C 
ATOM     16  C   UNL     1      36.480 -24.050 -10.711  0.00  0.00    +0.000 C 
ENDBRANCH   9  11
BRANCH  10  17
ATOM     17  C   UNL     1      32.399 -23.594 -13.052  0.00  0.00    +0.086 C 
ATOM     18  C   UNL     1      30.903 -23.852 -13.128  0.00  0.00    +0.010 C 
ENDBRANCH  10  17
ENDBRANCH   2   9
BRANCH   2  20
ATOM     19  O   UNL     1      35.303 -25.790 -15.966  0.00  0.00    -0.248 OA
ATOM     20  C   UNL     1      35.915 -24.760 -15.719  0.00  0.00    +0.333 C 
BRANCH  20  21
ATOM     21  O   UNL     1      37.255 -24.649 -15.491  0.00  0.00    -0.443 OA
ATOM     22  C   UNL     1      37.852 -25.744 -14.789  0.00  0.00    +0.256 C 
ENDBRANCH  20  21
ENDBRANCH   2  20
BRANCH   1  23
ATOM     23  C   UNL     1      36.860 -21.350 -19.071  0.00  0.00    -0.073 C 
BRANCH  23  24
ATOM     24  C   UNL     1      35.959 -21.484 -20.299  0.00  0.00    +0.004 C 
BRANCH  24  25
ATOM     25  C   UNL     1      35.318 -20.168 -20.662  0.00  0.00    -0.024 C 
ATOM     26  C   UNL     1      33.930 -20.041 -20.647  0.00  0.00    -0.004 C 
ATOM     27  C   UNL     1      36.115 -19.078 -21.013  0.00  0.00    -0.004 C 
ATOM     28  C   UNL     1      33.336 -18.823 -20.983  0.00  0.00    -0.000 C 
ATOM     29  C   UNL     1      35.522 -17.861 -21.348  0.00  0.00    -0.000 C 
ATOM     30  C   UNL     1      34.133 -17.733 -21.334  0.00  0.00    -0.000 C 
ENDBRANCH  24  25
ENDBRANCH  23  24
ENDBRANCH   1  23
TORSDOF 8
ENDMDL
MODEL 7
REMARK VINA RESULT:      -6.7     12.069     17.138
REMARK  Name = 62156
REMARK  8 active torsions:
REMARK  status: ('A' for Active; 'I' for Inactive)
REMARK    1  A    between atoms: N_1  and  C_23
REMARK    2  A    between atoms: C_2  and  N_9
REMARK    3  A    between atoms: C_2  and  C_20
REMARK    4  A    between atoms: N_9  and  C_11
REMARK    5  A    between atoms: C_10  and  C_17
REMARK    6  A    between atoms: C_20  and  O_21
REMARK    7  A    between atoms: C_23  and  C_24
REMARK    8  A    between atoms: C_24  and  C_25
REMARK                            x       y       z     vdW  Elec       q    Type
REMARK                         _______ _______ _______ _____ _____    ______ ____
ROOT
ATOM      1  N   UNL     1      32.188 -10.927 -23.468  0.00  0.00    +0.387 N 
ATOM      2  C   UNL     1      32.365  -8.068 -22.816  0.00  0.00    +0.149 C 
ATOM      3  C   UNL     1      31.030  -8.811 -22.909  0.00  0.00    +0.007 C 
ATOM      4  C   UNL     1      33.453  -8.802 -23.606  0.00  0.00    +0.007 C 
ATOM      5  C   UNL     1      31.174 -10.306 -22.606  0.00  0.00    -0.075 C 
ATOM      6  C   UNL     1      33.501 -10.297 -23.276  0.00  0.00    -0.075 C 
ATOM      7  H   UNL     1      31.908 -10.783 -24.439  0.00  0.00    -0.080 HD
ENDROOT
BRANCH   2   9
ATOM      8  O   UNL     1      30.642  -5.972 -21.676  0.00  0.00    -0.275 OA
ATOM      9  N   UNL     1      32.229  -6.705 -23.275  0.00  0.00    -0.252 N 
ATOM     10  C   UNL     1      31.363  -5.758 -22.654  0.00  0.00    +0.230 C 
BRANCH   9  11
ATOM     11  C   UNL     1      33.015  -6.279 -24.432  0.00  0.00    +0.054 C 
ATOM     12  C   UNL     1      34.362  -6.629 -24.525  0.00  0.00    +0.015 C 
ATOM     13  C   UNL     1      32.418  -5.524 -25.441  0.00  0.00    +0.015 C 
ATOM     14  C   UNL     1      35.112  -6.222 -25.629  0.00  0.00    +0.001 C 
ATOM     15  C   UNL     1      33.168  -5.117 -26.544  0.00  0.00    +0.001 C 
ATOM     16  C   UNL     1      34.515  -5.467 -26.638  0.00  0.00    +0.000 C 
ENDBRANCH   9  11
BRANCH  10  17
ATOM     17  C   UNL     1      31.326  -4.384 -23.320  0.00  0.00    +0.086 C 
ATOM     18  C   UNL     1      30.583  -3.347 -22.492  0.00  0.00    +0.010 C 
ENDBRANCH  10  17
ENDBRANCH   2   9
BRANCH   2  20
ATOM     19  O   UNL     1      33.821  -7.338 -21.036  0.00  0.00    -0.248 OA
ATOM     20  C   UNL     1      32.778  -7.875 -21.382  0.00  0.00    +0.333 C 
BRANCH  20  21
ATOM     21  O   UNL     1      31.819  -8.387 -20.559  0.00  0.00    -0.443 OA
ATOM     22  C   UNL     1      32.295  -9.258 -19.528  0.00  0.00    +0.256 C 
ENDBRANCH  20  21
ENDBRANCH   2  20
BRANCH   1  23
ATOM     23  C   UNL     1      32.267 -12.364 -23.211  0.00  0.00    -0.073 C 
BRANCH  23  24
ATOM     24  C   UNL     1      33.720 -12.842 -23.211  0.00  0.00    +0.004 C 
BRANCH  24  25
ATOM     25  C   UNL     1      33.867 -14.165 -23.918  0.00  0.00    -0.024 C 
ATOM     26  C   UNL     1      33.252 -14.369 -25.153  0.00  0.00    -0.004 C 
ATOM     27  C   UNL     1      34.618 -15.187 -23.337  0.00  0.00    -0.004 C 
ATOM     28  C   UNL     1      33.388 -15.594 -25.807  0.00  0.00    -0.000 C 
ATOM     29  C   UNL     1      34.755 -16.411 -23.991  0.00  0.00    -0.000 C 
ATOM     30  C   UNL     1      34.139 -16.615 -25.225  0.00  0.00    -0.000 C 
ENDBRANCH  24  25
ENDBRANCH  23  24
ENDBRANCH   1  23
TORSDOF 8
ENDMDL
MODEL 8
REMARK VINA RESULT:      -6.7      9.589     14.260
REMARK  Name = 62156
REMARK  8 active torsions:
REMARK  status: ('A' for Active; 'I' for Inactive)
REMARK    1  A    between atoms: N_1  and  C_23
REMARK    2  A    between atoms: C_2  and  N_9
REMARK    3  A    between atoms: C_2  and  C_20
REMARK    4  A    between atoms: N_9  and  C_11
REMARK    5  A    between atoms: C_10  and  C_17
REMARK    6  A    between atoms: C_20  and  O_21
REMARK    7  A    between atoms: C_23  and  C_24
REMARK    8  A    between atoms: C_24  and  C_25
REMARK                            x       y       z     vdW  Elec       q    Type
REMARK                         _______ _______ _______ _____ _____    ______ ____
ROOT
ATOM      1  N   UNL     1      33.234 -14.130 -24.165  0.00  0.00    +0.387 N 
ATOM      2  C   UNL     1      33.111 -11.236 -23.669  0.00  0.00    +0.149 C 
ATOM      3  C   UNL     1      33.460 -12.246 -22.573  0.00  0.00    +0.007 C 
ATOM      4  C   UNL     1      32.336 -11.912 -24.804  0.00  0.00    +0.007 C 
ATOM      5  C   UNL     1      34.091 -13.523 -23.138  0.00  0.00    -0.075 C 
ATOM      6  C   UNL     1      33.012 -13.201 -25.281  0.00  0.00    -0.075 C 
ATOM      7  H   UNL     1      32.330 -14.335 -23.740  0.00  0.00    -0.080 HD
ENDROOT
BRANCH   2   9
ATOM      8  O   UNL     1      32.327  -8.768 -25.068  0.00  0.00    -0.275 OA
ATOM      9  N   UNL     1      32.362 -10.127 -23.127  0.00  0.00    -0.252 N 
ATOM     10  C   UNL     1      32.028  -8.967 -23.887  0.00  0.00    +0.230 C 
BRANCH   9  11
ATOM     11  C   UNL     1      31.927 -10.196 -21.733  0.00  0.00    +0.054 C 
ATOM     12  C   UNL     1      30.957 -11.122 -21.352  0.00  0.00    +0.015 C 
ATOM     13  C   UNL     1      32.482  -9.337 -20.785  0.00  0.00    +0.015 C 
ATOM     14  C   UNL     1      30.541 -11.189 -20.022  0.00  0.00    +0.001 C 
ATOM     15  C   UNL     1      32.066  -9.403 -19.455  0.00  0.00    +0.001 C 
ATOM     16  C   UNL     1      31.096 -10.330 -19.074  0.00  0.00    +0.000 C 
ENDBRANCH   9  11
BRANCH  10  17
ATOM     17  C   UNL     1      31.274  -7.886 -23.117  0.00  0.00    +0.086 C 
ATOM     18  C   UNL     1      31.925  -6.517 -23.233  0.00  0.00    +0.010 C 
ENDBRANCH  10  17
ENDBRANCH   2   9
BRANCH   2  20
ATOM     19  O   UNL     1      34.997  -9.737 -23.555  0.00  0.00    -0.248 OA
ATOM     20  C   UNL     1      34.347 -10.555 -24.190  0.00  0.00    +0.333 C 
BRANCH  20  21
ATOM     21  O   UNL     1      34.610 -10.993 -25.455  0.00  0.00    -0.443 OA
ATOM     22  C   UNL     1      35.683 -10.325 -26.126  0.00  0.00    +0.256 C 
ENDBRANCH  20  21
ENDBRANCH   2  20
BRANCH   1  23
ATOM     23  C   UNL     1      33.820 -15.379 -24.648  0.00  0.00    -0.073 C 
BRANCH  23  24
ATOM     24  C   UNL     1      35.080 -15.735 -23.858  0.00  0.00    +0.004 C 
BRANCH  24  25
ATOM     25  C   UNL     1      34.945 -17.070 -23.171  0.00  0.00    -0.024 C 
ATOM     26  C   UNL     1      34.821 -17.131 -21.783  0.00  0.00    -0.004 C 
ATOM     27  C   UNL     1      34.942 -18.245 -23.924  0.00  0.00    -0.004 C 
ATOM     28  C   UNL     1      34.696 -18.367 -21.147  0.00  0.00    -0.000 C 
ATOM     29  C   UNL     1      34.816 -19.480 -23.288  0.00  0.00    -0.000 C 
ATOM     30  C   UNL     1      34.693 -19.541 -21.900  0.00  0.00    -0.000 C 
ENDBRANCH  24  25
ENDBRANCH  23  24
ENDBRANCH   1  23
TORSDOF 8
ENDMDL
MODEL 9
REMARK VINA RESULT:      -6.7      7.608     13.165
REMARK  Name = 62156
REMARK  8 active torsions:
REMARK  status: ('A' for Active; 'I' for Inactive)
REMARK    1  A    between atoms: N_1  and  C_23
REMARK    2  A    between atoms: C_2  and  N_9
REMARK    3  A    between atoms: C_2  and  C_20
REMARK    4  A    between atoms: N_9  and  C_11
REMARK    5  A    between atoms: C_10  and  C_17
REMARK    6  A    between atoms: C_20  and  O_21
REMARK    7  A    between atoms: C_23  and  C_24
REMARK    8  A    between atoms: C_24  and  C_25
REMARK                            x       y       z     vdW  Elec       q    Type
REMARK                         _______ _______ _______ _____ _____    ______ ____
ROOT
ATOM      1  N   UNL     1      34.898 -16.058 -21.894  0.00  0.00    +0.387 N 
ATOM      2  C   UNL     1      33.533 -13.851 -23.270  0.00  0.00    +0.149 C 
ATOM      3  C   UNL     1      33.460 -15.299 -23.761  0.00  0.00    +0.007 C 
ATOM      4  C   UNL     1      34.769 -13.636 -22.393  0.00  0.00    +0.007 C 
ATOM      5  C   UNL     1      33.648 -16.308 -22.623  0.00  0.00    -0.075 C 
ATOM      6  C   UNL     1      34.906 -14.711 -21.310  0.00  0.00    -0.075 C 
ATOM      7  H   UNL     1      35.669 -16.119 -22.558  0.00  0.00    -0.080 HD
ENDROOT
BRANCH   2   9
ATOM      8  O   UNL     1      33.148 -14.503 -26.115  0.00  0.00    -0.275 OA
ATOM      9  N   UNL     1      33.527 -12.930 -24.383  0.00  0.00    -0.252 N 
ATOM     10  C   UNL     1      33.332 -13.344 -25.734  0.00  0.00    +0.230 C 
BRANCH   9  11
ATOM     11  C   UNL     1      33.733 -11.509 -24.112  0.00  0.00    +0.054 C 
ATOM     12  C   UNL     1      32.751 -10.779 -23.443  0.00  0.00    +0.015 C 
ATOM     13  C   UNL     1      34.911 -10.884 -24.521  0.00  0.00    +0.015 C 
ATOM     14  C   UNL     1      32.946  -9.422 -23.184  0.00  0.00    +0.001 C 
ATOM     15  C   UNL     1      35.106  -9.527 -24.262  0.00  0.00    +0.001 C 
ATOM     16  C   UNL     1      34.124  -8.797 -23.593  0.00  0.00    +0.000 C 
ENDBRANCH   9  11
BRANCH  10  17
ATOM     17  C   UNL     1      33.409 -12.224 -26.769  0.00  0.00    +0.086 C 
ATOM     18  C   UNL     1      34.689 -12.266 -27.589  0.00  0.00    +0.010 C 
ENDBRANCH  10  17
ENDBRANCH   2   9
BRANCH   2  20
ATOM     19  O   UNL     1      31.185 -13.330 -23.073  0.00  0.00    -0.248 OA
ATOM     20  C   UNL     1      32.277 -13.464 -22.537  0.00  0.00    +0.333 C 
BRANCH  20  21
ATOM     21  O   UNL     1      32.556 -13.292 -21.214  0.00  0.00    -0.443 OA
ATOM     22  C   UNL     1      31.719 -12.357 -20.525  0.00  0.00    +0.256 C 
ENDBRANCH  20  21
ENDBRANCH   2  20
BRANCH   1  23
ATOM     23  C   UNL     1      35.094 -17.067 -20.854  0.00  0.00    -0.073 C 
BRANCH  23  24
ATOM     24  C   UNL     1      35.596 -18.382 -21.452  0.00  0.00    +0.004 C 
BRANCH  24  25
ATOM     25  C   UNL     1      34.992 -19.574 -20.755  0.00  0.00    -0.024 C 
ATOM     26  C   UNL     1      33.607 -19.741 -20.732  0.00  0.00    -0.004 C 
ATOM     27  C   UNL     1      35.817 -20.511 -20.133  0.00  0.00    -0.004 C 
ATOM     28  C   UNL     1      33.047 -20.844 -20.087  0.00  0.00    -0.000 C 
ATOM     29  C   UNL     1      35.258 -21.614 -19.488  0.00  0.00    -0.000 C 
ATOM     30  C   UNL     1      33.873 -21.780 -19.465  0.00  0.00    -0.000 C 
ENDBRANCH  24  25
ENDBRANCH  23  24
ENDBRANCH   1  23
TORSDOF 8
ENDMDL
