MODEL 1
REMARK VINA RESULT:     -10.7      0.000      0.000
REMARK  Name = 2179
REMARK  5 active torsions:
REMARK  status: ('A' for Active; 'I' for Inactive)
REMARK    1  A    between atoms: N_1  and  C_4
REMARK    2  A    between atoms: N_1  and  C_17
REMARK    3  A    between atoms: C_18  and  O_23
REMARK    4  A    between atoms: C_19  and  N_25
REMARK    5  A    between atoms: N_25  and  S_27
REMARK                            x       y       z     vdW  Elec       q    Type
REMARK                         _______ _______ _______ _____ _____    ______ ____
ROOT
ATOM      1  N   UNL     1      32.425 -13.051 -22.805  0.00  0.00    -0.313 N 
ATOM      2  H   UNL     1      31.578 -13.257 -23.263  0.00  0.00    +0.152 HD
ENDROOT
BRANCH   1   4
ATOM      3  N   UNL     1      33.250  -8.951 -22.530  0.00  0.00    -0.406 NA
ATOM      4  C   UNL     1      32.704 -11.660 -22.712  0.00  0.00    +0.038 C 
ATOM      5  C   UNL     1      32.196 -10.921 -21.639  0.00  0.00    +0.110 C 
ATOM      6  C   UNL     1      33.485 -11.043 -23.694  0.00  0.00    +0.040 C 
ATOM      7  C   UNL     1      32.498  -9.551 -21.586  0.00  0.00    +0.118 C 
ATOM      8  C   UNL     1      33.737  -9.667 -23.561  0.00  0.00    +0.132 C 
ATOM      9  C   UNL     1      31.408 -11.517 -20.638  0.00  0.00    -0.014 C 
ATOM     10  C   UNL     1      34.009 -11.761 -24.783  0.00  0.00    +0.003 C 
ATOM     11  C   UNL     1      31.994  -8.809 -20.520  0.00  0.00    +0.028 C 
ATOM     12  C   UNL     1      34.513  -9.046 -24.536  0.00  0.00    +0.032 C 
ATOM     13  C   UNL     1      30.917 -10.753 -19.582  0.00  0.00    -0.004 C 
ATOM     14  C   UNL     1      34.783 -11.118 -25.743  0.00  0.00    +0.000 C 
ATOM     15  C   UNL     1      31.211  -9.397 -19.524  0.00  0.00    +0.002 C 
ATOM     16  C   UNL     1      35.035  -9.757 -25.619  0.00  0.00    +0.003 C 
ENDBRANCH   1   4
BRANCH   1  17
ATOM     17  C   UNL     1      33.124 -14.185 -22.371  0.00  0.00    +0.083 C 
ATOM     18  C   UNL     1      33.598 -15.134 -23.284  0.00  0.00    +0.153 C 
ATOM     19  C   UNL     1      34.517 -16.442 -21.472  0.00  0.00    +0.068 C 
ATOM     20  C   UNL     1      33.354 -14.377 -21.003  0.00  0.00    +0.019 C 
ATOM     21  C   UNL     1      34.291 -16.259 -22.836  0.00  0.00    +0.054 C 
ATOM     22  C   UNL     1      34.047 -15.501 -20.556  0.00  0.00    +0.017 C 
BRANCH  18  23
ATOM     23  O   UNL     1      33.387 -14.973 -24.621  0.00  0.00    -0.470 OA
ATOM     24  C   UNL     1      33.821 -16.029 -25.476  0.00  0.00    +0.253 C 
ENDBRANCH  18  23
BRANCH  19  25
ATOM     25  N   UNL     1      35.225 -17.593 -21.015  0.00  0.00    -0.219 N 
ATOM     26  H   UNL     1      36.047 -17.502 -20.480  0.00  0.00    +0.173 HD
BRANCH  25  27
ATOM     27  S   UNL     1      34.603 -19.146 -21.422  0.00  0.00    +0.056 S 
ATOM     28  O   UNL     1      33.267 -19.264 -20.869  0.00  0.00    -0.154 OA
ATOM     29  O   UNL     1      34.854 -19.456 -22.816  0.00  0.00    -0.154 OA
ATOM     30  C   UNL     1      35.663 -20.179 -20.435  0.00  0.00    +0.200 C 
ENDBRANCH  25  27
ENDBRANCH  19  25
ENDBRANCH   1  17
TORSDOF 5
ENDMDL
MODEL 2
REMARK VINA RESULT:     -10.7      0.025      3.410
REMARK  Name = 2179
REMARK  5 active torsions:
REMARK  status: ('A' for Active; 'I' for Inactive)
REMARK    1  A    between atoms: N_1  and  C_4
REMARK    2  A    between atoms: N_1  and  C_17
REMARK    3  A    between atoms: C_18  and  O_23
REMARK    4  A    between atoms: C_19  and  N_25
REMARK    5  A    between atoms: N_25  and  S_27
REMARK                            x       y       z     vdW  Elec       q    Type
REMARK                         _______ _______ _______ _____ _____    ______ ____
ROOT
ATOM      1  N   UNL     1      32.414 -13.064 -22.811  0.00  0.00    -0.313 N 
ATOM      2  H   UNL     1      31.570 -13.270 -23.272  0.00  0.00    +0.152 HD
ENDROOT
BRANCH   1   4
ATOM      3  N   UNL     1      33.239  -8.965 -22.533  0.00  0.00    -0.406 NA
ATOM      4  C   UNL     1      32.694 -11.673 -22.716  0.00  0.00    +0.038 C 
ATOM      5  C   UNL     1      33.477 -11.056 -23.697  0.00  0.00    +0.110 C 
ATOM      6  C   UNL     1      32.184 -10.935 -21.645  0.00  0.00    +0.040 C 
ATOM      7  C   UNL     1      33.728  -9.681 -23.564  0.00  0.00    +0.118 C 
ATOM      8  C   UNL     1      32.486  -9.564 -21.592  0.00  0.00    +0.132 C 
ATOM      9  C   UNL     1      34.003 -11.775 -24.786  0.00  0.00    -0.014 C 
ATOM     10  C   UNL     1      31.395 -11.530 -20.645  0.00  0.00    +0.003 C 
ATOM     11  C   UNL     1      34.508  -9.060 -24.537  0.00  0.00    +0.028 C 
ATOM     12  C   UNL     1      31.981  -8.823 -20.526  0.00  0.00    +0.032 C 
ATOM     13  C   UNL     1      34.779 -11.130 -25.745  0.00  0.00    -0.004 C 
ATOM     14  C   UNL     1      30.902 -10.768 -19.591  0.00  0.00    +0.000 C 
ATOM     15  C   UNL     1      35.032  -9.770 -25.620  0.00  0.00    +0.002 C 
ATOM     16  C   UNL     1      31.196  -9.411 -19.532  0.00  0.00    +0.003 C 
ENDBRANCH   1   4
BRANCH   1  17
ATOM     17  C   UNL     1      33.111 -14.198 -22.373  0.00  0.00    +0.083 C 
ATOM     18  C   UNL     1      33.600 -15.141 -23.285  0.00  0.00    +0.153 C 
ATOM     19  C   UNL     1      34.499 -16.457 -21.469  0.00  0.00    +0.068 C 
ATOM     20  C   UNL     1      33.325 -14.397 -21.004  0.00  0.00    +0.019 C 
ATOM     21  C   UNL     1      34.291 -16.267 -22.835  0.00  0.00    +0.054 C 
ATOM     22  C   UNL     1      34.015 -15.522 -20.553  0.00  0.00    +0.017 C 
BRANCH  18  23
ATOM     23  O   UNL     1      33.405 -14.975 -24.624  0.00  0.00    -0.470 OA
ATOM     24  C   UNL     1      33.824 -16.039 -25.476  0.00  0.00    +0.253 C 
ENDBRANCH  18  23
BRANCH  19  25
ATOM     25  N   UNL     1      35.205 -17.608 -21.008  0.00  0.00    -0.219 N 
ATOM     26  H   UNL     1      36.031 -17.517 -20.480  0.00  0.00    +0.173 HD
BRANCH  25  27
ATOM     27  S   UNL     1      34.573 -19.161 -21.401  0.00  0.00    +0.056 S 
ATOM     28  O   UNL     1      33.241 -19.269 -20.835  0.00  0.00    -0.154 OA
ATOM     29  O   UNL     1      34.810 -19.480 -22.794  0.00  0.00    -0.154 OA
ATOM     30  C   UNL     1      35.637 -20.192 -20.416  0.00  0.00    +0.200 C 
ENDBRANCH  25  27
ENDBRANCH  19  25
ENDBRANCH   1  17
TORSDOF 5
ENDMDL
MODEL 3
REMARK VINA RESULT:     -10.2     10.847     13.856
REMARK  Name = 2179
REMARK  5 active torsions:
REMARK  status: ('A' for Active; 'I' for Inactive)
REMARK    1  A    between atoms: N_1  and  C_4
REMARK    2  A    between atoms: N_1  and  C_17
REMARK    3  A    between atoms: C_18  and  O_23
REMARK    4  A    between atoms: C_19  and  N_25
REMARK    5  A    between atoms: N_25  and  S_27
REMARK                            x       y       z     vdW  Elec       q    Type
REMARK                         _______ _______ _______ _____ _____    ______ ____
ROOT
ATOM      1  N   UNL     1      34.469 -23.332 -14.568  0.00  0.00    -0.313 N 
ATOM      2  H   UNL     1      34.280 -22.786 -13.772  0.00  0.00    +0.152 HD
ENDROOT
BRANCH   1   4
ATOM      3  N   UNL     1      31.758 -22.744 -17.710  0.00  0.00    -0.406 NA
ATOM      4  C   UNL     1      33.549 -23.132 -15.634  0.00  0.00    +0.038 C 
ATOM      5  C   UNL     1      34.014 -22.691 -16.877  0.00  0.00    +0.110 C 
ATOM      6  C   UNL     1      32.188 -23.379 -15.430  0.00  0.00    +0.040 C 
ATOM      7  C   UNL     1      33.071 -22.508 -17.901  0.00  0.00    +0.118 C 
ATOM      8  C   UNL     1      31.316 -23.169 -16.511  0.00  0.00    +0.132 C 
ATOM      9  C   UNL     1      35.377 -22.436 -17.110  0.00  0.00    -0.014 C 
ATOM     10  C   UNL     1      31.694 -23.822 -14.191  0.00  0.00    +0.003 C 
ATOM     11  C   UNL     1      33.527 -22.068 -19.142  0.00  0.00    +0.028 C 
ATOM     12  C   UNL     1      29.959 -23.412 -16.314  0.00  0.00    +0.032 C 
ATOM     13  C   UNL     1      35.807 -21.997 -18.359  0.00  0.00    -0.004 C 
ATOM     14  C   UNL     1      30.334 -24.059 -14.020  0.00  0.00    +0.000 C 
ATOM     15  C   UNL     1      34.880 -21.814 -19.376  0.00  0.00    +0.002 C 
ATOM     16  C   UNL     1      29.464 -23.853 -15.084  0.00  0.00    +0.003 C 
ENDBRANCH   1   4
BRANCH   1  17
ATOM     17  C   UNL     1      35.593 -24.157 -14.435  0.00  0.00    +0.083 C 
ATOM     18  C   UNL     1      36.586 -23.877 -13.488  0.00  0.00    +0.153 C 
ATOM     19  C   UNL     1      37.831 -25.824 -14.193  0.00  0.00    +0.068 C 
ATOM     20  C   UNL     1      35.732 -25.280 -15.259  0.00  0.00    +0.019 C 
ATOM     21  C   UNL     1      37.701 -24.707 -13.368  0.00  0.00    +0.054 C 
ATOM     22  C   UNL     1      36.847 -26.110 -15.139  0.00  0.00    +0.017 C 
BRANCH  18  23
ATOM     23  O   UNL     1      36.478 -22.789 -12.673  0.00  0.00    -0.470 OA
ATOM     24  C   UNL     1      37.260 -22.793 -11.481  0.00  0.00    +0.253 C 
ENDBRANCH  18  23
BRANCH  19  25
ATOM     25  N   UNL     1      38.972 -26.673 -14.070  0.00  0.00    -0.219 N 
ATOM     26  H   UNL     1      38.881 -27.600 -13.753  0.00  0.00    +0.173 HD
BRANCH  25  27
ATOM     27  S   UNL     1      40.512 -26.030 -14.492  0.00  0.00    +0.056 S 
ATOM     28  O   UNL     1      40.674 -26.134 -15.931  0.00  0.00    -0.154 OA
ATOM     29  O   UNL     1      40.754 -24.773 -13.812  0.00  0.00    -0.154 OA
ATOM     30  C   UNL     1      41.576 -27.256 -13.764  0.00  0.00    +0.200 C 
ENDBRANCH  25  27
ENDBRANCH  19  25
ENDBRANCH   1  17
TORSDOF 5
ENDMDL
MODEL 4
REMARK VINA RESULT:     -10.2     10.877     13.505
REMARK  Name = 2179
REMARK  5 active torsions:
REMARK  status: ('A' for Active; 'I' for Inactive)
REMARK    1  A    between atoms: N_1  and  C_4
REMARK    2  A    between atoms: N_1  and  C_17
REMARK    3  A    between atoms: C_18  and  O_23
REMARK    4  A    between atoms: C_19  and  N_25
REMARK    5  A    between atoms: N_25  and  S_27
REMARK                            x       y       z     vdW  Elec       q    Type
REMARK                         _______ _______ _______ _____ _____    ______ ____
ROOT
ATOM      1  N   UNL     1      34.440 -23.313 -14.525  0.00  0.00    -0.313 N 
ATOM      2  H   UNL     1      34.251 -22.756 -13.737  0.00  0.00    +0.152 HD
ENDROOT
BRANCH   1   4
ATOM      3  N   UNL     1      31.718 -22.782 -17.668  0.00  0.00    -0.406 NA
ATOM      4  C   UNL     1      33.516 -23.133 -15.592  0.00  0.00    +0.038 C 
ATOM      5  C   UNL     1      32.158 -23.392 -15.383  0.00  0.00    +0.110 C 
ATOM      6  C   UNL     1      33.974 -22.697 -16.839  0.00  0.00    +0.040 C 
ATOM      7  C   UNL     1      31.281 -23.201 -16.463  0.00  0.00    +0.118 C 
ATOM      8  C   UNL     1      33.026 -22.533 -17.863  0.00  0.00    +0.132 C 
ATOM      9  C   UNL     1      31.671 -23.831 -14.139  0.00  0.00    -0.014 C 
ATOM     10  C   UNL     1      35.333 -22.429 -17.076  0.00  0.00    +0.003 C 
ATOM     11  C   UNL     1      29.928 -23.459 -16.263  0.00  0.00    +0.028 C 
ATOM     12  C   UNL     1      33.476 -22.100 -19.107  0.00  0.00    +0.032 C 
ATOM     13  C   UNL     1      30.312 -24.081 -13.964  0.00  0.00    -0.004 C 
ATOM     14  C   UNL     1      35.757 -21.997 -18.328  0.00  0.00    +0.000 C 
ATOM     15  C   UNL     1      29.440 -23.894 -15.029  0.00  0.00    +0.002 C 
ATOM     16  C   UNL     1      34.826 -21.832 -19.346  0.00  0.00    +0.003 C 
ENDBRANCH   1   4
BRANCH   1  17
ATOM     17  C   UNL     1      35.568 -24.132 -14.383  0.00  0.00    +0.083 C 
ATOM     18  C   UNL     1      36.532 -23.868 -13.403  0.00  0.00    +0.153 C 
ATOM     19  C   UNL     1      37.813 -25.785 -14.122  0.00  0.00    +0.068 C 
ATOM     20  C   UNL     1      35.739 -25.232 -15.231  0.00  0.00    +0.019 C 
ATOM     21  C   UNL     1      37.651 -24.691 -13.273  0.00  0.00    +0.054 C 
ATOM     22  C   UNL     1      36.858 -26.055 -15.102  0.00  0.00    +0.017 C 
BRANCH  18  23
ATOM     23  O   UNL     1      36.392 -22.802 -12.564  0.00  0.00    -0.470 OA
ATOM     24  C   UNL     1      37.105 -22.852 -11.330  0.00  0.00    +0.253 C 
ENDBRANCH  18  23
BRANCH  19  25
ATOM     25  N   UNL     1      38.958 -26.627 -13.991  0.00  0.00    -0.219 N 
ATOM     26  H   UNL     1      38.876 -27.541 -13.633  0.00  0.00    +0.173 HD
BRANCH  25  27
ATOM     27  S   UNL     1      40.488 -26.001 -14.474  0.00  0.00    +0.056 S 
ATOM     28  O   UNL     1      40.585 -26.097 -15.919  0.00  0.00    -0.154 OA
ATOM     29  O   UNL     1      40.775 -24.752 -13.797  0.00  0.00    -0.154 OA
ATOM     30  C   UNL     1      41.565 -27.247 -13.801  0.00  0.00    +0.200 C 
ENDBRANCH  25  27
ENDBRANCH  19  25
ENDBRANCH   1  17
TORSDOF 5
ENDMDL
MODEL 5
REMARK VINA RESULT:     -10.1      6.690     12.431
REMARK  Name = 2179
REMARK  5 active torsions:
REMARK  status: ('A' for Active; 'I' for Inactive)
REMARK    1  A    between atoms: N_1  and  C_4
REMARK    2  A    between atoms: N_1  and  C_17
REMARK    3  A    between atoms: C_18  and  O_23
REMARK    4  A    between atoms: C_19  and  N_25
REMARK    5  A    between atoms: N_25  and  S_27
REMARK                            x       y       z     vdW  Elec       q    Type
REMARK                         _______ _______ _______ _____ _____    ______ ____
ROOT
ATOM      1  N   UNL     1      34.205 -23.574 -17.335  0.00  0.00    -0.313 N 
ATOM      2  H   UNL     1      34.528 -24.443 -17.665  0.00  0.00    +0.152 HD
ENDROOT
BRANCH   1   4
ATOM      3  N   UNL     1      32.925 -23.644 -13.345  0.00  0.00    -0.406 NA
ATOM      4  C   UNL     1      33.771 -23.598 -15.982  0.00  0.00    +0.038 C 
ATOM      5  C   UNL     1      34.691 -23.864 -14.963  0.00  0.00    +0.110 C 
ATOM      6  C   UNL     1      32.428 -23.355 -15.681  0.00  0.00    +0.040 C 
ATOM      7  C   UNL     1      34.219 -23.877 -13.641  0.00  0.00    +0.118 C 
ATOM      8  C   UNL     1      32.043 -23.388 -14.329  0.00  0.00    +0.132 C 
ATOM      9  C   UNL     1      36.048 -24.112 -15.238  0.00  0.00    -0.014 C 
ATOM     10  C   UNL     1      31.481 -23.086 -16.684  0.00  0.00    +0.003 C 
ATOM     11  C   UNL     1      35.131 -24.142 -12.622  0.00  0.00    +0.028 C 
ATOM     12  C   UNL     1      30.706 -23.148 -14.024  0.00  0.00    +0.032 C 
ATOM     13  C   UNL     1      36.940 -24.373 -14.200  0.00  0.00    -0.004 C 
ATOM     14  C   UNL     1      30.151 -22.848 -16.352  0.00  0.00    +0.000 C 
ATOM     15  C   UNL     1      36.479 -24.388 -12.890  0.00  0.00    +0.002 C 
ATOM     16  C   UNL     1      29.763 -22.879 -15.018  0.00  0.00    +0.003 C 
ENDBRANCH   1   4
BRANCH   1  17
ATOM     17  C   UNL     1      34.261 -22.550 -18.290  0.00  0.00    +0.083 C 
ATOM     18  C   UNL     1      35.473 -21.924 -18.606  0.00  0.00    +0.153 C 
ATOM     19  C   UNL     1      34.343 -20.505 -20.201  0.00  0.00    +0.068 C 
ATOM     20  C   UNL     1      33.091 -22.142 -18.941  0.00  0.00    +0.019 C 
ATOM     21  C   UNL     1      35.513 -20.904 -19.557  0.00  0.00    +0.054 C 
ATOM     22  C   UNL     1      33.131 -21.123 -19.892  0.00  0.00    +0.017 C 
BRANCH  18  23
ATOM     23  O   UNL     1      36.628 -22.299 -17.986  0.00  0.00    -0.470 OA
ATOM     24  C   UNL     1      37.173 -21.393 -17.029  0.00  0.00    +0.253 C 
ENDBRANCH  18  23
BRANCH  19  25
ATOM     25  N   UNL     1      34.384 -19.461 -21.174  0.00  0.00    -0.219 N 
ATOM     26  H   UNL     1      33.643 -19.333 -21.810  0.00  0.00    +0.173 HD
BRANCH  25  27
ATOM     27  S   UNL     1      35.765 -18.434 -21.206  0.00  0.00    +0.056 S 
ATOM     28  O   UNL     1      35.466 -17.239 -20.439  0.00  0.00    -0.154 OA
ATOM     29  O   UNL     1      36.978 -19.187 -20.955  0.00  0.00    -0.154 OA
ATOM     30  C   UNL     1      35.765 -17.959 -22.921  0.00  0.00    +0.200 C 
ENDBRANCH  25  27
ENDBRANCH  19  25
ENDBRANCH   1  17
TORSDOF 5
ENDMDL
MODEL 6
REMARK VINA RESULT:     -10.1      6.679     12.297
REMARK  Name = 2179
REMARK  5 active torsions:
REMARK  status: ('A' for Active; 'I' for Inactive)
REMARK    1  A    between atoms: N_1  and  C_4
REMARK    2  A    between atoms: N_1  and  C_17
REMARK    3  A    between atoms: C_18  and  O_23
REMARK    4  A    between atoms: C_19  and  N_25
REMARK    5  A    between atoms: N_25  and  S_27
REMARK                            x       y       z     vdW  Elec       q    Type
REMARK                         _______ _______ _______ _____ _____    ______ ____
ROOT
ATOM      1  N   UNL     1      34.178 -23.568 -17.337  0.00  0.00    -0.313 N 
ATOM      2  H   UNL     1      34.495 -24.440 -17.665  0.00  0.00    +0.152 HD
ENDROOT
BRANCH   1   4
ATOM      3  N   UNL     1      32.900 -23.619 -13.346  0.00  0.00    -0.406 NA
ATOM      4  C   UNL     1      33.744 -23.585 -15.983  0.00  0.00    +0.038 C 
ATOM      5  C   UNL     1      32.401 -23.338 -15.682  0.00  0.00    +0.110 C 
ATOM      6  C   UNL     1      34.664 -23.849 -14.965  0.00  0.00    +0.040 C 
ATOM      7  C   UNL     1      32.017 -23.365 -14.332  0.00  0.00    +0.118 C 
ATOM      8  C   UNL     1      34.192 -23.857 -13.641  0.00  0.00    +0.132 C 
ATOM      9  C   UNL     1      31.455 -23.069 -16.687  0.00  0.00    -0.014 C 
ATOM     10  C   UNL     1      36.020 -24.102 -15.238  0.00  0.00    +0.003 C 
ATOM     11  C   UNL     1      30.681 -23.118 -14.025  0.00  0.00    +0.028 C 
ATOM     12  C   UNL     1      35.104 -24.119 -12.622  0.00  0.00    +0.032 C 
ATOM     13  C   UNL     1      30.125 -22.827 -16.354  0.00  0.00    -0.004 C 
ATOM     14  C   UNL     1      36.911 -24.362 -14.202  0.00  0.00    +0.000 C 
ATOM     15  C   UNL     1      29.738 -22.852 -15.021  0.00  0.00    +0.002 C 
ATOM     16  C   UNL     1      36.451 -24.370 -12.891  0.00  0.00    +0.003 C 
ENDBRANCH   1   4
BRANCH   1  17
ATOM     17  C   UNL     1      34.240 -22.547 -18.295  0.00  0.00    +0.083 C 
ATOM     18  C   UNL     1      35.454 -21.925 -18.608  0.00  0.00    +0.153 C 
ATOM     19  C   UNL     1      34.333 -20.508 -20.212  0.00  0.00    +0.068 C 
ATOM     20  C   UNL     1      33.073 -22.138 -18.951  0.00  0.00    +0.019 C 
ATOM     21  C   UNL     1      35.501 -20.909 -19.563  0.00  0.00    +0.054 C 
ATOM     22  C   UNL     1      33.119 -21.122 -19.905  0.00  0.00    +0.017 C 
BRANCH  18  23
ATOM     23  O   UNL     1      36.606 -22.302 -17.984  0.00  0.00    -0.470 OA
ATOM     24  C   UNL     1      37.172 -21.377 -17.058  0.00  0.00    +0.253 C 
ENDBRANCH  18  23
BRANCH  19  25
ATOM     25  N   UNL     1      34.381 -19.468 -21.188  0.00  0.00    -0.219 N 
ATOM     26  H   UNL     1      33.646 -19.344 -21.832  0.00  0.00    +0.173 HD
BRANCH  25  27
ATOM     27  S   UNL     1      35.758 -18.435 -21.209  0.00  0.00    +0.056 S 
ATOM     28  O   UNL     1      35.452 -17.248 -20.432  0.00  0.00    -0.154 OA
ATOM     29  O   UNL     1      36.973 -19.185 -20.962  0.00  0.00    -0.154 OA
ATOM     30  C   UNL     1      35.758 -17.945 -22.919  0.00  0.00    +0.200 C 
ENDBRANCH  25  27
ENDBRANCH  19  25
ENDBRANCH   1  17
TORSDOF 5
ENDMDL
MODEL 7
REMARK VINA RESULT:      -9.3      1.339      2.068
REMARK  Name = 2179
REMARK  5 active torsions:
REMARK  status: ('A' for Active; 'I' for Inactive)
REMARK    1  A    between atoms: N_1  and  C_4
REMARK    2  A    between atoms: N_1  and  C_17
REMARK    3  A    between atoms: C_18  and  O_23
REMARK    4  A    between atoms: C_19  and  N_25
REMARK    5  A    between atoms: N_25  and  S_27
REMARK                            x       y       z     vdW  Elec       q    Type
REMARK                         _______ _______ _______ _____ _____    ______ ____
ROOT
ATOM      1  N   UNL     1      32.484 -13.035 -23.309  0.00  0.00    -0.313 N 
ATOM      2  H   UNL     1      31.549 -13.213 -23.560  0.00  0.00    +0.152 HD
ENDROOT
BRANCH   1   4
ATOM      3  N   UNL     1      33.304  -8.988 -22.592  0.00  0.00    -0.406 NA
ATOM      4  C   UNL     1      32.762 -11.662 -23.066  0.00  0.00    +0.038 C 
ATOM      5  C   UNL     1      32.198 -11.026 -21.955  0.00  0.00    +0.110 C 
ATOM      6  C   UNL     1      33.597 -10.959 -23.939  0.00  0.00    +0.040 C 
ATOM      7  C   UNL     1      32.500  -9.670 -21.753  0.00  0.00    +0.118 C 
ATOM      8  C   UNL     1      33.845  -9.604 -23.659  0.00  0.00    +0.132 C 
ATOM      9  C   UNL     1      31.354 -11.709 -21.061  0.00  0.00    -0.014 C 
ATOM     10  C   UNL     1      34.178 -11.572 -25.062  0.00  0.00    +0.003 C 
ATOM     11  C   UNL     1      31.940  -9.031 -20.649  0.00  0.00    +0.028 C 
ATOM     12  C   UNL     1      34.676  -8.899 -24.526  0.00  0.00    +0.032 C 
ATOM     13  C   UNL     1      30.808 -11.047 -19.964  0.00  0.00    -0.004 C 
ATOM     14  C   UNL     1      35.006 -10.846 -25.912  0.00  0.00    +0.000 C 
ATOM     15  C   UNL     1      31.102  -9.706 -19.759  0.00  0.00    +0.002 C 
ATOM     16  C   UNL     1      35.255  -9.506 -25.643  0.00  0.00    +0.003 C 
ENDBRANCH   1   4
BRANCH   1  17
ATOM     17  C   UNL     1      33.286 -14.183 -23.259  0.00  0.00    +0.083 C 
ATOM     18  C   UNL     1      33.691 -14.726 -22.034  0.00  0.00    +0.153 C 
ATOM     19  C   UNL     1      34.889 -16.478 -23.190  0.00  0.00    +0.068 C 
ATOM     20  C   UNL     1      33.691 -14.800 -24.449  0.00  0.00    +0.019 C 
ATOM     21  C   UNL     1      34.491 -15.869 -22.000  0.00  0.00    +0.054 C 
ATOM     22  C   UNL     1      34.490 -15.942 -24.414  0.00  0.00    +0.017 C 
BRANCH  18  23
ATOM     23  O   UNL     1      33.313 -14.146 -20.860  0.00  0.00    -0.470 OA
ATOM     24  C   UNL     1      32.537 -14.940 -19.966  0.00  0.00    +0.253 C 
ENDBRANCH  18  23
BRANCH  19  25
ATOM     25  N   UNL     1      35.708 -17.646 -23.155  0.00  0.00    -0.219 N 
ATOM     26  H   UNL     1      36.118 -18.002 -23.976  0.00  0.00    +0.173 HD
BRANCH  25  27
ATOM     27  S   UNL     1      35.959 -18.417 -21.635  0.00  0.00    +0.056 S 
ATOM     28  O   UNL     1      37.305 -18.961 -21.614  0.00  0.00    -0.154 OA
ATOM     29  O   UNL     1      35.482 -17.587 -20.547  0.00  0.00    -0.154 OA
ATOM     30  C   UNL     1      34.849 -19.798 -21.795  0.00  0.00    +0.200 C 
ENDBRANCH  25  27
ENDBRANCH  19  25
ENDBRANCH   1  17
TORSDOF 5
ENDMDL
MODEL 8
REMARK VINA RESULT:      -9.1      4.175      8.243
REMARK  Name = 2179
REMARK  5 active torsions:
REMARK  status: ('A' for Active; 'I' for Inactive)
REMARK    1  A    between atoms: N_1  and  C_4
REMARK    2  A    between atoms: N_1  and  C_17
REMARK    3  A    between atoms: C_18  and  O_23
REMARK    4  A    between atoms: C_19  and  N_25
REMARK    5  A    between atoms: N_25  and  S_27
REMARK                            x       y       z     vdW  Elec       q    Type
REMARK                         _______ _______ _______ _____ _____    ______ ____
ROOT
ATOM      1  N   UNL     1      34.084 -12.030 -22.964  0.00  0.00    -0.313 N 
ATOM      2  H   UNL     1      34.915 -11.865 -22.463  0.00  0.00    +0.152 HD
ENDROOT
BRANCH   1   4
ATOM      3  N   UNL     1      33.710 -15.959 -24.376  0.00  0.00    -0.406 NA
ATOM      4  C   UNL     1      33.957 -13.363 -23.443  0.00  0.00    +0.038 C 
ATOM      5  C   UNL     1      33.643 -13.590 -24.787  0.00  0.00    +0.110 C 
ATOM      6  C   UNL     1      34.147 -14.435 -22.566  0.00  0.00    +0.040 C 
ATOM      7  C   UNL     1      33.528 -14.922 -25.217  0.00  0.00    +0.118 C 
ATOM      8  C   UNL     1      34.012 -15.735 -23.083  0.00  0.00    +0.132 C 
ATOM      9  C   UNL     1      33.447 -12.530 -25.690  0.00  0.00    -0.014 C 
ATOM     10  C   UNL     1      34.463 -14.237 -21.211  0.00  0.00    +0.003 C 
ATOM     11  C   UNL     1      33.215 -15.154 -26.554  0.00  0.00    +0.028 C 
ATOM     12  C   UNL     1      34.199 -16.807 -22.214  0.00  0.00    +0.032 C 
ATOM     13  C   UNL     1      33.136 -12.789 -27.022  0.00  0.00    -0.004 C 
ATOM     14  C   UNL     1      34.646 -15.325 -20.364  0.00  0.00    +0.000 C 
ATOM     15  C   UNL     1      33.019 -14.104 -27.454  0.00  0.00    +0.002 C 
ATOM     16  C   UNL     1      34.514 -16.613 -20.867  0.00  0.00    +0.003 C 
ENDBRANCH   1   4
BRANCH   1  17
ATOM     17  C   UNL     1      33.253 -10.907 -23.069  0.00  0.00    +0.083 C 
ATOM     18  C   UNL     1      31.998 -10.879 -22.450  0.00  0.00    +0.153 C 
ATOM     19  C   UNL     1      31.612  -8.649 -23.297  0.00  0.00    +0.068 C 
ATOM     20  C   UNL     1      33.679  -9.793 -23.803  0.00  0.00    +0.019 C 
ATOM     21  C   UNL     1      31.180  -9.754 -22.564  0.00  0.00    +0.054 C 
ATOM     22  C   UNL     1      32.862  -8.669 -23.917  0.00  0.00    +0.017 C 
BRANCH  18  23
ATOM     23  O   UNL     1      31.556 -11.950 -21.731  0.00  0.00    -0.470 OA
ATOM     24  C   UNL     1      31.565 -11.823 -20.311  0.00  0.00    +0.253 C 
ENDBRANCH  18  23
BRANCH  19  25
ATOM     25  N   UNL     1      30.776  -7.499 -23.414  0.00  0.00    -0.219 N 
ATOM     26  H   UNL     1      29.956  -7.522 -23.959  0.00  0.00    +0.173 HD
BRANCH  25  27
ATOM     27  S   UNL     1      31.240  -6.067 -22.576  0.00  0.00    +0.056 S 
ATOM     28  O   UNL     1      30.042  -5.430 -22.060  0.00  0.00    -0.154 OA
ATOM     29  O   UNL     1      32.374  -6.318 -21.710  0.00  0.00    -0.154 OA
ATOM     30  C   UNL     1      31.804  -5.074 -23.940  0.00  0.00    +0.200 C 
ENDBRANCH  25  27
ENDBRANCH  19  25
ENDBRANCH   1  17
TORSDOF 5
ENDMDL
MODEL 9
REMARK VINA RESULT:      -9.1      4.188      7.782
REMARK  Name = 2179
REMARK  5 active torsions:
REMARK  status: ('A' for Active; 'I' for Inactive)
REMARK    1  A    between atoms: N_1  and  C_4
REMARK    2  A    between atoms: N_1  and  C_17
REMARK    3  A    between atoms: C_18  and  O_23
REMARK    4  A    between atoms: C_19  and  N_25
REMARK    5  A    between atoms: N_25  and  S_27
REMARK                            x       y       z     vdW  Elec       q    Type
REMARK                         _______ _______ _______ _____ _____    ______ ____
ROOT
ATOM      1  N   UNL     1      34.078 -11.995 -22.972  0.00  0.00    -0.313 N 
ATOM      2  H   UNL     1      34.911 -11.829 -22.475  0.00  0.00    +0.152 HD
ENDROOT
BRANCH   1   4
ATOM      3  N   UNL     1      33.695 -15.926 -24.375  0.00  0.00    -0.406 NA
ATOM      4  C   UNL     1      33.948 -13.329 -23.448  0.00  0.00    +0.038 C 
ATOM      5  C   UNL     1      34.137 -14.400 -22.569  0.00  0.00    +0.110 C 
ATOM      6  C   UNL     1      33.633 -13.558 -24.790  0.00  0.00    +0.040 C 
ATOM      7  C   UNL     1      33.999 -15.700 -23.082  0.00  0.00    +0.118 C 
ATOM      8  C   UNL     1      33.514 -14.891 -25.217  0.00  0.00    +0.132 C 
ATOM      9  C   UNL     1      34.456 -14.199 -21.214  0.00  0.00    -0.014 C 
ATOM     10  C   UNL     1      33.437 -12.500 -25.695  0.00  0.00    +0.003 C 
ATOM     11  C   UNL     1      34.187 -16.771 -22.212  0.00  0.00    +0.028 C 
ATOM     12  C   UNL     1      33.200 -15.125 -26.553  0.00  0.00    +0.032 C 
ATOM     13  C   UNL     1      34.638 -15.287 -20.365  0.00  0.00    -0.004 C 
ATOM     14  C   UNL     1      33.123 -12.761 -27.025  0.00  0.00    +0.000 C 
ATOM     15  C   UNL     1      34.503 -16.575 -20.866  0.00  0.00    +0.002 C 
ATOM     16  C   UNL     1      33.005 -14.077 -27.455  0.00  0.00    +0.003 C 
ENDBRANCH   1   4
BRANCH   1  17
ATOM     17  C   UNL     1      33.246 -10.872 -23.074  0.00  0.00    +0.083 C 
ATOM     18  C   UNL     1      31.995 -10.842 -22.448  0.00  0.00    +0.153 C 
ATOM     19  C   UNL     1      31.605  -8.614 -23.297  0.00  0.00    +0.068 C 
ATOM     20  C   UNL     1      33.668  -9.761 -23.813  0.00  0.00    +0.019 C 
ATOM     21  C   UNL     1      31.176  -9.717 -22.559  0.00  0.00    +0.054 C 
ATOM     22  C   UNL     1      32.850  -8.636 -23.925  0.00  0.00    +0.017 C 
BRANCH  18  23
ATOM     23  O   UNL     1      31.558 -11.911 -21.723  0.00  0.00    -0.470 OA
ATOM     24  C   UNL     1      31.575 -11.781 -20.303  0.00  0.00    +0.253 C 
ENDBRANCH  18  23
BRANCH  19  25
ATOM     25  N   UNL     1      30.768  -7.464 -23.412  0.00  0.00    -0.219 N 
ATOM     26  H   UNL     1      29.949  -7.486 -23.959  0.00  0.00    +0.173 HD
BRANCH  25  27
ATOM     27  S   UNL     1      31.228  -6.036 -22.566  0.00  0.00    +0.056 S 
ATOM     28  O   UNL     1      30.027  -5.396 -22.061  0.00  0.00    -0.154 OA
ATOM     29  O   UNL     1      32.352  -6.293 -21.688  0.00  0.00    -0.154 OA
ATOM     30  C   UNL     1      31.810  -5.042 -23.922  0.00  0.00    +0.200 C 
ENDBRANCH  25  27
ENDBRANCH  19  25
ENDBRANCH   1  17
TORSDOF 5
ENDMDL
