MODEL 1
REMARK VINA RESULT:      -5.6      0.000      0.000
REMARK  Name = 3121
REMARK  6 active torsions:
REMARK  status: ('A' for Active; 'I' for Inactive)
REMARK    1  A    between atoms: C_1  and  C_3
REMARK    2  A    between atoms: C_1  and  C_6
REMARK    3  A    between atoms: C_1  and  C_9
REMARK    4  A    between atoms: C_3  and  O_4
REMARK    5  A    between atoms: C_6  and  C_7
REMARK    6  A    between atoms: C_9  and  C_10
REMARK                            x       y       z     vdW  Elec       q    Type
REMARK                         _______ _______ _______ _____ _____    ______ ____
ROOT
ATOM      1  C   UNL     1      34.529 -18.317 -22.039  0.00  0.00    +0.099 C 
ENDROOT
BRANCH   1   3
ATOM      2  O   UNL     1      35.264 -16.763 -20.307  0.00  0.00    -0.250 OA
ATOM      3  C   UNL     1      34.960 -16.970 -21.474  0.00  0.00    +0.313 C 
BRANCH   3   4
ATOM      4  O   UNL     1      34.988 -16.000 -22.424  0.00  0.00    -0.480 OA
ATOM      5  H   UNL     1      34.217 -15.501 -22.607  0.00  0.00    +0.295 HD
ENDBRANCH   3   4
ENDBRANCH   1   3
BRANCH   1   6
ATOM      6  C   UNL     1      34.567 -19.424 -20.969  0.00  0.00    +0.011 C 
BRANCH   6   7
ATOM      7  C   UNL     1      33.200 -20.026 -20.620  0.00  0.00    +0.001 C 
ATOM      8  C   UNL     1      33.270 -21.169 -19.620  0.00  0.00    +0.000 C 
ENDBRANCH   6   7
ENDBRANCH   1   6
BRANCH   1   9
ATOM      9  C   UNL     1      35.382 -18.662 -23.277  0.00  0.00    +0.011 C 
BRANCH   9  10
ATOM     10  C   UNL     1      34.584 -18.951 -24.553  0.00  0.00    +0.001 C 
ATOM     11  C   UNL     1      34.308 -17.673 -25.332  0.00  0.00    +0.000 C 
ENDBRANCH   9  10
ENDBRANCH   1   9
TORSDOF 6
ENDMDL
MODEL 2
REMARK VINA RESULT:      -5.6      3.670      5.697
REMARK  Name = 3121
REMARK  6 active torsions:
REMARK  status: ('A' for Active; 'I' for Inactive)
REMARK    1  A    between atoms: C_1  and  C_3
REMARK    2  A    between atoms: C_1  and  C_6
REMARK    3  A    between atoms: C_1  and  C_9
REMARK    4  A    between atoms: C_3  and  O_4
REMARK    5  A    between atoms: C_6  and  C_7
REMARK    6  A    between atoms: C_9  and  C_10
REMARK                            x       y       z     vdW  Elec       q    Type
REMARK                         _______ _______ _______ _____ _____    ______ ____
ROOT
ATOM      1  C   UNL     1      34.173 -21.231 -19.435  0.00  0.00    +0.099 C 
ENDROOT
BRANCH   1   3
ATOM      2  O   UNL     1      32.384 -22.400 -18.255  0.00  0.00    -0.250 OA
ATOM      3  C   UNL     1      33.397 -22.445 -18.942  0.00  0.00    +0.313 C 
BRANCH   3   4
ATOM      4  O   UNL     1      33.946 -23.613 -19.365  0.00  0.00    -0.480 OA
ATOM      5  H   UNL     1      34.572 -24.058 -18.829  0.00  0.00    +0.295 HD
ENDBRANCH   3   4
ENDBRANCH   1   3
BRANCH   1   6
ATOM      6  C   UNL     1      33.384 -20.440 -20.495  0.00  0.00    +0.011 C 
BRANCH   6   7
ATOM      7  C   UNL     1      34.090 -19.180 -21.011  0.00  0.00    +0.001 C 
ATOM      8  C   UNL     1      34.511 -19.267 -22.470  0.00  0.00    +0.000 C 
ENDBRANCH   6   7
ENDBRANCH   1   6
BRANCH   1   9
ATOM      9  C   UNL     1      35.565 -21.669 -19.936  0.00  0.00    +0.011 C 
BRANCH   9  10
ATOM     10  C   UNL     1      36.744 -21.149 -19.108  0.00  0.00    +0.001 C 
ATOM     11  C   UNL     1      36.740 -21.745 -17.708  0.00  0.00    +0.000 C 
ENDBRANCH   9  10
ENDBRANCH   1   9
TORSDOF 6
ENDMDL
MODEL 3
REMARK VINA RESULT:      -5.6      0.813      3.760
REMARK  Name = 3121
REMARK  6 active torsions:
REMARK  status: ('A' for Active; 'I' for Inactive)
REMARK    1  A    between atoms: C_1  and  C_3
REMARK    2  A    between atoms: C_1  and  C_6
REMARK    3  A    between atoms: C_1  and  C_9
REMARK    4  A    between atoms: C_3  and  O_4
REMARK    5  A    between atoms: C_6  and  C_7
REMARK    6  A    between atoms: C_9  and  C_10
REMARK                            x       y       z     vdW  Elec       q    Type
REMARK                         _______ _______ _______ _____ _____    ______ ____
ROOT
ATOM      1  C   UNL     1      35.157 -18.064 -21.443  0.00  0.00    +0.099 C 
ENDROOT
BRANCH   1   3
ATOM      2  O   UNL     1      33.903 -16.061 -22.054  0.00  0.00    -0.250 OA
ATOM      3  C   UNL     1      34.634 -16.645 -21.264  0.00  0.00    +0.313 C 
BRANCH   3   4
ATOM      4  O   UNL     1      35.058 -16.084 -20.103  0.00  0.00    -0.480 OA
ATOM      5  H   UNL     1      35.123 -15.152 -20.029  0.00  0.00    +0.295 HD
ENDBRANCH   3   4
ENDBRANCH   1   3
BRANCH   1   6
ATOM      6  C   UNL     1      35.816 -18.261 -22.821  0.00  0.00    +0.011 C 
BRANCH   6   7
ATOM      7  C   UNL     1      34.936 -18.974 -23.856  0.00  0.00    +0.001 C 
ATOM      8  C   UNL     1      34.479 -18.074 -24.994  0.00  0.00    +0.000 C 
ENDBRANCH   6   7
ENDBRANCH   1   6
BRANCH   1   9
ATOM      9  C   UNL     1      34.024 -19.076 -21.179  0.00  0.00    +0.011 C 
BRANCH   9  10
ATOM     10  C   UNL     1      34.450 -20.346 -20.435  0.00  0.00    +0.001 C 
ATOM     11  C   UNL     1      33.263 -21.012 -19.756  0.00  0.00    +0.000 C 
ENDBRANCH   9  10
ENDBRANCH   1   9
TORSDOF 6
ENDMDL
MODEL 4
REMARK VINA RESULT:      -5.5      1.595      3.828
REMARK  Name = 3121
REMARK  6 active torsions:
REMARK  status: ('A' for Active; 'I' for Inactive)
REMARK    1  A    between atoms: C_1  and  C_3
REMARK    2  A    between atoms: C_1  and  C_6
REMARK    3  A    between atoms: C_1  and  C_9
REMARK    4  A    between atoms: C_3  and  O_4
REMARK    5  A    between atoms: C_6  and  C_7
REMARK    6  A    between atoms: C_9  and  C_10
REMARK                            x       y       z     vdW  Elec       q    Type
REMARK                         _______ _______ _______ _____ _____    ______ ____
ROOT
ATOM      1  C   UNL     1      34.400 -17.566 -21.894  0.00  0.00    +0.099 C 
ENDROOT
BRANCH   1   3
ATOM      2  O   UNL     1      35.175 -18.389 -24.057  0.00  0.00    -0.250 OA
ATOM      3  C   UNL     1      35.111 -17.481 -23.238  0.00  0.00    +0.313 C 
BRANCH   3   4
ATOM      4  O   UNL     1      35.669 -16.261 -23.448  0.00  0.00    -0.480 OA
ATOM      5  H   UNL     1      36.439 -16.183 -23.976  0.00  0.00    +0.295 HD
ENDBRANCH   3   4
ENDBRANCH   1   3
BRANCH   1   6
ATOM      6  C   UNL     1      34.978 -16.563 -20.878  0.00  0.00    +0.011 C 
BRANCH   6   7
ATOM      7  C   UNL     1      34.078 -15.355 -20.586  0.00  0.00    +0.001 C 
ATOM      8  C   UNL     1      32.604 -15.609 -20.863  0.00  0.00    +0.000 C 
ENDBRANCH   6   7
ENDBRANCH   1   6
BRANCH   1   9
ATOM      9  C   UNL     1      34.432 -19.018 -21.376  0.00  0.00    +0.011 C 
BRANCH   9  10
ATOM     10  C   UNL     1      33.096 -19.543 -20.840  0.00  0.00    +0.001 C 
ATOM     11  C   UNL     1      33.298 -20.771 -19.964  0.00  0.00    +0.000 C 
ENDBRANCH   9  10
ENDBRANCH   1   9
TORSDOF 6
ENDMDL
MODEL 5
REMARK VINA RESULT:      -5.5      1.622      2.938
REMARK  Name = 3121
REMARK  6 active torsions:
REMARK  status: ('A' for Active; 'I' for Inactive)
REMARK    1  A    between atoms: C_1  and  C_3
REMARK    2  A    between atoms: C_1  and  C_6
REMARK    3  A    between atoms: C_1  and  C_9
REMARK    4  A    between atoms: C_3  and  O_4
REMARK    5  A    between atoms: C_6  and  C_7
REMARK    6  A    between atoms: C_9  and  C_10
REMARK                            x       y       z     vdW  Elec       q    Type
REMARK                         _______ _______ _______ _____ _____    ______ ____
ROOT
ATOM      1  C   UNL     1      35.329 -18.058 -22.282  0.00  0.00    +0.099 C 
ENDROOT
BRANCH   1   3
ATOM      2  O   UNL     1      34.334 -17.722 -24.485  0.00  0.00    -0.250 OA
ATOM      3  C   UNL     1      35.086 -17.335 -23.600  0.00  0.00    +0.313 C 
BRANCH   3   4
ATOM      4  O   UNL     1      35.795 -16.180 -23.691  0.00  0.00    -0.480 OA
ATOM      5  H   UNL     1      35.452 -15.457 -24.177  0.00  0.00    +0.295 HD
ENDBRANCH   3   4
ENDBRANCH   1   3
BRANCH   1   6
ATOM      6  C   UNL     1      34.537 -19.377 -22.199  0.00  0.00    +0.011 C 
BRANCH   6   7
ATOM      7  C   UNL     1      34.365 -19.933 -20.780  0.00  0.00    +0.001 C 
ATOM      8  C   UNL     1      32.916 -20.185 -20.392  0.00  0.00    +0.000 C 
ENDBRANCH   6   7
ENDBRANCH   1   6
BRANCH   1   9
ATOM      9  C   UNL     1      35.026 -17.111 -21.102  0.00  0.00    +0.011 C 
BRANCH   9  10
ATOM     10  C   UNL     1      33.692 -16.364 -21.199  0.00  0.00    +0.001 C 
ATOM     11  C   UNL     1      33.839 -14.915 -20.757  0.00  0.00    +0.000 C 
ENDBRANCH   9  10
ENDBRANCH   1   9
TORSDOF 6
ENDMDL
MODEL 6
REMARK VINA RESULT:      -5.4     10.382     11.862
REMARK  Name = 3121
REMARK  6 active torsions:
REMARK  status: ('A' for Active; 'I' for Inactive)
REMARK    1  A    between atoms: C_1  and  C_3
REMARK    2  A    between atoms: C_1  and  C_6
REMARK    3  A    between atoms: C_1  and  C_9
REMARK    4  A    between atoms: C_3  and  O_4
REMARK    5  A    between atoms: C_6  and  C_7
REMARK    6  A    between atoms: C_9  and  C_10
REMARK                            x       y       z     vdW  Elec       q    Type
REMARK                         _______ _______ _______ _____ _____    ______ ____
ROOT
ATOM      1  C   UNL     1      32.102  -7.695 -21.537  0.00  0.00    +0.099 C 
ENDROOT
BRANCH   1   3
ATOM      2  O   UNL     1      32.377  -9.220 -19.652  0.00  0.00    -0.250 OA
ATOM      3  C   UNL     1      32.540  -8.109 -20.138  0.00  0.00    +0.313 C 
BRANCH   3   4
ATOM      4  O   UNL     1      33.159  -7.099 -19.474  0.00  0.00    -0.480 OA
ATOM      5  H   UNL     1      32.664  -6.362 -19.176  0.00  0.00    +0.295 HD
ENDBRANCH   3   4
ENDBRANCH   1   3
BRANCH   1   6
ATOM      6  C   UNL     1      32.993  -8.325 -22.624  0.00  0.00    +0.011 C 
BRANCH   6   7
ATOM      7  C   UNL     1      34.295  -7.564 -22.906  0.00  0.00    +0.001 C 
ATOM      8  C   UNL     1      34.421  -7.076 -24.341  0.00  0.00    +0.000 C 
ENDBRANCH   6   7
ENDBRANCH   1   6
BRANCH   1   9
ATOM      9  C   UNL     1      32.047  -6.157 -21.635  0.00  0.00    +0.011 C 
BRANCH   9  10
ATOM     10  C   UNL     1      30.819  -5.598 -22.360  0.00  0.00    +0.001 C 
ATOM     11  C   UNL     1      31.127  -5.310 -23.822  0.00  0.00    +0.000 C 
ENDBRANCH   9  10
ENDBRANCH   1   9
TORSDOF 6
ENDMDL
MODEL 7
REMARK VINA RESULT:      -5.3     10.537     11.930
REMARK  Name = 3121
REMARK  6 active torsions:
REMARK  status: ('A' for Active; 'I' for Inactive)
REMARK    1  A    between atoms: C_1  and  C_3
REMARK    2  A    between atoms: C_1  and  C_6
REMARK    3  A    between atoms: C_1  and  C_9
REMARK    4  A    between atoms: C_3  and  O_4
REMARK    5  A    between atoms: C_6  and  C_7
REMARK    6  A    between atoms: C_9  and  C_10
REMARK                            x       y       z     vdW  Elec       q    Type
REMARK                         _______ _______ _______ _____ _____    ______ ____
ROOT
ATOM      1  C   UNL     1      32.746  -7.190 -21.802  0.00  0.00    +0.099 C 
ENDROOT
BRANCH   1   3
ATOM      2  O   UNL     1      32.290  -9.031 -20.266  0.00  0.00    -0.250 OA
ATOM      3  C   UNL     1      32.680  -7.885 -20.449  0.00  0.00    +0.313 C 
BRANCH   3   4
ATOM      4  O   UNL     1      33.124  -7.090 -19.441  0.00  0.00    -0.480 OA
ATOM      5  H   UNL     1      32.721  -6.258 -19.289  0.00  0.00    +0.295 HD
ENDBRANCH   3   4
ENDBRANCH   1   3
BRANCH   1   6
ATOM      6  C   UNL     1      31.357  -6.714 -22.268  0.00  0.00    +0.011 C 
BRANCH   6   7
ATOM      7  C   UNL     1      31.316  -5.272 -22.792  0.00  0.00    +0.001 C 
ATOM      8  C   UNL     1      31.144  -5.173 -24.300  0.00  0.00    +0.000 C 
ENDBRANCH   6   7
ENDBRANCH   1   6
BRANCH   1   9
ATOM      9  C   UNL     1      33.431  -8.112 -22.831  0.00  0.00    +0.011 C 
BRANCH   9  10
ATOM     10  C   UNL     1      34.742  -7.573 -23.411  0.00  0.00    +0.001 C 
ATOM     11  C   UNL     1      34.495  -6.777 -24.684  0.00  0.00    +0.000 C 
ENDBRANCH   9  10
ENDBRANCH   1   9
TORSDOF 6
ENDMDL
MODEL 8
REMARK VINA RESULT:      -5.3      1.949      4.059
REMARK  Name = 3121
REMARK  6 active torsions:
REMARK  status: ('A' for Active; 'I' for Inactive)
REMARK    1  A    between atoms: C_1  and  C_3
REMARK    2  A    between atoms: C_1  and  C_6
REMARK    3  A    between atoms: C_1  and  C_9
REMARK    4  A    between atoms: C_3  and  O_4
REMARK    5  A    between atoms: C_6  and  C_7
REMARK    6  A    between atoms: C_9  and  C_10
REMARK                            x       y       z     vdW  Elec       q    Type
REMARK                         _______ _______ _______ _____ _____    ______ ____
ROOT
ATOM      1  C   UNL     1      34.410 -18.397 -21.867  0.00  0.00    +0.099 C 
ENDROOT
BRANCH   1   3
ATOM      2  O   UNL     1      32.988 -20.091 -20.834  0.00  0.00    -0.250 OA
ATOM      3  C   UNL     1      34.086 -19.560 -20.938  0.00  0.00    +0.313 C 
BRANCH   3   4
ATOM      4  O   UNL     1      35.170 -19.968 -20.230  0.00  0.00    -0.480 OA
ATOM      5  H   UNL     1      36.028 -19.692 -20.485  0.00  0.00    +0.295 HD
ENDBRANCH   3   4
ENDBRANCH   1   3
BRANCH   1   6
ATOM      6  C   UNL     1      35.270 -18.845 -23.064  0.00  0.00    +0.011 C 
BRANCH   6   7
ATOM      7  C   UNL     1      34.572 -18.750 -24.427  0.00  0.00    +0.001 C 
ATOM      8  C   UNL     1      34.620 -17.362 -25.045  0.00  0.00    +0.000 C 
ENDBRANCH   6   7
ENDBRANCH   1   6
BRANCH   1   9
ATOM      9  C   UNL     1      35.061 -17.252 -21.065  0.00  0.00    +0.011 C 
BRANCH   9  10
ATOM     10  C   UNL     1      34.546 -15.850 -21.405  0.00  0.00    +0.001 C 
ATOM     11  C   UNL     1      33.094 -15.679 -20.983  0.00  0.00    +0.000 C 
ENDBRANCH   9  10
ENDBRANCH   1   9
TORSDOF 6
ENDMDL
MODEL 9
REMARK VINA RESULT:      -5.3      7.541      9.932
REMARK  Name = 3121
REMARK  6 active torsions:
REMARK  status: ('A' for Active; 'I' for Inactive)
REMARK    1  A    between atoms: C_1  and  C_3
REMARK    2  A    between atoms: C_1  and  C_6
REMARK    3  A    between atoms: C_1  and  C_9
REMARK    4  A    between atoms: C_3  and  O_4
REMARK    5  A    between atoms: C_6  and  C_7
REMARK    6  A    between atoms: C_9  and  C_10
REMARK                            x       y       z     vdW  Elec       q    Type
REMARK                         _______ _______ _______ _____ _____    ______ ____
ROOT
ATOM      1  C   UNL     1      29.666 -23.358 -16.080  0.00  0.00    +0.099 C 
ENDROOT
BRANCH   1   3
ATOM      2  O   UNL     1      27.760 -24.023 -17.452  0.00  0.00    -0.250 OA
ATOM      3  C   UNL     1      28.396 -23.140 -16.891  0.00  0.00    +0.313 C 
BRANCH   3   4
ATOM      4  O   UNL     1      28.020 -21.835 -16.917  0.00  0.00    -0.480 OA
ATOM      5  H   UNL     1      28.187 -21.284 -16.178  0.00  0.00    +0.295 HD
ENDBRANCH   3   4
ENDBRANCH   1   3
BRANCH   1   6
ATOM      6  C   UNL     1      30.870 -22.621 -16.695  0.00  0.00    +0.011 C 
BRANCH   6   7
ATOM      7  C   UNL     1      32.222 -23.315 -16.484  0.00  0.00    +0.001 C 
ATOM      8  C   UNL     1      33.205 -23.102 -17.625  0.00  0.00    +0.000 C 
ENDBRANCH   6   7
ENDBRANCH   1   6
BRANCH   1   9
ATOM      9  C   UNL     1      29.922 -24.869 -15.906  0.00  0.00    +0.011 C 
BRANCH   9  10
ATOM     10  C   UNL     1      29.752 -25.393 -14.476  0.00  0.00    +0.001 C 
ATOM     11  C   UNL     1      30.662 -24.654 -13.506  0.00  0.00    +0.000 C 
ENDBRANCH   9  10
ENDBRANCH   1   9
TORSDOF 6
ENDMDL
