MODEL 1
REMARK VINA RESULT:      -6.1      0.000      0.000
REMARK  Name = 444792
REMARK  4 active torsions:
REMARK  status: ('A' for Active; 'I' for Inactive)
REMARK    1  A    between atoms: C_2  and  O_10
REMARK    2  A    between atoms: C_3  and  O_12
REMARK    3  A    between atoms: C_4  and  O_8
REMARK    4  A    between atoms: C_6  and  O_14
REMARK                            x       y       z     vdW  Elec       q    Type
REMARK                         _______ _______ _______ _____ _____    ______ ____
ROOT
ATOM      1  O   UNL     1      36.876 -24.178 -13.288  0.00  0.00    -0.329 OA
ATOM      2  C   UNL     1      36.859 -26.553 -14.911  0.00  0.00    +0.172 C 
ATOM      3  C   UNL     1      35.648 -25.617 -14.833  0.00  0.00    +0.167 C 
ATOM      4  C   UNL     1      38.148 -25.798 -14.588  0.00  0.00    +0.200 C 
ATOM      5  C   UNL     1      35.634 -24.870 -13.493  0.00  0.00    +0.147 C 
ATOM      6  C   UNL     1      38.015 -25.042 -13.262  0.00  0.00    +0.263 C 
ATOM      7  C   UNL     1      34.520 -23.832 -13.417  0.00  0.00    +0.035 C 
ENDROOT
BRANCH   4   8
ATOM      8  O   UNL     1      39.232 -26.720 -14.521  0.00  0.00    -0.346 OA
ATOM      9  C   UNL     1      40.483 -26.058 -14.635  0.00  0.00    +0.174 C 
ENDBRANCH   4   8
BRANCH   2  10
ATOM     10  O   UNL     1      36.957 -27.117 -16.216  0.00  0.00    -0.379 OA
ATOM     11  H   UNL     1      36.495 -26.547 -16.851  0.00  0.00    +0.211 HD
ENDBRANCH   2  10
BRANCH   3  12
ATOM     12  O   UNL     1      35.692 -24.681 -15.912  0.00  0.00    -0.379 OA
ATOM     13  H   UNL     1      35.958 -25.138 -16.726  0.00  0.00    +0.211 HD
ENDBRANCH   3  12
BRANCH   6  14
ATOM     14  O   UNL     1      37.958 -25.965 -12.175  0.00  0.00    -0.358 OA
ATOM     15  H   UNL     1      37.182 -26.537 -12.277  0.00  0.00    +0.213 HD
ENDBRANCH   6  14
TORSDOF 4
ENDMDL
MODEL 2
REMARK VINA RESULT:      -6.0      1.660      2.908
REMARK  Name = 444792
REMARK  4 active torsions:
REMARK  status: ('A' for Active; 'I' for Inactive)
REMARK    1  A    between atoms: C_2  and  O_10
REMARK    2  A    between atoms: C_3  and  O_12
REMARK    3  A    between atoms: C_4  and  O_8
REMARK    4  A    between atoms: C_6  and  O_14
REMARK                            x       y       z     vdW  Elec       q    Type
REMARK                         _______ _______ _______ _____ _____    ______ ____
ROOT
ATOM      1  O   UNL     1      36.296 -24.796 -15.014  0.00  0.00    -0.329 OA
ATOM      2  C   UNL     1      37.603 -23.955 -12.592  0.00  0.00    +0.172 C 
ATOM      3  C   UNL     1      36.076 -23.994 -12.717  0.00  0.00    +0.167 C 
ATOM      4  C   UNL     1      38.250 -24.939 -13.567  0.00  0.00    +0.200 C 
ATOM      5  C   UNL     1      35.653 -23.818 -14.182  0.00  0.00    +0.147 C 
ATOM      6  C   UNL     1      37.723 -24.719 -14.989  0.00  0.00    +0.263 C 
ATOM      7  C   UNL     1      34.149 -23.976 -14.376  0.00  0.00    +0.035 C 
ENDROOT
BRANCH   4   8
ATOM      8  O   UNL     1      39.664 -24.774 -13.536  0.00  0.00    -0.346 OA
ATOM      9  C   UNL     1      40.324 -25.819 -14.235  0.00  0.00    +0.174 C 
ENDBRANCH   4   8
BRANCH   2  10
ATOM     10  O   UNL     1      37.993 -24.283 -11.262  0.00  0.00    -0.379 OA
ATOM     11  H   UNL     1      38.334 -23.489 -10.820  0.00  0.00    +0.211 HD
ENDBRANCH   2  10
BRANCH   3  12
ATOM     12  O   UNL     1      35.583 -25.238 -12.214  0.00  0.00    -0.379 OA
ATOM     13  H   UNL     1      36.167 -25.958 -12.500  0.00  0.00    +0.211 HD
ENDBRANCH   3  12
BRANCH   6  14
ATOM     14  O   UNL     1      38.199 -23.474 -15.500  0.00  0.00    -0.358 OA
ATOM     15  H   UNL     1      38.166 -22.804 -14.800  0.00  0.00    +0.213 HD
ENDBRANCH   6  14
TORSDOF 4
ENDMDL
MODEL 3
REMARK VINA RESULT:      -5.9      1.470      3.922
REMARK  Name = 444792
REMARK  4 active torsions:
REMARK  status: ('A' for Active; 'I' for Inactive)
REMARK    1  A    between atoms: C_2  and  O_10
REMARK    2  A    between atoms: C_3  and  O_12
REMARK    3  A    between atoms: C_4  and  O_8
REMARK    4  A    between atoms: C_6  and  O_14
REMARK                            x       y       z     vdW  Elec       q    Type
REMARK                         _______ _______ _______ _____ _____    ______ ____
ROOT
ATOM      1  O   UNL     1      38.407 -23.951 -14.257  0.00  0.00    -0.329 OA
ATOM      2  C   UNL     1      36.733 -26.033 -15.328  0.00  0.00    +0.172 C 
ATOM      3  C   UNL     1      38.041 -26.343 -14.591  0.00  0.00    +0.167 C 
ATOM      4  C   UNL     1      36.170 -24.683 -14.882  0.00  0.00    +0.200 C 
ATOM      5  C   UNL     1      39.019 -25.167 -14.717  0.00  0.00    +0.147 C 
ATOM      6  C   UNL     1      37.235 -23.588 -14.992  0.00  0.00    +0.263 C 
ATOM      7  C   UNL     1      40.286 -25.374 -13.895  0.00  0.00    +0.035 C 
ENDROOT
BRANCH   4   8
ATOM      8  O   UNL     1      35.041 -24.354 -15.686  0.00  0.00    -0.346 OA
ATOM      9  C   UNL     1      33.962 -23.878 -14.896  0.00  0.00    +0.174 C 
ENDBRANCH   4   8
BRANCH   2  10
ATOM     10  O   UNL     1      35.773 -27.053 -15.070  0.00  0.00    -0.379 OA
ATOM     11  H   UNL     1      36.146 -27.699 -14.448  0.00  0.00    +0.211 HD
ENDBRANCH   2  10
BRANCH   3  12
ATOM     12  O   UNL     1      37.768 -26.605 -13.213  0.00  0.00    -0.379 OA
ATOM     13  H   UNL     1      36.966 -27.146 -13.139  0.00  0.00    +0.211 HD
ENDBRANCH   3  12
BRANCH   6  14
ATOM     14  O   UNL     1      37.526 -23.323 -16.364  0.00  0.00    -0.358 OA
ATOM     15  H   UNL     1      38.118 -22.558 -16.426  0.00  0.00    +0.213 HD
ENDBRANCH   6  14
TORSDOF 4
ENDMDL
MODEL 4
REMARK VINA RESULT:      -5.9      2.016      2.784
REMARK  Name = 444792
REMARK  4 active torsions:
REMARK  status: ('A' for Active; 'I' for Inactive)
REMARK    1  A    between atoms: C_2  and  O_10
REMARK    2  A    between atoms: C_3  and  O_12
REMARK    3  A    between atoms: C_4  and  O_8
REMARK    4  A    between atoms: C_6  and  O_14
REMARK                            x       y       z     vdW  Elec       q    Type
REMARK                         _______ _______ _______ _____ _____    ______ ____
ROOT
ATOM      1  O   UNL     1      37.349 -25.472 -11.580  0.00  0.00    -0.329 OA
ATOM      2  C   UNL     1      37.291 -23.870 -13.969  0.00  0.00    +0.172 C 
ATOM      3  C   UNL     1      36.703 -23.372 -12.645  0.00  0.00    +0.167 C 
ATOM      4  C   UNL     1      38.376 -24.919 -13.718  0.00  0.00    +0.200 C 
ATOM      5  C   UNL     1      36.261 -24.556 -11.775  0.00  0.00    +0.147 C 
ATOM      6  C   UNL     1      37.856 -26.027 -12.797  0.00  0.00    +0.263 C 
ATOM      7  C   UNL     1      35.786 -24.117 -10.394  0.00  0.00    +0.035 C 
ENDROOT
BRANCH   4   8
ATOM      8  O   UNL     1      38.797 -25.471 -14.962  0.00  0.00    -0.346 OA
ATOM      9  C   UNL     1      40.212 -25.556 -15.039  0.00  0.00    +0.174 C 
ENDBRANCH   4   8
BRANCH   2  10
ATOM     10  O   UNL     1      37.849 -22.781 -14.698  0.00  0.00    -0.379 OA
ATOM     11  H   UNL     1      38.809 -22.758 -14.562  0.00  0.00    +0.211 HD
ENDBRANCH   2  10
BRANCH   3  12
ATOM     12  O   UNL     1      37.677 -22.591 -11.948  0.00  0.00    -0.379 OA
ATOM     13  H   UNL     1      37.482 -22.603 -10.998  0.00  0.00    +0.211 HD
ENDBRANCH   3  12
BRANCH   6  14
ATOM     14  O   UNL     1      36.872 -26.807 -13.476  0.00  0.00    -0.358 OA
ATOM     15  H   UNL     1      36.652 -27.585 -12.941  0.00  0.00    +0.213 HD
ENDBRANCH   6  14
TORSDOF 4
ENDMDL
MODEL 5
REMARK VINA RESULT:      -5.8      1.507      3.701
REMARK  Name = 444792
REMARK  4 active torsions:
REMARK  status: ('A' for Active; 'I' for Inactive)
REMARK    1  A    between atoms: C_2  and  O_10
REMARK    2  A    between atoms: C_3  and  O_12
REMARK    3  A    between atoms: C_4  and  O_8
REMARK    4  A    between atoms: C_6  and  O_14
REMARK                            x       y       z     vdW  Elec       q    Type
REMARK                         _______ _______ _______ _____ _____    ______ ____
ROOT
ATOM      1  O   UNL     1      39.123 -24.893 -13.147  0.00  0.00    -0.329 OA
ATOM      2  C   UNL     1      36.645 -25.404 -14.519  0.00  0.00    +0.172 C 
ATOM      3  C   UNL     1      37.987 -25.920 -15.050  0.00  0.00    +0.167 C 
ATOM      4  C   UNL     1      36.709 -25.190 -13.006  0.00  0.00    +0.200 C 
ATOM      5  C   UNL     1      39.134 -25.017 -14.578  0.00  0.00    +0.147 C 
ATOM      6  C   UNL     1      37.916 -24.324 -12.631  0.00  0.00    +0.263 C 
ATOM      7  C   UNL     1      40.503 -25.560 -14.974  0.00  0.00    +0.035 C 
ENDROOT
BRANCH   4   8
ATOM      8  O   UNL     1      35.505 -24.571 -12.564  0.00  0.00    -0.346 OA
ATOM      9  C   UNL     1      35.444 -24.506 -11.148  0.00  0.00    +0.174 C 
ENDBRANCH   4   8
BRANCH   2  10
ATOM     10  O   UNL     1      35.609 -26.334 -14.820  0.00  0.00    -0.379 OA
ATOM     11  H   UNL     1      35.224 -26.120 -15.685  0.00  0.00    +0.211 HD
ENDBRANCH   2  10
BRANCH   3  12
ATOM     12  O   UNL     1      38.202 -27.259 -14.596  0.00  0.00    -0.379 OA
ATOM     13  H   UNL     1      37.381 -27.605 -14.211  0.00  0.00    +0.211 HD
ENDBRANCH   3  12
BRANCH   6  14
ATOM     14  O   UNL     1      37.720 -22.987 -13.089  0.00  0.00    -0.358 OA
ATOM     15  H   UNL     1      38.562 -22.507 -13.054  0.00  0.00    +0.213 HD
ENDBRANCH   6  14
TORSDOF 4
ENDMDL
MODEL 6
REMARK VINA RESULT:      -5.8      5.645      8.091
REMARK  Name = 444792
REMARK  4 active torsions:
REMARK  status: ('A' for Active; 'I' for Inactive)
REMARK    1  A    between atoms: C_2  and  O_10
REMARK    2  A    between atoms: C_3  and  O_12
REMARK    3  A    between atoms: C_4  and  O_8
REMARK    4  A    between atoms: C_6  and  O_14
REMARK                            x       y       z     vdW  Elec       q    Type
REMARK                         _______ _______ _______ _____ _____    ______ ____
ROOT
ATOM      1  O   UNL     1      31.515 -22.772 -14.660  0.00  0.00    -0.329 OA
ATOM      2  C   UNL     1      29.782 -25.047 -14.974  0.00  0.00    +0.172 C 
ATOM      3  C   UNL     1      31.030 -25.096 -14.086  0.00  0.00    +0.167 C 
ATOM      4  C   UNL     1      29.274 -23.611 -15.114  0.00  0.00    +0.200 C 
ATOM      5  C   UNL     1      32.079 -24.090 -14.580  0.00  0.00    +0.147 C 
ATOM      6  C   UNL     1      30.405 -22.678 -15.557  0.00  0.00    +0.263 C 
ATOM      7  C   UNL     1      33.289 -24.010 -13.655  0.00  0.00    +0.035 C 
ENDROOT
BRANCH   4   8
ATOM      8  O   UNL     1      28.210 -23.577 -16.060  0.00  0.00    -0.346 OA
ATOM      9  C   UNL     1      27.411 -22.414 -15.899  0.00  0.00    +0.174 C 
ENDBRANCH   4   8
BRANCH   2  10
ATOM     10  O   UNL     1      28.752 -25.858 -14.415  0.00  0.00    -0.379 OA
ATOM     11  H   UNL     1      28.234 -26.261 -15.130  0.00  0.00    +0.211 HD
ENDBRANCH   2  10
BRANCH   3  12
ATOM     12  O   UNL     1      30.672 -24.802 -12.734  0.00  0.00    -0.379 OA
ATOM     13  H   UNL     1      30.178 -23.967 -12.704  0.00  0.00    +0.211 HD
ENDBRANCH   3  12
BRANCH   6  14
ATOM     14  O   UNL     1      30.782 -22.968 -16.903  0.00  0.00    -0.358 OA
ATOM     15  H   UNL     1      30.461 -23.851 -17.144  0.00  0.00    +0.213 HD
ENDBRANCH   6  14
TORSDOF 4
ENDMDL
MODEL 7
REMARK VINA RESULT:      -5.7      1.543      4.318
REMARK  Name = 444792
REMARK  4 active torsions:
REMARK  status: ('A' for Active; 'I' for Inactive)
REMARK    1  A    between atoms: C_2  and  O_10
REMARK    2  A    between atoms: C_3  and  O_12
REMARK    3  A    between atoms: C_4  and  O_8
REMARK    4  A    between atoms: C_6  and  O_14
REMARK                            x       y       z     vdW  Elec       q    Type
REMARK                         _______ _______ _______ _____ _____    ______ ____
ROOT
ATOM      1  O   UNL     1      37.818 -25.127 -15.009  0.00  0.00    -0.329 OA
ATOM      2  C   UNL     1      36.689 -25.328 -12.370  0.00  0.00    +0.172 C 
ATOM      3  C   UNL     1      38.203 -25.338 -12.606  0.00  0.00    +0.167 C 
ATOM      4  C   UNL     1      35.969 -24.608 -13.511  0.00  0.00    +0.200 C 
ATOM      5  C   UNL     1      38.523 -25.876 -14.007  0.00  0.00    +0.147 C 
ATOM      6  C   UNL     1      36.396 -25.180 -14.867  0.00  0.00    +0.263 C 
ATOM      7  C   UNL     1      40.009 -25.788 -14.339  0.00  0.00    +0.035 C 
ENDROOT
BRANCH   4   8
ATOM      8  O   UNL     1      34.561 -24.745 -13.342  0.00  0.00    -0.346 OA
ATOM      9  C   UNL     1      33.849 -23.843 -14.175  0.00  0.00    +0.174 C 
ENDBRANCH   4   8
BRANCH   2  10
ATOM     10  O   UNL     1      36.391 -24.676 -11.139  0.00  0.00    -0.379 OA
ATOM     11  H   UNL     1      35.486 -24.327 -11.168  0.00  0.00    +0.211 HD
ENDBRANCH   2  10
BRANCH   3  12
ATOM     12  O   UNL     1      38.722 -24.014 -12.462  0.00  0.00    -0.379 OA
ATOM     13  H   UNL     1      38.688 -23.753 -11.528  0.00  0.00    +0.211 HD
ENDBRANCH   3  12
BRANCH   6  14
ATOM     14  O   UNL     1      35.893 -26.507 -15.019  0.00  0.00    -0.358 OA
ATOM     15  H   UNL     1      36.566 -27.142 -14.728  0.00  0.00    +0.213 HD
ENDBRANCH   6  14
TORSDOF 4
ENDMDL
MODEL 8
REMARK VINA RESULT:      -5.5     11.001     12.527
REMARK  Name = 444792
REMARK  4 active torsions:
REMARK  status: ('A' for Active; 'I' for Inactive)
REMARK    1  A    between atoms: C_2  and  O_10
REMARK    2  A    between atoms: C_3  and  O_12
REMARK    3  A    between atoms: C_4  and  O_8
REMARK    4  A    between atoms: C_6  and  O_14
REMARK                            x       y       z     vdW  Elec       q    Type
REMARK                         _______ _______ _______ _____ _____    ______ ____
ROOT
ATOM      1  O   UNL     1      33.972 -17.728 -20.933  0.00  0.00    -0.329 OA
ATOM      2  C   UNL     1      35.394 -16.652 -23.191  0.00  0.00    +0.172 C 
ATOM      3  C   UNL     1      35.446 -18.142 -22.836  0.00  0.00    +0.167 C 
ATOM      4  C   UNL     1      34.111 -16.014 -22.657  0.00  0.00    +0.200 C 
ATOM      5  C   UNL     1      35.206 -18.344 -21.334  0.00  0.00    +0.147 C 
ATOM      6  C   UNL     1      33.934 -16.318 -21.166  0.00  0.00    +0.263 C 
ATOM      7  C   UNL     1      35.122 -19.817 -20.951  0.00  0.00    +0.035 C 
ENDROOT
BRANCH   4   8
ATOM      8  O   UNL     1      34.159 -14.606 -22.870  0.00  0.00    -0.346 OA
ATOM      9  C   UNL     1      32.862 -14.031 -22.835  0.00  0.00    +0.174 C 
ENDBRANCH   4   8
BRANCH   2  10
ATOM     10  O   UNL     1      35.452 -16.484 -24.605  0.00  0.00    -0.379 OA
ATOM     11  H   UNL     1      35.733 -15.578 -24.812  0.00  0.00    +0.211 HD
ENDBRANCH   2  10
BRANCH   3  12
ATOM     12  O   UNL     1      34.458 -18.851 -23.587  0.00  0.00    -0.379 OA
ATOM     13  H   UNL     1      34.498 -18.575 -24.517  0.00  0.00    +0.211 HD
ENDBRANCH   3  12
BRANCH   6  14
ATOM     14  O   UNL     1      34.922 -15.625 -20.405  0.00  0.00    -0.358 OA
ATOM     15  H   UNL     1      34.813 -14.669 -20.527  0.00  0.00    +0.213 HD
ENDBRANCH   6  14
TORSDOF 4
ENDMDL
MODEL 9
REMARK VINA RESULT:      -5.5     12.427     14.172
REMARK  Name = 444792
REMARK  4 active torsions:
REMARK  status: ('A' for Active; 'I' for Inactive)
REMARK    1  A    between atoms: C_2  and  O_10
REMARK    2  A    between atoms: C_3  and  O_12
REMARK    3  A    between atoms: C_4  and  O_8
REMARK    4  A    between atoms: C_6  and  O_14
REMARK                            x       y       z     vdW  Elec       q    Type
REMARK                         _______ _______ _______ _____ _____    ______ ____
ROOT
ATOM      1  O   UNL     1      35.335 -16.012 -22.987  0.00  0.00    -0.329 OA
ATOM      2  C   UNL     1      33.046 -14.828 -21.707  0.00  0.00    +0.172 C 
ATOM      3  C   UNL     1      33.890 -15.907 -21.021  0.00  0.00    +0.167 C 
ATOM      4  C   UNL     1      33.874 -14.078 -22.751  0.00  0.00    +0.200 C 
ATOM      5  C   UNL     1      34.568 -16.804 -22.066  0.00  0.00    +0.147 C 
ATOM      6  C   UNL     1      34.553 -15.059 -23.712  0.00  0.00    +0.263 C 
ATOM      7  C   UNL     1      35.519 -17.814 -21.436  0.00  0.00    +0.035 C 
ENDROOT
BRANCH   4   8
ATOM      8  O   UNL     1      33.029 -13.188 -23.474  0.00  0.00    -0.346 OA
ATOM      9  C   UNL     1      33.775 -12.147 -24.086  0.00  0.00    +0.174 C 
ENDBRANCH   4   8
BRANCH   2  10
ATOM     10  O   UNL     1      32.555 -13.903 -20.741  0.00  0.00    -0.379 OA
ATOM     11  H   UNL     1      32.287 -13.083 -21.186  0.00  0.00    +0.211 HD
ENDBRANCH   2  10
BRANCH   3  12
ATOM     12  O   UNL     1      34.878 -15.292 -20.191  0.00  0.00    -0.379 OA
ATOM     13  H   UNL     1      34.480 -15.049 -19.340  0.00  0.00    +0.211 HD
ENDBRANCH   3  12
BRANCH   6  14
ATOM     14  O   UNL     1      33.576 -15.690 -24.539  0.00  0.00    -0.358 OA
ATOM     15  H   UNL     1      34.021 -16.214 -25.223  0.00  0.00    +0.213 HD
ENDBRANCH   6  14
TORSDOF 4
ENDMDL
