MODEL 1
REMARK VINA RESULT:      -8.3      0.000      0.000
REMARK  Name = 445462
REMARK  5 active torsions:
REMARK  status: ('A' for Active; 'I' for Inactive)
REMARK    1  A    between atoms: C_7  and  C_16
REMARK    2  A    between atoms: C_16  and  O_17
REMARK    3  A    between atoms: O_17  and  P_18
REMARK    4  A    between atoms: P_18  and  O_20
REMARK    5  A    between atoms: P_18  and  O_22
REMARK                            x       y       z     vdW  Elec       q    Type
REMARK                         _______ _______ _______ _____ _____    ______ ____
ROOT
ATOM      1  O   UNL     1      34.317 -23.085 -17.900  0.00  0.00    -0.206 OA
ATOM      2  N   UNL     1      34.956 -23.710 -15.384  0.00  0.00    -0.391 NA
ATOM      3  N   UNL     1      31.335 -23.260 -15.244  0.00  0.00    -0.259 N 
ATOM      4  N   UNL     1      32.879 -23.842 -13.499  0.00  0.00    -0.246 NA
ATOM      5  N   UNL     1      32.068 -22.875 -17.478  0.00  0.00    -0.300 NA
ATOM      6  N   UNL     1      29.810 -22.705 -16.867  0.00  0.00    -0.320 N 
ATOM      7  C   UNL     1      35.185 -24.019 -14.095  0.00  0.00    +0.143 C 
ATOM      8  C   UNL     1      33.668 -23.471 -15.703  0.00  0.00    +0.255 C 
ATOM      9  C   UNL     1      32.628 -23.530 -14.789  0.00  0.00    +0.173 C 
ATOM     10  C   UNL     1      34.166 -24.084 -13.170  0.00  0.00    +0.184 C 
ATOM     11  C   UNL     1      33.377 -23.128 -17.112  0.00  0.00    +0.240 C 
ATOM     12  C   UNL     1      31.128 -22.946 -16.570  0.00  0.00    +0.249 C 
ATOM     13  H   UNL     1      30.575 -23.292 -14.620  0.00  0.00    +0.157 HD
ATOM     14  H   UNL     1      29.127 -22.767 -16.161  0.00  0.00    +0.146 HD
ATOM     15  H   UNL     1      29.547 -22.473 -17.787  0.00  0.00    +0.146 HD
ENDROOT
BRANCH   7  16
ATOM     16  C   UNL     1      36.591 -24.294 -13.689  0.00  0.00    +0.209 C 
BRANCH  16  17
ATOM     17  O   UNL     1      37.271 -24.953 -14.751  0.00  0.00    -0.266 OA
BRANCH  17  18
ATOM     18  P   UNL     1      37.247 -26.569 -14.791  0.00  0.00    +0.473 P 
ATOM     19  O   UNL     1      36.440 -27.166 -15.907  0.00  0.00    -0.227 OA
BRANCH  18  20
ATOM     20  O   UNL     1      36.780 -26.984 -13.300  0.00  0.00    -0.303 OA
ATOM     21  H   UNL     1      37.366 -26.568 -12.649  0.00  0.00    +0.222 HD
ENDBRANCH  18  20
BRANCH  18  22
ATOM     22  O   UNL     1      38.820 -26.947 -14.806  0.00  0.00    -0.303 OA
ATOM     23  H   UNL     1      39.058 -27.372 -13.968  0.00  0.00    +0.222 HD
ENDBRANCH  18  22
ENDBRANCH  17  18
ENDBRANCH  16  17
ENDBRANCH   7  16
TORSDOF 5
ENDMDL
MODEL 2
REMARK VINA RESULT:      -8.3      1.904      2.622
REMARK  Name = 445462
REMARK  5 active torsions:
REMARK  status: ('A' for Active; 'I' for Inactive)
REMARK    1  A    between atoms: C_7  and  C_16
REMARK    2  A    between atoms: C_16  and  O_17
REMARK    3  A    between atoms: O_17  and  P_18
REMARK    4  A    between atoms: P_18  and  O_20
REMARK    5  A    between atoms: P_18  and  O_22
REMARK                            x       y       z     vdW  Elec       q    Type
REMARK                         _______ _______ _______ _____ _____    ______ ____
ROOT
ATOM      1  O   UNL     1      36.774 -21.775 -18.477  0.00  0.00    -0.206 OA
ATOM      2  N   UNL     1      35.606 -23.147 -16.506  0.00  0.00    -0.391 NA
ATOM      3  N   UNL     1      32.797 -22.148 -18.613  0.00  0.00    -0.259 N 
ATOM      4  N   UNL     1      32.814 -23.425 -16.579  0.00  0.00    -0.246 NA
ATOM      5  N   UNL     1      34.810 -21.311 -19.575  0.00  0.00    -0.300 NA
ATOM      6  N   UNL     1      32.714 -20.933 -20.558  0.00  0.00    -0.320 N 
ATOM      7  C   UNL     1      34.934 -23.822 -15.555  0.00  0.00    +0.143 C 
ATOM      8  C   UNL     1      34.848 -22.619 -17.487  0.00  0.00    +0.255 C 
ATOM      9  C   UNL     1      33.469 -22.743 -17.543  0.00  0.00    +0.173 C 
ATOM     10  C   UNL     1      33.564 -23.958 -15.591  0.00  0.00    +0.184 C 
ATOM     11  C   UNL     1      35.553 -21.868 -18.550  0.00  0.00    +0.240 C 
ATOM     12  C   UNL     1      33.509 -21.462 -19.573  0.00  0.00    +0.249 C 
ATOM     13  H   UNL     1      31.817 -22.217 -18.681  0.00  0.00    +0.157 HD
ATOM     14  H   UNL     1      31.739 -21.065 -20.528  0.00  0.00    +0.146 HD
ATOM     15  H   UNL     1      33.119 -20.423 -21.297  0.00  0.00    +0.146 HD
ENDROOT
BRANCH   7  16
ATOM     16  C   UNL     1      35.725 -24.427 -14.448  0.00  0.00    +0.209 C 
BRANCH  16  17
ATOM     17  O   UNL     1      36.954 -24.927 -14.960  0.00  0.00    -0.266 OA
BRANCH  17  18
ATOM     18  P   UNL     1      37.206 -26.523 -14.929  0.00  0.00    +0.473 P 
ATOM     19  O   UNL     1      36.649 -27.278 -16.100  0.00  0.00    -0.227 OA
BRANCH  18  20
ATOM     20  O   UNL     1      36.640 -26.974 -13.483  0.00  0.00    -0.303 OA
ATOM     21  H   UNL     1      37.044 -26.427 -12.792  0.00  0.00    +0.222 HD
ENDBRANCH  18  20
BRANCH  18  22
ATOM     22  O   UNL     1      38.810 -26.627 -14.748  0.00  0.00    -0.303 OA
ATOM     23  H   UNL     1      39.087 -26.081 -13.996  0.00  0.00    +0.222 HD
ENDBRANCH  18  22
ENDBRANCH  17  18
ENDBRANCH  16  17
ENDBRANCH   7  16
TORSDOF 5
ENDMDL
MODEL 3
REMARK VINA RESULT:      -8.3      1.780      2.737
REMARK  Name = 445462
REMARK  5 active torsions:
REMARK  status: ('A' for Active; 'I' for Inactive)
REMARK    1  A    between atoms: C_7  and  C_16
REMARK    2  A    between atoms: C_16  and  O_17
REMARK    3  A    between atoms: O_17  and  P_18
REMARK    4  A    between atoms: P_18  and  O_20
REMARK    5  A    between atoms: P_18  and  O_22
REMARK                            x       y       z     vdW  Elec       q    Type
REMARK                         _______ _______ _______ _____ _____    ______ ____
ROOT
ATOM      1  O   UNL     1      35.820 -23.369 -16.500  0.00  0.00    -0.206 OA
ATOM      2  N   UNL     1      36.755 -24.123 -14.114  0.00  0.00    -0.391 NA
ATOM      3  N   UNL     1      33.178 -23.693 -13.517  0.00  0.00    -0.259 N 
ATOM      4  N   UNL     1      34.919 -24.361 -12.003  0.00  0.00    -0.246 NA
ATOM      5  N   UNL     1      33.638 -23.190 -15.800  0.00  0.00    -0.300 NA
ATOM      6  N   UNL     1      31.471 -23.060 -14.914  0.00  0.00    -0.320 N 
ATOM      7  C   UNL     1      37.136 -24.498 -12.880  0.00  0.00    +0.143 C 
ATOM      8  C   UNL     1      35.439 -23.872 -14.263  0.00  0.00    +0.255 C 
ATOM      9  C   UNL     1      34.516 -23.983 -13.236  0.00  0.00    +0.173 C 
ATOM     10  C   UNL     1      36.235 -24.615 -11.844  0.00  0.00    +0.184 C 
ATOM     11  C   UNL     1      34.982 -23.456 -15.608  0.00  0.00    +0.240 C 
ATOM     12  C   UNL     1      32.814 -23.311 -14.791  0.00  0.00    +0.249 C 
ATOM     13  H   UNL     1      32.498 -23.761 -12.809  0.00  0.00    +0.157 HD
ATOM     14  H   UNL     1      30.877 -23.161 -14.135  0.00  0.00    +0.146 HD
ATOM     15  H   UNL     1      31.100 -22.781 -15.783  0.00  0.00    +0.146 HD
ENDROOT
BRANCH   7  16
ATOM     16  C   UNL     1      38.580 -24.789 -12.662  0.00  0.00    +0.209 C 
BRANCH  16  17
ATOM     17  O   UNL     1      39.285 -24.646 -13.889  0.00  0.00    -0.266 OA
BRANCH  17  18
ATOM     18  P   UNL     1      39.918 -25.969 -14.568  0.00  0.00    +0.473 P 
ATOM     19  O   UNL     1      41.089 -26.560 -13.840  0.00  0.00    -0.227 OA
BRANCH  18  20
ATOM     20  O   UNL     1      40.209 -25.517 -16.094  0.00  0.00    -0.303 OA
ATOM     21  H   UNL     1      39.456 -25.761 -16.653  0.00  0.00    +0.222 HD
ENDBRANCH  18  20
BRANCH  18  22
ATOM     22  O   UNL     1      38.636 -26.945 -14.709  0.00  0.00    -0.303 OA
ATOM     23  H   UNL     1      38.934 -27.841 -14.929  0.00  0.00    +0.222 HD
ENDBRANCH  18  22
ENDBRANCH  17  18
ENDBRANCH  16  17
ENDBRANCH   7  16
TORSDOF 5
ENDMDL
MODEL 4
REMARK VINA RESULT:      -8.2      3.947      6.451
REMARK  Name = 445462
REMARK  5 active torsions:
REMARK  status: ('A' for Active; 'I' for Inactive)
REMARK    1  A    between atoms: C_7  and  C_16
REMARK    2  A    between atoms: C_16  and  O_17
REMARK    3  A    between atoms: O_17  and  P_18
REMARK    4  A    between atoms: P_18  and  O_20
REMARK    5  A    between atoms: P_18  and  O_22
REMARK                            x       y       z     vdW  Elec       q    Type
REMARK                         _______ _______ _______ _____ _____    ______ ____
ROOT
ATOM      1  O   UNL     1      36.852 -26.142 -11.750  0.00  0.00    -0.206 OA
ATOM      2  N   UNL     1      35.218 -24.772 -13.358  0.00  0.00    -0.391 NA
ATOM      3  N   UNL     1      38.341 -24.900 -15.245  0.00  0.00    -0.259 N 
ATOM      4  N   UNL     1      36.239 -23.891 -15.820  0.00  0.00    -0.246 NA
ATOM      5  N   UNL     1      38.650 -26.043 -13.177  0.00  0.00    -0.300 NA
ATOM      6  N   UNL     1      40.375 -25.844 -14.754  0.00  0.00    -0.320 N 
ATOM      7  C   UNL     1      34.467 -24.077 -14.231  0.00  0.00    +0.143 C 
ATOM      8  C   UNL     1      36.486 -25.013 -13.748  0.00  0.00    +0.255 C 
ATOM      9  C   UNL     1      37.010 -24.588 -14.958  0.00  0.00    +0.173 C 
ATOM     10  C   UNL     1      34.968 -23.644 -15.440  0.00  0.00    +0.184 C 
ATOM     11  C   UNL     1      37.343 -25.775 -12.813  0.00  0.00    +0.240 C 
ATOM     12  C   UNL     1      39.089 -25.614 -14.334  0.00  0.00    +0.249 C 
ATOM     13  H   UNL     1      38.744 -24.612 -16.096  0.00  0.00    +0.157 HD
ATOM     14  H   UNL     1      40.675 -25.508 -15.630  0.00  0.00    +0.146 HD
ATOM     15  H   UNL     1      40.998 -26.346 -14.180  0.00  0.00    +0.146 HD
ENDROOT
BRANCH   7  16
ATOM     16  C   UNL     1      33.057 -23.785 -13.850  0.00  0.00    +0.209 C 
BRANCH  16  17
ATOM     17  O   UNL     1      32.224 -24.869 -14.242  0.00  0.00    -0.266 OA
BRANCH  17  18
ATOM     18  P   UNL     1      30.623 -24.688 -14.121  0.00  0.00    +0.473 P 
ATOM     19  O   UNL     1      30.065 -23.477 -14.810  0.00  0.00    -0.227 OA
BRANCH  18  20
ATOM     20  O   UNL     1      30.345 -24.768 -12.530  0.00  0.00    -0.303 OA
ATOM     21  H   UNL     1      31.183 -24.909 -12.062  0.00  0.00    +0.222 HD
ENDBRANCH  18  20
BRANCH  18  22
ATOM     22  O   UNL     1      30.063 -26.104 -14.667  0.00  0.00    -0.303 OA
ATOM     23  H   UNL     1      29.114 -26.172 -14.479  0.00  0.00    +0.222 HD
ENDBRANCH  18  22
ENDBRANCH  17  18
ENDBRANCH  16  17
ENDBRANCH   7  16
TORSDOF 5
ENDMDL
MODEL 5
REMARK VINA RESULT:      -8.2      2.664      3.668
REMARK  Name = 445462
REMARK  5 active torsions:
REMARK  status: ('A' for Active; 'I' for Inactive)
REMARK    1  A    between atoms: C_7  and  C_16
REMARK    2  A    between atoms: C_16  and  O_17
REMARK    3  A    between atoms: O_17  and  P_18
REMARK    4  A    between atoms: P_18  and  O_20
REMARK    5  A    between atoms: P_18  and  O_22
REMARK                            x       y       z     vdW  Elec       q    Type
REMARK                         _______ _______ _______ _____ _____    ______ ____
ROOT
ATOM      1  O   UNL     1      33.022 -23.143 -18.227  0.00  0.00    -0.206 OA
ATOM      2  N   UNL     1      35.095 -23.257 -16.547  0.00  0.00    -0.391 NA
ATOM      3  N   UNL     1      36.226 -20.926 -19.120  0.00  0.00    -0.259 N 
ATOM      4  N   UNL     1      37.357 -21.707 -17.150  0.00  0.00    -0.246 NA
ATOM      5  N   UNL     1      34.025 -21.657 -19.664  0.00  0.00    -0.300 NA
ATOM      6  N   UNL     1      35.199 -20.143 -21.017  0.00  0.00    -0.320 N 
ATOM      7  C   UNL     1      36.184 -23.252 -15.757  0.00  0.00    +0.143 C 
ATOM      8  C   UNL     1      35.168 -22.471 -17.639  0.00  0.00    +0.255 C 
ATOM      9  C   UNL     1      36.274 -21.698 -17.957  0.00  0.00    +0.173 C 
ATOM     10  C   UNL     1      37.294 -22.491 -16.053  0.00  0.00    +0.184 C 
ATOM     11  C   UNL     1      33.988 -22.451 -18.533  0.00  0.00    +0.240 C 
ATOM     12  C   UNL     1      35.098 -20.950 -19.912  0.00  0.00    +0.249 C 
ATOM     13  H   UNL     1      36.995 -20.367 -19.374  0.00  0.00    +0.157 HD
ATOM     14  H   UNL     1      36.020 -19.623 -21.174  0.00  0.00    +0.146 HD
ATOM     15  H   UNL     1      34.449 -20.083 -21.652  0.00  0.00    +0.146 HD
ENDROOT
BRANCH   7  16
ATOM     16  C   UNL     1      36.155 -24.102 -14.535  0.00  0.00    +0.209 C 
BRANCH  16  17
ATOM     17  O   UNL     1      37.345 -24.880 -14.469  0.00  0.00    -0.266 OA
BRANCH  17  18
ATOM     18  P   UNL     1      37.228 -26.479 -14.670  0.00  0.00    +0.473 P 
ATOM     19  O   UNL     1      36.373 -26.916 -15.823  0.00  0.00    -0.227 OA
BRANCH  18  20
ATOM     20  O   UNL     1      36.757 -27.015 -13.218  0.00  0.00    -0.303 OA
ATOM     21  H   UNL     1      36.783 -26.286 -12.580  0.00  0.00    +0.222 HD
ENDBRANCH  18  20
BRANCH  18  22
ATOM     22  O   UNL     1      38.776 -26.941 -14.751  0.00  0.00    -0.303 OA
ATOM     23  H   UNL     1      39.034 -27.046 -15.680  0.00  0.00    +0.222 HD
ENDBRANCH  18  22
ENDBRANCH  17  18
ENDBRANCH  16  17
ENDBRANCH   7  16
TORSDOF 5
ENDMDL
MODEL 6
REMARK VINA RESULT:      -8.2      6.490      9.153
REMARK  Name = 445462
REMARK  5 active torsions:
REMARK  status: ('A' for Active; 'I' for Inactive)
REMARK    1  A    between atoms: C_7  and  C_16
REMARK    2  A    between atoms: C_16  and  O_17
REMARK    3  A    between atoms: O_17  and  P_18
REMARK    4  A    between atoms: P_18  and  O_20
REMARK    5  A    between atoms: P_18  and  O_22
REMARK                            x       y       z     vdW  Elec       q    Type
REMARK                         _______ _______ _______ _____ _____    ______ ____
ROOT
ATOM      1  O   UNL     1      36.842 -21.660 -19.082  0.00  0.00    -0.206 OA
ATOM      2  N   UNL     1      35.435 -20.093 -20.725  0.00  0.00    -0.391 NA
ATOM      3  N   UNL     1      32.858 -21.930 -18.905  0.00  0.00    -0.259 N 
ATOM      4  N   UNL     1      32.635 -20.262 -20.618  0.00  0.00    -0.246 NA
ATOM      5  N   UNL     1      34.995 -22.639 -18.127  0.00  0.00    -0.300 NA
ATOM      6  N   UNL     1      33.004 -23.529 -17.266  0.00  0.00    -0.320 N 
ATOM      7  C   UNL     1      34.648 -19.341 -21.514  0.00  0.00    +0.143 C 
ATOM      8  C   UNL     1      34.789 -20.927 -19.886  0.00  0.00    +0.255 C 
ATOM      9  C   UNL     1      33.408 -21.026 -19.817  0.00  0.00    +0.173 C 
ATOM     10  C   UNL     1      33.273 -19.424 -21.462  0.00  0.00    +0.184 C 
ATOM     11  C   UNL     1      35.622 -21.771 -19.002  0.00  0.00    +0.240 C 
ATOM     12  C   UNL     1      33.687 -22.689 -18.108  0.00  0.00    +0.249 C 
ATOM     13  H   UNL     1      31.881 -22.026 -18.832  0.00  0.00    +0.157 HD
ATOM     14  H   UNL     1      32.019 -23.543 -17.275  0.00  0.00    +0.146 HD
ATOM     15  H   UNL     1      33.498 -24.118 -16.650  0.00  0.00    +0.146 HD
ENDROOT
BRANCH   7  16
ATOM     16  C   UNL     1      35.313 -18.401 -22.460  0.00  0.00    +0.209 C 
BRANCH  16  17
ATOM     17  O   UNL     1      34.417 -18.079 -23.517  0.00  0.00    -0.266 OA
BRANCH  17  18
ATOM     18  P   UNL     1      34.658 -16.704 -24.333  0.00  0.00    +0.473 P 
ATOM     19  O   UNL     1      34.831 -16.866 -25.815  0.00  0.00    -0.227 OA
BRANCH  18  20
ATOM     20  O   UNL     1      35.901 -16.012 -23.563  0.00  0.00    -0.303 OA
ATOM     21  H   UNL     1      36.732 -16.406 -23.870  0.00  0.00    +0.222 HD
ENDBRANCH  18  20
BRANCH  18  22
ATOM     22  O   UNL     1      33.395 -15.799 -23.886  0.00  0.00    -0.303 OA
ATOM     23  H   UNL     1      32.845 -16.297 -23.260  0.00  0.00    +0.222 HD
ENDBRANCH  18  22
ENDBRANCH  17  18
ENDBRANCH  16  17
ENDBRANCH   7  16
TORSDOF 5
ENDMDL
MODEL 7
REMARK VINA RESULT:      -8.2      1.768      2.682
REMARK  Name = 445462
REMARK  5 active torsions:
REMARK  status: ('A' for Active; 'I' for Inactive)
REMARK    1  A    between atoms: C_7  and  C_16
REMARK    2  A    between atoms: C_16  and  O_17
REMARK    3  A    between atoms: O_17  and  P_18
REMARK    4  A    between atoms: P_18  and  O_20
REMARK    5  A    between atoms: P_18  and  O_22
REMARK                            x       y       z     vdW  Elec       q    Type
REMARK                         _______ _______ _______ _____ _____    ______ ____
ROOT
ATOM      1  O   UNL     1      30.872 -23.899 -13.070  0.00  0.00    -0.206 OA
ATOM      2  N   UNL     1      33.209 -23.962 -14.360  0.00  0.00    -0.391 NA
ATOM      3  N   UNL     1      30.871 -22.802 -16.913  0.00  0.00    -0.259 N 
ATOM      4  N   UNL     1      33.237 -23.194 -17.060  0.00  0.00    -0.246 NA
ATOM      5  N   UNL     1      29.673 -23.161 -14.886  0.00  0.00    -0.300 NA
ATOM      6  N   UNL     1      28.612 -22.410 -16.837  0.00  0.00    -0.320 N 
ATOM      7  C   UNL     1      34.341 -23.962 -15.087  0.00  0.00    +0.143 C 
ATOM      8  C   UNL     1      32.099 -23.570 -15.015  0.00  0.00    +0.255 C 
ATOM      9  C   UNL     1      32.089 -23.187 -16.347  0.00  0.00    +0.173 C 
ATOM     10  C   UNL     1      34.354 -23.585 -16.413  0.00  0.00    +0.184 C 
ATOM     11  C   UNL     1      30.834 -23.557 -14.248  0.00  0.00    +0.240 C 
ATOM     12  C   UNL     1      29.727 -22.811 -16.146  0.00  0.00    +0.249 C 
ATOM     13  H   UNL     1      30.830 -22.526 -17.857  0.00  0.00    +0.157 HD
ATOM     14  H   UNL     1      28.685 -22.152 -17.785  0.00  0.00    +0.146 HD
ATOM     15  H   UNL     1      27.737 -22.377 -16.385  0.00  0.00    +0.146 HD
ENDROOT
BRANCH   7  16
ATOM     16  C   UNL     1      35.598 -24.386 -14.410  0.00  0.00    +0.209 C 
BRANCH  16  17
ATOM     17  O   UNL     1      36.496 -24.927 -15.371  0.00  0.00    -0.266 OA
BRANCH  17  18
ATOM     18  P   UNL     1      37.275 -26.296 -15.006  0.00  0.00    +0.473 P 
ATOM     19  O   UNL     1      37.018 -26.827 -13.627  0.00  0.00    -0.227 OA
BRANCH  18  20
ATOM     20  O   UNL     1      38.821 -25.959 -15.341  0.00  0.00    -0.303 OA
ATOM     21  H   UNL     1      38.999 -26.151 -16.275  0.00  0.00    +0.222 HD
ENDBRANCH  18  20
BRANCH  18  22
ATOM     22  O   UNL     1      36.842 -27.283 -16.212  0.00  0.00    -0.303 OA
ATOM     23  H   UNL     1      37.319 -27.038 -17.019  0.00  0.00    +0.222 HD
ENDBRANCH  18  22
ENDBRANCH  17  18
ENDBRANCH  16  17
ENDBRANCH   7  16
TORSDOF 5
ENDMDL
MODEL 8
REMARK VINA RESULT:      -8.1      5.205      6.628
REMARK  Name = 445462
REMARK  5 active torsions:
REMARK  status: ('A' for Active; 'I' for Inactive)
REMARK    1  A    between atoms: C_7  and  C_16
REMARK    2  A    between atoms: C_16  and  O_17
REMARK    3  A    between atoms: O_17  and  P_18
REMARK    4  A    between atoms: P_18  and  O_20
REMARK    5  A    between atoms: P_18  and  O_22
REMARK                            x       y       z     vdW  Elec       q    Type
REMARK                         _______ _______ _______ _____ _____    ______ ____
ROOT
ATOM      1  O   UNL     1      32.478 -20.832 -20.373  0.00  0.00    -0.206 OA
ATOM      2  N   UNL     1      32.364 -22.327 -18.163  0.00  0.00    -0.391 NA
ATOM      3  N   UNL     1      35.949 -21.862 -18.679  0.00  0.00    -0.259 N 
ATOM      4  N   UNL     1      34.788 -23.063 -16.953  0.00  0.00    -0.246 NA
ATOM      5  N   UNL     1      34.773 -20.730 -20.415  0.00  0.00    -0.300 NA
ATOM      6  N   UNL     1      37.116 -20.733 -20.301  0.00  0.00    -0.320 N 
ATOM      7  C   UNL     1      32.402 -23.078 -17.048  0.00  0.00    +0.143 C 
ATOM      8  C   UNL     1      33.564 -21.957 -18.654  0.00  0.00    +0.255 C 
ATOM      9  C   UNL     1      34.772 -22.309 -18.073  0.00  0.00    +0.173 C 
ATOM     10  C   UNL     1      33.592 -23.439 -16.454  0.00  0.00    +0.184 C 
ATOM     11  C   UNL     1      33.562 -21.130 -19.881  0.00  0.00    +0.240 C 
ATOM     12  C   UNL     1      35.882 -21.095 -19.822  0.00  0.00    +0.249 C 
ATOM     13  H   UNL     1      36.823 -22.096 -18.292  0.00  0.00    +0.157 HD
ATOM     14  H   UNL     1      37.931 -21.023 -19.831  0.00  0.00    +0.146 HD
ATOM     15  H   UNL     1      37.186 -20.182 -21.114  0.00  0.00    +0.146 HD
ENDROOT
BRANCH   7  16
ATOM     16  C   UNL     1      31.103 -23.514 -16.463  0.00  0.00    +0.209 C 
BRANCH  16  17
ATOM     17  O   UNL     1      30.064 -22.662 -16.929  0.00  0.00    -0.266 OA
BRANCH  17  18
ATOM     18  P   UNL     1      28.546 -22.989 -16.480  0.00  0.00    +0.473 P 
ATOM     19  O   UNL     1      27.855 -21.892 -15.724  0.00  0.00    -0.227 OA
BRANCH  18  20
ATOM     20  O   UNL     1      28.672 -24.397 -15.694  0.00  0.00    -0.303 OA
ATOM     21  H   UNL     1      28.109 -24.379 -14.905  0.00  0.00    +0.222 HD
ENDBRANCH  18  20
BRANCH  18  22
ATOM     22  O   UNL     1      27.844 -23.405 -17.877  0.00  0.00    -0.303 OA
ATOM     23  H   UNL     1      27.352 -24.232 -17.758  0.00  0.00    +0.222 HD
ENDBRANCH  18  22
ENDBRANCH  17  18
ENDBRANCH  16  17
ENDBRANCH   7  16
TORSDOF 5
ENDMDL
MODEL 9
REMARK VINA RESULT:      -8.1      9.834     11.740
REMARK  Name = 445462
REMARK  5 active torsions:
REMARK  status: ('A' for Active; 'I' for Inactive)
REMARK    1  A    between atoms: C_7  and  C_16
REMARK    2  A    between atoms: C_16  and  O_17
REMARK    3  A    between atoms: O_17  and  P_18
REMARK    4  A    between atoms: P_18  and  O_20
REMARK    5  A    between atoms: P_18  and  O_22
REMARK                            x       y       z     vdW  Elec       q    Type
REMARK                         _______ _______ _______ _____ _____    ______ ____
ROOT
ATOM      1  O   UNL     1      33.996 -17.327 -25.785  0.00  0.00    -0.206 OA
ATOM      2  N   UNL     1      34.359 -16.443 -23.291  0.00  0.00    -0.391 NA
ATOM      3  N   UNL     1      33.372 -13.437 -25.112  0.00  0.00    -0.259 N 
ATOM      4  N   UNL     1      33.926 -13.715 -22.791  0.00  0.00    -0.246 NA
ATOM      5  N   UNL     1      33.409 -15.273 -26.630  0.00  0.00    -0.300 NA
ATOM      6  N   UNL     1      32.834 -13.106 -27.318  0.00  0.00    -0.320 N 
ATOM      7  C   UNL     1      34.518 -15.911 -22.065  0.00  0.00    +0.143 C 
ATOM      8  C   UNL     1      33.981 -15.579 -24.253  0.00  0.00    +0.255 C 
ATOM      9  C   UNL     1      33.762 -14.229 -24.030  0.00  0.00    +0.173 C 
ATOM     10  C   UNL     1      34.305 -14.572 -21.820  0.00  0.00    +0.184 C 
ATOM     11  C   UNL     1      33.797 -16.128 -25.615  0.00  0.00    +0.240 C 
ATOM     12  C   UNL     1      33.218 -14.007 -26.357  0.00  0.00    +0.249 C 
ATOM     13  H   UNL     1      33.210 -12.474 -24.987  0.00  0.00    +0.157 HD
ATOM     14  H   UNL     1      32.698 -12.160 -27.081  0.00  0.00    +0.146 HD
ATOM     15  H   UNL     1      32.693 -13.406 -28.246  0.00  0.00    +0.146 HD
ENDROOT
BRANCH   7  16
ATOM     16  C   UNL     1      34.934 -16.824 -20.964  0.00  0.00    +0.209 C 
BRANCH  16  17
ATOM     17  O   UNL     1      34.060 -17.945 -20.920  0.00  0.00    -0.266 OA
BRANCH  17  18
ATOM     18  P   UNL     1      34.696 -19.421 -21.091  0.00  0.00    +0.473 P 
ATOM     19  O   UNL     1      33.904 -20.532 -20.467  0.00  0.00    -0.227 OA
BRANCH  18  20
ATOM     20  O   UNL     1      36.208 -19.255 -20.541  0.00  0.00    -0.303 OA
ATOM     21  H   UNL     1      36.422 -18.312 -20.463  0.00  0.00    +0.222 HD
ENDBRANCH  18  20
BRANCH  18  22
ATOM     22  O   UNL     1      34.895 -19.538 -22.692  0.00  0.00    -0.303 OA
ATOM     23  H   UNL     1      34.031 -19.493 -23.130  0.00  0.00    +0.222 HD
ENDBRANCH  18  22
ENDBRANCH  17  18
ENDBRANCH  16  17
ENDBRANCH   7  16
TORSDOF 5
ENDMDL
