MODEL 1
REMARK VINA RESULT:      -8.2      0.000      0.000
REMARK  Name = 667484
REMARK  5 active torsions:
REMARK  status: ('A' for Active; 'I' for Inactive)
REMARK    1  A    between atoms: N_1  and  C_11
REMARK    2  A    between atoms: C_3  and  C_7
REMARK    3  A    between atoms: C_7  and  O_8
REMARK    4  A    between atoms: O_8  and  C_9
REMARK    5  A    between atoms: C_11  and  C_13
REMARK                            x       y       z     vdW  Elec       q    Type
REMARK                         _______ _______ _______ _____ _____    ______ ____
ROOT
ATOM      1  N   UNL     1      35.114 -18.359 -23.095  0.00  0.00    -0.261 N 
ATOM      2  N   UNL     1      34.490 -18.863 -25.124  0.00  0.00    -0.224 NA
ATOM      3  C   UNL     1      34.594 -17.216 -23.569  0.00  0.00    +0.149 C 
ATOM      4  C   UNL     1      35.047 -19.324 -24.027  0.00  0.00    +0.168 C 
ATOM      5  C   UNL     1      34.207 -17.548 -24.846  0.00  0.00    +0.122 C 
ENDROOT
BRANCH   3   7
ATOM      6  O   UNL     1      35.048 -14.900 -23.229  0.00  0.00    -0.243 OA
ATOM      7  C   UNL     1      34.483 -15.967 -22.889  0.00  0.00    +0.357 C 
BRANCH   7   8
ATOM      8  O   UNL     1      33.667 -16.038 -21.780  0.00  0.00    -0.445 OA
BRANCH   8   9
ATOM      9  C   UNL     1      33.905 -15.116 -20.712  0.00  0.00    +0.209 C 
ATOM     10  C   UNL     1      32.756 -14.133 -20.642  0.00  0.00    +0.051 C 
ENDBRANCH   8   9
ENDBRANCH   7   8
ENDBRANCH   3   7
BRANCH   1  11
ATOM     11  C   UNL     1      35.687 -18.546 -21.737  0.00  0.00    +0.101 C 
ATOM     12  C   UNL     1      37.220 -18.732 -21.822  0.00  0.00    +0.027 C 
BRANCH  11  13
ATOM     13  C   UNL     1      34.925 -19.564 -20.957  0.00  0.00    -0.004 C 
ATOM     14  C   UNL     1      33.535 -19.478 -20.869  0.00  0.00    -0.003 C 
ATOM     15  C   UNL     1      35.601 -20.602 -20.316  0.00  0.00    -0.003 C 
ATOM     16  C   UNL     1      32.822 -20.429 -20.140  0.00  0.00    -0.000 C 
ATOM     17  C   UNL     1      34.887 -21.554 -19.586  0.00  0.00    -0.000 C 
ATOM     18  C   UNL     1      33.497 -21.466 -19.498  0.00  0.00    -0.000 C 
ENDBRANCH  11  13
ENDBRANCH   1  11
TORSDOF 5
ENDMDL
MODEL 2
REMARK VINA RESULT:      -8.2      0.912      1.770
REMARK  Name = 667484
REMARK  5 active torsions:
REMARK  status: ('A' for Active; 'I' for Inactive)
REMARK    1  A    between atoms: N_1  and  C_11
REMARK    2  A    between atoms: C_3  and  C_7
REMARK    3  A    between atoms: C_7  and  O_8
REMARK    4  A    between atoms: O_8  and  C_9
REMARK    5  A    between atoms: C_11  and  C_13
REMARK                            x       y       z     vdW  Elec       q    Type
REMARK                         _______ _______ _______ _____ _____    ______ ____
ROOT
ATOM      1  N   UNL     1      35.165 -18.261 -22.976  0.00  0.00    -0.261 N 
ATOM      2  N   UNL     1      34.579 -18.613 -25.049  0.00  0.00    -0.224 NA
ATOM      3  C   UNL     1      34.585 -17.110 -23.352  0.00  0.00    +0.149 C 
ATOM      4  C   UNL     1      35.155 -19.141 -23.992  0.00  0.00    +0.168 C 
ATOM      5  C   UNL     1      34.223 -17.346 -24.656  0.00  0.00    +0.122 C 
ENDROOT
BRANCH   3   7
ATOM      6  O   UNL     1      33.861 -15.894 -21.432  0.00  0.00    -0.243 OA
ATOM      7  C   UNL     1      34.403 -15.935 -22.563  0.00  0.00    +0.357 C 
BRANCH   7   8
ATOM      8  O   UNL     1      34.897 -14.804 -23.175  0.00  0.00    -0.445 OA
BRANCH   8   9
ATOM      9  C   UNL     1      34.055 -13.647 -23.228  0.00  0.00    +0.209 C 
ATOM     10  C   UNL     1      33.003 -13.850 -24.297  0.00  0.00    +0.051 C 
ENDBRANCH   8   9
ENDBRANCH   7   8
ENDBRANCH   3   7
BRANCH   1  11
ATOM     11  C   UNL     1      35.740 -18.539 -21.635  0.00  0.00    +0.101 C 
ATOM     12  C   UNL     1      37.265 -18.776 -21.744  0.00  0.00    +0.027 C 
BRANCH  11  13
ATOM     13  C   UNL     1      34.947 -19.567 -20.902  0.00  0.00    -0.004 C 
ATOM     14  C   UNL     1      35.595 -20.637 -20.283  0.00  0.00    -0.003 C 
ATOM     15  C   UNL     1      33.558 -19.460 -20.834  0.00  0.00    -0.003 C 
ATOM     16  C   UNL     1      34.854 -21.598 -19.596  0.00  0.00    -0.000 C 
ATOM     17  C   UNL     1      32.817 -20.423 -20.147  0.00  0.00    -0.000 C 
ATOM     18  C   UNL     1      33.466 -21.492 -19.529  0.00  0.00    -0.000 C 
ENDBRANCH  11  13
ENDBRANCH   1  11
TORSDOF 5
ENDMDL
MODEL 3
REMARK VINA RESULT:      -7.6      2.009      2.652
REMARK  Name = 667484
REMARK  5 active torsions:
REMARK  status: ('A' for Active; 'I' for Inactive)
REMARK    1  A    between atoms: N_1  and  C_11
REMARK    2  A    between atoms: C_3  and  C_7
REMARK    3  A    between atoms: C_7  and  O_8
REMARK    4  A    between atoms: O_8  and  C_9
REMARK    5  A    between atoms: C_11  and  C_13
REMARK                            x       y       z     vdW  Elec       q    Type
REMARK                         _______ _______ _______ _____ _____    ______ ____
ROOT
ATOM      1  N   UNL     1      34.271 -16.746 -23.196  0.00  0.00    -0.261 N 
ATOM      2  N   UNL     1      34.729 -17.327 -25.249  0.00  0.00    -0.224 NA
ATOM      3  C   UNL     1      33.889 -15.688 -23.927  0.00  0.00    +0.149 C 
ATOM      4  C   UNL     1      34.767 -17.708 -23.991  0.00  0.00    +0.168 C 
ATOM      5  C   UNL     1      34.184 -16.067 -25.215  0.00  0.00    +0.122 C 
ENDROOT
BRANCH   3   7
ATOM      6  O   UNL     1      32.209 -14.362 -22.875  0.00  0.00    -0.243 OA
ATOM      7  C   UNL     1      33.317 -14.469 -23.454  0.00  0.00    +0.357 C 
BRANCH   7   8
ATOM      8  O   UNL     1      34.122 -13.377 -23.696  0.00  0.00    -0.445 OA
BRANCH   8   9
ATOM      9  C   UNL     1      33.490 -12.104 -23.870  0.00  0.00    +0.209 C 
ATOM     10  C   UNL     1      34.097 -11.412 -25.072  0.00  0.00    +0.051 C 
ENDBRANCH   8   9
ENDBRANCH   7   8
ENDBRANCH   3   7
BRANCH   1  11
ATOM     11  C   UNL     1      34.168 -16.855 -21.718  0.00  0.00    +0.101 C 
ATOM     12  C   UNL     1      34.823 -15.627 -21.042  0.00  0.00    +0.027 C 
BRANCH  11  13
ATOM     13  C   UNL     1      34.596 -18.200 -21.236  0.00  0.00    -0.004 C 
ATOM     14  C   UNL     1      33.639 -19.165 -20.923  0.00  0.00    -0.003 C 
ATOM     15  C   UNL     1      35.953 -18.492 -21.099  0.00  0.00    -0.003 C 
ATOM     16  C   UNL     1      34.039 -20.423 -20.473  0.00  0.00    -0.000 C 
ATOM     17  C   UNL     1      36.353 -19.752 -20.649  0.00  0.00    -0.000 C 
ATOM     18  C   UNL     1      35.395 -20.716 -20.335  0.00  0.00    -0.000 C 
ENDBRANCH  11  13
ENDBRANCH   1  11
TORSDOF 5
ENDMDL
MODEL 4
REMARK VINA RESULT:      -7.6      8.413     10.812
REMARK  Name = 667484
REMARK  5 active torsions:
REMARK  status: ('A' for Active; 'I' for Inactive)
REMARK    1  A    between atoms: N_1  and  C_11
REMARK    2  A    between atoms: C_3  and  C_7
REMARK    3  A    between atoms: C_7  and  O_8
REMARK    4  A    between atoms: O_8  and  C_9
REMARK    5  A    between atoms: C_11  and  C_13
REMARK                            x       y       z     vdW  Elec       q    Type
REMARK                         _______ _______ _______ _____ _____    ______ ____
ROOT
ATOM      1  N   UNL     1      36.293 -24.135 -14.210  0.00  0.00    -0.261 N 
ATOM      2  N   UNL     1      36.312 -24.236 -12.030  0.00  0.00    -0.224 NA
ATOM      3  C   UNL     1      36.721 -25.379 -13.945  0.00  0.00    +0.149 C 
ATOM      4  C   UNL     1      36.057 -23.470 -13.067  0.00  0.00    +0.168 C 
ATOM      5  C   UNL     1      36.728 -25.428 -12.571  0.00  0.00    +0.122 C 
ENDROOT
BRANCH   3   7
ATOM      6  O   UNL     1      36.293 -26.943 -15.694  0.00  0.00    -0.243 OA
ATOM      7  C   UNL     1      37.077 -26.391 -14.886  0.00  0.00    +0.357 C 
BRANCH   7   8
ATOM      8  O   UNL     1      38.414 -26.721 -14.828  0.00  0.00    -0.445 OA
BRANCH   8   9
ATOM      9  C   UNL     1      39.372 -25.674 -15.021  0.00  0.00    +0.209 C 
ATOM     10  C   UNL     1      40.573 -25.934 -14.137  0.00  0.00    +0.051 C 
ENDBRANCH   8   9
ENDBRANCH   7   8
ENDBRANCH   3   7
BRANCH   1  11
ATOM     11  C   UNL     1      36.105 -23.559 -15.567  0.00  0.00    +0.101 C 
ATOM     12  C   UNL     1      36.991 -22.304 -15.745  0.00  0.00    +0.027 C 
BRANCH  11  13
ATOM     13  C   UNL     1      34.659 -23.420 -15.906  0.00  0.00    -0.004 C 
ATOM     14  C   UNL     1      33.689 -23.641 -14.928  0.00  0.00    -0.003 C 
ATOM     15  C   UNL     1      34.277 -23.069 -17.201  0.00  0.00    -0.003 C 
ATOM     16  C   UNL     1      32.337 -23.510 -15.245  0.00  0.00    -0.000 C 
ATOM     17  C   UNL     1      32.924 -22.939 -17.518  0.00  0.00    -0.000 C 
ATOM     18  C   UNL     1      31.954 -23.160 -16.540  0.00  0.00    -0.000 C 
ENDBRANCH  11  13
ENDBRANCH   1  11
TORSDOF 5
ENDMDL
MODEL 5
REMARK VINA RESULT:      -7.4      2.432      5.604
REMARK  Name = 667484
REMARK  5 active torsions:
REMARK  status: ('A' for Active; 'I' for Inactive)
REMARK    1  A    between atoms: N_1  and  C_11
REMARK    2  A    between atoms: C_3  and  C_7
REMARK    3  A    between atoms: C_7  and  O_8
REMARK    4  A    between atoms: O_8  and  C_9
REMARK    5  A    between atoms: C_11  and  C_13
REMARK                            x       y       z     vdW  Elec       q    Type
REMARK                         _______ _______ _______ _____ _____    ______ ____
ROOT
ATOM      1  N   UNL     1      35.311 -19.491 -21.210  0.00  0.00    -0.261 N 
ATOM      2  N   UNL     1      37.100 -19.981 -20.061  0.00  0.00    -0.224 NA
ATOM      3  C   UNL     1      34.880 -20.377 -20.298  0.00  0.00    +0.149 C 
ATOM      4  C   UNL     1      36.626 -19.267 -21.058  0.00  0.00    +0.168 C 
ATOM      5  C   UNL     1      36.016 -20.676 -19.584  0.00  0.00    +0.122 C 
ENDROOT
BRANCH   3   7
ATOM      6  O   UNL     1      32.501 -20.231 -20.366  0.00  0.00    -0.243 OA
ATOM      7  C   UNL     1      33.553 -20.873 -20.133  0.00  0.00    +0.357 C 
BRANCH   7   8
ATOM      8  O   UNL     1      33.527 -22.174 -19.677  0.00  0.00    -0.445 OA
BRANCH   8   9
ATOM      9  C   UNL     1      33.001 -22.416 -18.368  0.00  0.00    +0.209 C 
ATOM     10  C   UNL     1      34.089 -23.014 -17.502  0.00  0.00    +0.051 C 
ENDBRANCH   8   9
ENDBRANCH   7   8
ENDBRANCH   3   7
BRANCH   1  11
ATOM     11  C   UNL     1      34.467 -18.842 -22.246  0.00  0.00    +0.101 C 
ATOM     12  C   UNL     1      34.806 -19.406 -23.646  0.00  0.00    +0.027 C 
BRANCH  11  13
ATOM     13  C   UNL     1      34.463 -17.358 -22.098  0.00  0.00    -0.004 C 
ATOM     14  C   UNL     1      34.281 -16.782 -20.840  0.00  0.00    -0.003 C 
ATOM     15  C   UNL     1      34.641 -16.545 -23.218  0.00  0.00    -0.003 C 
ATOM     16  C   UNL     1      34.278 -15.395 -20.702  0.00  0.00    -0.000 C 
ATOM     17  C   UNL     1      34.638 -15.156 -23.078  0.00  0.00    -0.000 C 
ATOM     18  C   UNL     1      34.456 -14.582 -21.820  0.00  0.00    -0.000 C 
ENDBRANCH  11  13
ENDBRANCH   1  11
TORSDOF 5
ENDMDL
MODEL 6
REMARK VINA RESULT:      -7.4      9.411     11.395
REMARK  Name = 667484
REMARK  5 active torsions:
REMARK  status: ('A' for Active; 'I' for Inactive)
REMARK    1  A    between atoms: N_1  and  C_11
REMARK    2  A    between atoms: C_3  and  C_7
REMARK    3  A    between atoms: C_7  and  O_8
REMARK    4  A    between atoms: O_8  and  C_9
REMARK    5  A    between atoms: C_11  and  C_13
REMARK                            x       y       z     vdW  Elec       q    Type
REMARK                         _______ _______ _______ _____ _____    ______ ____
ROOT
ATOM      1  N   UNL     1      35.564 -24.722 -13.637  0.00  0.00    -0.261 N 
ATOM      2  N   UNL     1      36.181 -25.042 -11.568  0.00  0.00    -0.224 NA
ATOM      3  C   UNL     1      36.485 -25.696 -13.717  0.00  0.00    +0.149 C 
ATOM      4  C   UNL     1      35.395 -24.345 -12.359  0.00  0.00    +0.168 C 
ATOM      5  C   UNL     1      36.863 -25.885 -12.410  0.00  0.00    +0.122 C 
ENDROOT
BRANCH   3   7
ATOM      6  O   UNL     1      36.215 -26.773 -15.828  0.00  0.00    -0.243 OA
ATOM      7  C   UNL     1      36.944 -26.358 -14.895  0.00  0.00    +0.357 C 
BRANCH   7   8
ATOM      8  O   UNL     1      38.314 -26.505 -14.920  0.00  0.00    -0.445 OA
BRANCH   8   9
ATOM      9  C   UNL     1      39.116 -25.319 -14.944  0.00  0.00    +0.209 C 
ATOM     10  C   UNL     1      40.460 -25.619 -14.316  0.00  0.00    +0.051 C 
ENDBRANCH   8   9
ENDBRANCH   7   8
ENDBRANCH   3   7
BRANCH   1  11
ATOM     11  C   UNL     1      34.828 -24.135 -14.786  0.00  0.00    +0.101 C 
ATOM     12  C   UNL     1      35.533 -22.848 -15.274  0.00  0.00    +0.027 C 
BRANCH  11  13
ATOM     13  C   UNL     1      33.366 -24.042 -14.510  0.00  0.00    -0.004 C 
ATOM     14  C   UNL     1      32.653 -22.907 -14.900  0.00  0.00    -0.003 C 
ATOM     15  C   UNL     1      32.710 -25.088 -13.861  0.00  0.00    -0.003 C 
ATOM     16  C   UNL     1      31.286 -22.819 -14.642  0.00  0.00    -0.000 C 
ATOM     17  C   UNL     1      31.341 -25.000 -13.603  0.00  0.00    -0.000 C 
ATOM     18  C   UNL     1      30.630 -23.865 -13.993  0.00  0.00    -0.000 C 
ENDBRANCH  11  13
ENDBRANCH   1  11
TORSDOF 5
ENDMDL
MODEL 7
REMARK VINA RESULT:      -7.4      5.923      8.972
REMARK  Name = 667484
REMARK  5 active torsions:
REMARK  status: ('A' for Active; 'I' for Inactive)
REMARK    1  A    between atoms: N_1  and  C_11
REMARK    2  A    between atoms: C_3  and  C_7
REMARK    3  A    between atoms: C_7  and  O_8
REMARK    4  A    between atoms: O_8  and  C_9
REMARK    5  A    between atoms: C_11  and  C_13
REMARK                            x       y       z     vdW  Elec       q    Type
REMARK                         _______ _______ _______ _____ _____    ______ ____
ROOT
ATOM      1  N   UNL     1      33.246  -9.171 -23.509  0.00  0.00    -0.261 N 
ATOM      2  N   UNL     1      35.122  -8.076 -23.717  0.00  0.00    -0.224 NA
ATOM      3  C   UNL     1      34.064 -10.039 -24.125  0.00  0.00    +0.149 C 
ATOM      4  C   UNL     1      33.886  -8.014 -23.275  0.00  0.00    +0.168 C 
ATOM      5  C   UNL     1      35.239  -9.336 -24.250  0.00  0.00    +0.122 C 
ENDROOT
BRANCH   3   7
ATOM      6  O   UNL     1      33.484 -11.720 -25.714  0.00  0.00    -0.243 OA
ATOM      7  C   UNL     1      33.759 -11.370 -24.542  0.00  0.00    +0.357 C 
BRANCH   7   8
ATOM      8  O   UNL     1      33.798 -12.273 -23.502  0.00  0.00    -0.445 OA
BRANCH   8   9
ATOM      9  C   UNL     1      33.754 -13.667 -23.822  0.00  0.00    +0.209 C 
ATOM     10  C   UNL     1      32.969 -14.395 -22.752  0.00  0.00    +0.051 C 
ENDBRANCH   8   9
ENDBRANCH   7   8
ENDBRANCH   3   7
BRANCH   1  11
ATOM     11  C   UNL     1      31.834  -9.437 -23.133  0.00  0.00    +0.101 C 
ATOM     12  C   UNL     1      30.944  -8.226 -23.501  0.00  0.00    +0.027 C 
BRANCH  11  13
ATOM     13  C   UNL     1      31.726  -9.956 -21.740  0.00  0.00    -0.004 C 
ATOM     14  C   UNL     1      31.973  -9.110 -20.659  0.00  0.00    -0.003 C 
ATOM     15  C   UNL     1      31.379 -11.289 -21.517  0.00  0.00    -0.003 C 
ATOM     16  C   UNL     1      31.872  -9.595 -19.355  0.00  0.00    -0.000 C 
ATOM     17  C   UNL     1      31.278 -11.774 -20.212  0.00  0.00    -0.000 C 
ATOM     18  C   UNL     1      31.525 -10.927 -19.132  0.00  0.00    -0.000 C 
ENDBRANCH  11  13
ENDBRANCH   1  11
TORSDOF 5
ENDMDL
MODEL 8
REMARK VINA RESULT:      -7.2      7.899     10.677
REMARK  Name = 667484
REMARK  5 active torsions:
REMARK  status: ('A' for Active; 'I' for Inactive)
REMARK    1  A    between atoms: N_1  and  C_11
REMARK    2  A    between atoms: C_3  and  C_7
REMARK    3  A    between atoms: C_7  and  O_8
REMARK    4  A    between atoms: O_8  and  C_9
REMARK    5  A    between atoms: C_11  and  C_13
REMARK                            x       y       z     vdW  Elec       q    Type
REMARK                         _______ _______ _______ _____ _____    ______ ____
ROOT
ATOM      1  N   UNL     1      36.344 -25.140 -14.813  0.00  0.00    -0.261 N 
ATOM      2  N   UNL     1      36.767 -27.147 -15.556  0.00  0.00    -0.224 NA
ATOM      3  C   UNL     1      37.354 -25.567 -14.040  0.00  0.00    +0.149 C 
ATOM      4  C   UNL     1      36.006 -26.086 -15.704  0.00  0.00    +0.168 C 
ATOM      5  C   UNL     1      37.609 -26.830 -14.518  0.00  0.00    +0.122 C 
ENDROOT
BRANCH   3   7
ATOM      6  O   UNL     1      39.025 -24.155 -13.090  0.00  0.00    -0.243 OA
ATOM      7  C   UNL     1      37.992 -24.858 -12.978  0.00  0.00    +0.357 C 
BRANCH   7   8
ATOM      8  O   UNL     1      37.347 -25.018 -11.771  0.00  0.00    -0.445 OA
BRANCH   8   9
ATOM      9  C   UNL     1      36.703 -23.874 -11.198  0.00  0.00    +0.209 C 
ATOM     10  C   UNL     1      35.477 -24.328 -10.435  0.00  0.00    +0.051 C 
ENDBRANCH   8   9
ENDBRANCH   7   8
ENDBRANCH   3   7
BRANCH   1  11
ATOM     11  C   UNL     1      35.681 -23.814 -14.710  0.00  0.00    +0.101 C 
ATOM     12  C   UNL     1      34.323 -23.948 -13.982  0.00  0.00    +0.027 C 
BRANCH  11  13
ATOM     13  C   UNL     1      35.679 -23.100 -16.019  0.00  0.00    -0.004 C 
ATOM     14  C   UNL     1      36.825 -22.432 -16.451  0.00  0.00    -0.003 C 
ATOM     15  C   UNL     1      34.531 -23.099 -16.811  0.00  0.00    -0.003 C 
ATOM     16  C   UNL     1      36.824 -21.765 -17.675  0.00  0.00    -0.000 C 
ATOM     17  C   UNL     1      34.530 -22.431 -18.037  0.00  0.00    -0.000 C 
ATOM     18  C   UNL     1      35.676 -21.763 -18.468  0.00  0.00    -0.000 C 
ENDBRANCH  11  13
ENDBRANCH   1  11
TORSDOF 5
ENDMDL
MODEL 9
REMARK VINA RESULT:      -7.1      8.148     10.217
REMARK  Name = 667484
REMARK  5 active torsions:
REMARK  status: ('A' for Active; 'I' for Inactive)
REMARK    1  A    between atoms: N_1  and  C_11
REMARK    2  A    between atoms: C_3  and  C_7
REMARK    3  A    between atoms: C_7  and  O_8
REMARK    4  A    between atoms: O_8  and  C_9
REMARK    5  A    between atoms: C_11  and  C_13
REMARK                            x       y       z     vdW  Elec       q    Type
REMARK                         _______ _______ _______ _____ _____    ______ ____
ROOT
ATOM      1  N   UNL     1      32.769  -7.575 -23.138  0.00  0.00    -0.261 N 
ATOM      2  N   UNL     1      31.053  -6.477 -23.920  0.00  0.00    -0.224 NA
ATOM      3  C   UNL     1      31.942  -7.469 -22.086  0.00  0.00    +0.149 C 
ATOM      4  C   UNL     1      32.229  -6.983 -24.216  0.00  0.00    +0.168 C 
ATOM      5  C   UNL     1      30.869  -6.776 -22.593  0.00  0.00    +0.122 C 
ENDROOT
BRANCH   3   7
ATOM      6  O   UNL     1      32.754  -7.357 -19.846  0.00  0.00    -0.243 OA
ATOM      7  C   UNL     1      32.154  -7.965 -20.765  0.00  0.00    +0.357 C 
BRANCH   7   8
ATOM      8  O   UNL     1      31.618  -9.221 -20.579  0.00  0.00    -0.445 OA
BRANCH   8   9
ATOM      9  C   UNL     1      31.935  -9.912 -19.365  0.00  0.00    +0.209 C 
ATOM     10  C   UNL     1      31.619 -11.383 -19.538  0.00  0.00    +0.051 C 
ENDBRANCH   8   9
ENDBRANCH   7   8
ENDBRANCH   3   7
BRANCH   1  11
ATOM     11  C   UNL     1      34.093  -8.248 -23.129  0.00  0.00    +0.101 C 
ATOM     12  C   UNL     1      35.202  -7.255 -23.551  0.00  0.00    +0.027 C 
BRANCH  11  13
ATOM     13  C   UNL     1      34.048  -9.555 -23.844  0.00  0.00    -0.004 C 
ATOM     14  C   UNL     1      34.848  -9.763 -24.968  0.00  0.00    -0.003 C 
ATOM     15  C   UNL     1      33.207 -10.571 -23.390  0.00  0.00    -0.003 C 
ATOM     16  C   UNL     1      34.807 -10.986 -25.637  0.00  0.00    -0.000 C 
ATOM     17  C   UNL     1      33.166 -11.795 -24.060  0.00  0.00    -0.000 C 
ATOM     18  C   UNL     1      33.966 -12.001 -25.184  0.00  0.00    -0.000 C 
ENDBRANCH  11  13
ENDBRANCH   1  11
TORSDOF 5
ENDMDL
