MODEL 1
REMARK VINA RESULT:      -6.2      0.000      0.000
REMARK  Name = 73284
REMARK  4 active torsions:
REMARK  status: ('A' for Active; 'I' for Inactive)
REMARK    1  A    between atoms: N_2  and  C_4
REMARK    2  A    between atoms: N_2  and  O_7
REMARK    3  A    between atoms: C_3  and  C_10
REMARK    4  A    between atoms: C_10  and  O_11
REMARK                            x       y       z     vdW  Elec       q    Type
REMARK                         _______ _______ _______ _____ _____    ______ ____
ROOT
ATOM      1  O   UNL     1      27.617 -23.433 -18.033  0.00  0.00    -0.261 OA
ATOM      2  N   UNL     1      28.404 -22.610 -16.010  0.00  0.00    -0.165 N 
ATOM      3  C   UNL     1      27.586 -22.659 -17.086  0.00  0.00    +0.347 C 
ENDROOT
BRANCH   2   4
ATOM      4  C   UNL     1      29.521 -23.527 -15.793  0.00  0.00    +0.104 C 
ATOM      5  C   UNL     1      29.042 -24.784 -15.071  0.00  0.00    +0.024 C 
ATOM      6  C   UNL     1      30.612 -22.819 -14.994  0.00  0.00    +0.024 C 
ENDBRANCH   2   4
BRANCH   2   7
ATOM      7  O   UNL     1      28.277 -21.679 -14.980  0.00  0.00    -0.291 OA
ATOM      8  H   UNL     1      28.718 -20.853 -15.235  0.00  0.00    +0.242 HD
ENDBRANCH   2   7
BRANCH   3  10
ATOM      9  O   UNL     1      26.475 -20.698 -17.849  0.00  0.00    -0.240 OA
ATOM     10  C   UNL     1      26.488 -21.641 -17.085  0.00  0.00    +0.395 C 
BRANCH  10  11
ATOM     11  O   UNL     1      25.606 -21.945 -16.123  0.00  0.00    -0.474 OA
ATOM     12  H   UNL     1      25.665 -21.531 -15.284  0.00  0.00    +0.296 HD
ENDBRANCH  10  11
ENDBRANCH   3  10
TORSDOF 4
ENDMDL
MODEL 2
REMARK VINA RESULT:      -5.9     10.194     11.935
REMARK  Name = 73284
REMARK  4 active torsions:
REMARK  status: ('A' for Active; 'I' for Inactive)
REMARK    1  A    between atoms: N_2  and  C_4
REMARK    2  A    between atoms: N_2  and  O_7
REMARK    3  A    between atoms: C_3  and  C_10
REMARK    4  A    between atoms: C_10  and  O_11
REMARK                            x       y       z     vdW  Elec       q    Type
REMARK                         _______ _______ _______ _____ _____    ______ ____
ROOT
ATOM      1  O   UNL     1      39.696 -24.482 -13.235  0.00  0.00    -0.261 OA
ATOM      2  N   UNL     1      38.117 -25.578 -14.536  0.00  0.00    -0.165 N 
ATOM      3  C   UNL     1      39.362 -25.286 -14.093  0.00  0.00    +0.347 C 
ENDROOT
BRANCH   2   4
ATOM      4  C   UNL     1      36.902 -24.943 -14.029  0.00  0.00    +0.104 C 
ATOM      5  C   UNL     1      36.594 -25.439 -12.619  0.00  0.00    +0.024 C 
ATOM      6  C   UNL     1      35.743 -25.234 -14.978  0.00  0.00    +0.024 C 
ENDBRANCH   2   4
BRANCH   2   7
ATOM      7  O   UNL     1      37.846 -26.520 -15.527  0.00  0.00    -0.291 OA
ATOM      8  H   UNL     1      36.912 -26.778 -15.481  0.00  0.00    +0.242 HD
ENDBRANCH   2   7
BRANCH   3  10
ATOM      9  O   UNL     1      41.231 -26.758 -14.089  0.00  0.00    -0.240 OA
ATOM     10  C   UNL     1      40.456 -26.083 -14.734  0.00  0.00    +0.395 C 
BRANCH  10  11
ATOM     11  O   UNL     1      40.422 -25.891 -16.059  0.00  0.00    -0.474 OA
ATOM     12  H   UNL     1      40.719 -26.566 -16.638  0.00  0.00    +0.296 HD
ENDBRANCH  10  11
ENDBRANCH   3  10
TORSDOF 4
ENDMDL
MODEL 3
REMARK VINA RESULT:      -5.8      9.723     11.369
REMARK  Name = 73284
REMARK  4 active torsions:
REMARK  status: ('A' for Active; 'I' for Inactive)
REMARK    1  A    between atoms: N_2  and  C_4
REMARK    2  A    between atoms: N_2  and  O_7
REMARK    3  A    between atoms: C_3  and  C_10
REMARK    4  A    between atoms: C_10  and  O_11
REMARK                            x       y       z     vdW  Elec       q    Type
REMARK                         _______ _______ _______ _____ _____    ______ ____
ROOT
ATOM      1  O   UNL     1      38.509 -27.183 -14.637  0.00  0.00    -0.261 OA
ATOM      2  N   UNL     1      37.811 -24.986 -14.364  0.00  0.00    -0.165 N 
ATOM      3  C   UNL     1      38.700 -25.976 -14.608  0.00  0.00    +0.347 C 
ENDROOT
BRANCH   2   4
ATOM      4  C   UNL     1      36.395 -25.214 -14.079  0.00  0.00    +0.104 C 
ATOM      5  C   UNL     1      35.525 -24.481 -15.096  0.00  0.00    +0.024 C 
ATOM      6  C   UNL     1      36.083 -24.755 -12.657  0.00  0.00    +0.024 C 
ENDBRANCH   2   4
BRANCH   2   7
ATOM      7  O   UNL     1      38.138 -23.631 -14.356  0.00  0.00    -0.291 OA
ATOM      8  H   UNL     1      37.738 -23.197 -15.126  0.00  0.00    +0.242 HD
ENDBRANCH   2   7
BRANCH   3  10
ATOM      9  O   UNL     1      40.725 -24.819 -14.134  0.00  0.00    -0.240 OA
ATOM     10  C   UNL     1      40.091 -25.507 -14.907  0.00  0.00    +0.395 C 
BRANCH  10  11
ATOM     11  O   UNL     1      40.452 -25.946 -16.120  0.00  0.00    -0.474 OA
ATOM     12  H   UNL     1      39.846 -25.903 -16.834  0.00  0.00    +0.296 HD
ENDBRANCH  10  11
ENDBRANCH   3  10
TORSDOF 4
ENDMDL
MODEL 4
REMARK VINA RESULT:      -5.6      2.013      2.818
REMARK  Name = 73284
REMARK  4 active torsions:
REMARK  status: ('A' for Active; 'I' for Inactive)
REMARK    1  A    between atoms: N_2  and  C_4
REMARK    2  A    between atoms: N_2  and  O_7
REMARK    3  A    between atoms: C_3  and  C_10
REMARK    4  A    between atoms: C_10  and  O_11
REMARK                            x       y       z     vdW  Elec       q    Type
REMARK                         _______ _______ _______ _____ _____    ______ ____
ROOT
ATOM      1  O   UNL     1      28.854 -24.493 -15.151  0.00  0.00    -0.261 OA
ATOM      2  N   UNL     1      30.493 -23.261 -16.239  0.00  0.00    -0.165 N 
ATOM      3  C   UNL     1      29.239 -23.714 -16.011  0.00  0.00    +0.347 C 
ENDROOT
BRANCH   2   4
ATOM      4  C   UNL     1      31.657 -23.652 -15.446  0.00  0.00    +0.104 C 
ATOM      5  C   UNL     1      31.683 -22.882 -14.128  0.00  0.00    +0.024 C 
ATOM      6  C   UNL     1      32.928 -23.403 -16.251  0.00  0.00    +0.024 C 
ENDBRANCH   2   4
BRANCH   2   7
ATOM      7  O   UNL     1      30.824 -22.367 -17.256  0.00  0.00    -0.291 OA
ATOM      8  H   UNL     1      30.024 -21.909 -17.556  0.00  0.00    +0.242 HD
ENDBRANCH   2   7
BRANCH   3  10
ATOM      9  O   UNL     1      27.588 -23.845 -17.720  0.00  0.00    -0.240 OA
ATOM     10  C   UNL     1      28.196 -23.155 -16.929  0.00  0.00    +0.395 C 
BRANCH  10  11
ATOM     11  O   UNL     1      28.098 -21.833 -16.731  0.00  0.00    -0.474 OA
ATOM     12  H   UNL     1      28.866 -21.296 -16.765  0.00  0.00    +0.296 HD
ENDBRANCH  10  11
ENDBRANCH   3  10
TORSDOF 4
ENDMDL
MODEL 5
REMARK VINA RESULT:      -5.5      9.398     10.208
REMARK  Name = 73284
REMARK  4 active torsions:
REMARK  status: ('A' for Active; 'I' for Inactive)
REMARK    1  A    between atoms: N_2  and  C_4
REMARK    2  A    between atoms: N_2  and  O_7
REMARK    3  A    between atoms: C_3  and  C_10
REMARK    4  A    between atoms: C_10  and  O_11
REMARK                            x       y       z     vdW  Elec       q    Type
REMARK                         _______ _______ _______ _____ _____    ______ ____
ROOT
ATOM      1  O   UNL     1      36.760 -24.468 -15.488  0.00  0.00    -0.261 OA
ATOM      2  N   UNL     1      36.702 -25.387 -13.357  0.00  0.00    -0.165 N 
ATOM      3  C   UNL     1      36.854 -25.400 -14.701  0.00  0.00    +0.347 C 
ENDROOT
BRANCH   2   4
ATOM      4  C   UNL     1      36.383 -24.188 -12.585  0.00  0.00    +0.104 C 
ATOM      5  C   UNL     1      37.664 -23.503 -12.115  0.00  0.00    +0.024 C 
ATOM      6  C   UNL     1      35.498 -24.567 -11.401  0.00  0.00    +0.024 C 
ENDBRANCH   2   4
BRANCH   2   7
ATOM      7  O   UNL     1      36.833 -26.515 -12.549  0.00  0.00    -0.291 OA
ATOM      8  H   UNL     1      36.002 -26.670 -12.074  0.00  0.00    +0.242 HD
ENDBRANCH   2   7
BRANCH   3  10
ATOM      9  O   UNL     1      36.525 -27.288 -16.111  0.00  0.00    -0.240 OA
ATOM     10  C   UNL     1      37.212 -26.735 -15.277  0.00  0.00    +0.395 C 
BRANCH  10  11
ATOM     11  O   UNL     1      38.343 -27.171 -14.709  0.00  0.00    -0.474 OA
ATOM     12  H   UNL     1      38.837 -26.603 -14.150  0.00  0.00    +0.296 HD
ENDBRANCH  10  11
ENDBRANCH   3  10
TORSDOF 4
ENDMDL
MODEL 6
REMARK VINA RESULT:      -5.5      1.885      2.398
REMARK  Name = 73284
REMARK  4 active torsions:
REMARK  status: ('A' for Active; 'I' for Inactive)
REMARK    1  A    between atoms: N_2  and  C_4
REMARK    2  A    between atoms: N_2  and  O_7
REMARK    3  A    between atoms: C_3  and  C_10
REMARK    4  A    between atoms: C_10  and  O_11
REMARK                            x       y       z     vdW  Elec       q    Type
REMARK                         _______ _______ _______ _____ _____    ______ ____
ROOT
ATOM      1  O   UNL     1      30.339 -22.235 -17.152  0.00  0.00    -0.261 OA
ATOM      2  N   UNL     1      29.793 -23.816 -15.542  0.00  0.00    -0.165 N 
ATOM      3  C   UNL     1      29.552 -22.964 -16.566  0.00  0.00    +0.347 C 
ENDROOT
BRANCH   2   4
ATOM      4  C   UNL     1      31.109 -24.012 -14.938  0.00  0.00    +0.104 C 
ATOM      5  C   UNL     1      31.079 -25.196 -13.976  0.00  0.00    +0.024 C 
ATOM      6  C   UNL     1      31.535 -22.734 -14.221  0.00  0.00    +0.024 C 
ENDBRANCH   2   4
BRANCH   2   7
ATOM      7  O   UNL     1      28.814 -24.607 -14.943  0.00  0.00    -0.291 OA
ATOM      8  H   UNL     1      28.061 -24.701 -15.546  0.00  0.00    +0.242 HD
ENDBRANCH   2   7
BRANCH   3  10
ATOM      9  O   UNL     1      27.610 -23.917 -17.557  0.00  0.00    -0.240 OA
ATOM     10  C   UNL     1      28.133 -22.949 -17.046  0.00  0.00    +0.395 C 
BRANCH  10  11
ATOM     11  O   UNL     1      27.610 -21.734 -16.835  0.00  0.00    -0.474 OA
ATOM     12  H   UNL     1      27.055 -21.585 -16.094  0.00  0.00    +0.296 HD
ENDBRANCH  10  11
ENDBRANCH   3  10
TORSDOF 4
ENDMDL
MODEL 7
REMARK VINA RESULT:      -5.5      9.538     10.399
REMARK  Name = 73284
REMARK  4 active torsions:
REMARK  status: ('A' for Active; 'I' for Inactive)
REMARK    1  A    between atoms: N_2  and  C_4
REMARK    2  A    between atoms: N_2  and  O_7
REMARK    3  A    between atoms: C_3  and  C_10
REMARK    4  A    between atoms: C_10  and  O_11
REMARK                            x       y       z     vdW  Elec       q    Type
REMARK                         _______ _______ _______ _____ _____    ______ ____
ROOT
ATOM      1  O   UNL     1      36.986 -23.029 -12.566  0.00  0.00    -0.261 OA
ATOM      2  N   UNL     1      37.164 -25.322 -12.876  0.00  0.00    -0.165 N 
ATOM      3  C   UNL     1      36.753 -24.190 -12.260  0.00  0.00    +0.347 C 
ENDROOT
BRANCH   2   4
ATOM      4  C   UNL     1      38.000 -25.341 -14.075  0.00  0.00    +0.104 C 
ATOM      5  C   UNL     1      37.533 -26.437 -15.029  0.00  0.00    +0.024 C 
ATOM      6  C   UNL     1      39.458 -25.547 -13.674  0.00  0.00    +0.024 C 
ENDBRANCH   2   4
BRANCH   2   7
ATOM      7  O   UNL     1      36.839 -26.606 -12.440  0.00  0.00    -0.291 OA
ATOM      8  H   UNL     1      37.038 -27.245 -13.141  0.00  0.00    +0.242 HD
ENDBRANCH   2   7
BRANCH   3  10
ATOM      9  O   UNL     1      36.221 -24.104  -9.943  0.00  0.00    -0.240 OA
ATOM     10  C   UNL     1      35.878 -24.410 -11.066  0.00  0.00    +0.395 C 
BRANCH  10  11
ATOM     11  O   UNL     1      34.737 -24.993 -11.457  0.00  0.00    -0.474 OA
ATOM     12  H   UNL     1      34.092 -24.496 -11.923  0.00  0.00    +0.296 HD
ENDBRANCH  10  11
ENDBRANCH   3  10
TORSDOF 4
ENDMDL
MODEL 8
REMARK VINA RESULT:      -5.5      8.516     10.083
REMARK  Name = 73284
REMARK  4 active torsions:
REMARK  status: ('A' for Active; 'I' for Inactive)
REMARK    1  A    between atoms: N_2  and  C_4
REMARK    2  A    between atoms: N_2  and  O_7
REMARK    3  A    between atoms: C_3  and  C_10
REMARK    4  A    between atoms: C_10  and  O_11
REMARK                            x       y       z     vdW  Elec       q    Type
REMARK                         _______ _______ _______ _____ _____    ______ ____
ROOT
ATOM      1  O   UNL     1      35.842 -26.253 -15.731  0.00  0.00    -0.261 OA
ATOM      2  N   UNL     1      37.050 -24.409 -15.004  0.00  0.00    -0.165 N 
ATOM      3  C   UNL     1      36.703 -25.716 -15.048  0.00  0.00    +0.347 C 
ENDROOT
BRANCH   2   4
ATOM      4  C   UNL     1      36.416 -23.369 -15.813  0.00  0.00    +0.104 C 
ATOM      5  C   UNL     1      37.418 -22.264 -16.135  0.00  0.00    +0.024 C 
ATOM      6  C   UNL     1      35.206 -22.813 -15.068  0.00  0.00    +0.024 C 
ENDBRANCH   2   4
BRANCH   2   7
ATOM      7  O   UNL     1      38.054 -23.899 -14.182  0.00  0.00    -0.291 OA
ATOM      8  H   UNL     1      38.398 -23.077 -14.565  0.00  0.00    +0.242 HD
ENDBRANCH   2   7
BRANCH   3  10
ATOM      9  O   UNL     1      38.554 -27.110 -14.510  0.00  0.00    -0.240 OA
ATOM     10  C   UNL     1      37.509 -26.607 -14.155  0.00  0.00    +0.395 C 
BRANCH  10  11
ATOM     11  O   UNL     1      36.875 -26.746 -12.983  0.00  0.00    -0.474 OA
ATOM     12  H   UNL     1      36.172 -26.167 -12.758  0.00  0.00    +0.296 HD
ENDBRANCH  10  11
ENDBRANCH   3  10
TORSDOF 4
ENDMDL
MODEL 9
REMARK VINA RESULT:      -5.4      1.003      2.373
REMARK  Name = 73284
REMARK  4 active torsions:
REMARK  status: ('A' for Active; 'I' for Inactive)
REMARK    1  A    between atoms: N_2  and  C_4
REMARK    2  A    between atoms: N_2  and  O_7
REMARK    3  A    between atoms: C_3  and  C_10
REMARK    4  A    between atoms: C_10  and  O_11
REMARK                            x       y       z     vdW  Elec       q    Type
REMARK                         _______ _______ _______ _____ _____    ______ ____
ROOT
ATOM      1  O   UNL     1      28.296 -21.561 -14.795  0.00  0.00    -0.261 OA
ATOM      2  N   UNL     1      28.536 -23.424 -16.159  0.00  0.00    -0.165 N 
ATOM      3  C   UNL     1      27.931 -22.308 -15.693  0.00  0.00    +0.347 C 
ENDROOT
BRANCH   2   4
ATOM      4  C   UNL     1      29.797 -23.948 -15.635  0.00  0.00    +0.104 C 
ATOM      5  C   UNL     1      30.978 -23.286 -16.339  0.00  0.00    +0.024 C 
ATOM      6  C   UNL     1      29.831 -25.463 -15.813  0.00  0.00    +0.024 C 
ENDBRANCH   2   4
BRANCH   2   7
ATOM      7  O   UNL     1      28.030 -24.208 -17.195  0.00  0.00    -0.291 OA
ATOM      8  H   UNL     1      28.288 -23.823 -18.047  0.00  0.00    +0.242 HD
ENDBRANCH   2   7
BRANCH   3  10
ATOM      9  O   UNL     1      25.571 -22.079 -15.890  0.00  0.00    -0.240 OA
ATOM     10  C   UNL     1      26.663 -21.942 -16.401  0.00  0.00    +0.395 C 
BRANCH  10  11
ATOM     11  O   UNL     1      26.958 -21.491 -17.627  0.00  0.00    -0.474 OA
ATOM     12  H   UNL     1      27.646 -21.893 -18.121  0.00  0.00    +0.296 HD
ENDBRANCH  10  11
ENDBRANCH   3  10
TORSDOF 4
ENDMDL
