MODEL 1
REMARK VINA RESULT:      -4.8      0.000      0.000
REMARK  Name = 17523
REMARK  1 active torsions:
REMARK  status: ('A' for Active; 'I' for Inactive)
REMARK    1  A    between atoms: C_4  and  S_7
REMARK                            x       y       z     vdW  Elec       q    Type
REMARK                         _______ _______ _______ _____ _____    ______ ____
ROOT
ATOM      1  N   UNL     1      32.677 -21.031 -19.662  0.00  0.00    -0.238 NA
ATOM      2  C   UNL     1      35.071 -21.362 -19.591  0.00  0.00    +0.025 C 
ATOM      3  C   UNL     1      35.247 -20.342 -20.520  0.00  0.00    +0.004 C 
ATOM      4  C   UNL     1      33.778 -21.664 -19.197  0.00  0.00    +0.103 C 
ATOM      5  C   UNL     1      34.139 -19.667 -21.020  0.00  0.00    +0.021 C 
ATOM      6  C   UNL     1      32.887 -20.046 -20.563  0.00  0.00    +0.099 C 
ENDROOT
BRANCH   4   7
ATOM      7  S   UNL     1      33.505 -22.967 -18.009  0.00  0.00    -0.123 S 
ATOM      8  H   UNL     1      33.558 -22.452 -16.751  0.00  0.00    +0.109 HD
ENDBRANCH   4   7
TORSDOF 1
ENDMDL
MODEL 2
REMARK VINA RESULT:      -4.8      2.786      3.538
REMARK  Name = 17523
REMARK  1 active torsions:
REMARK  status: ('A' for Active; 'I' for Inactive)
REMARK    1  A    between atoms: C_4  and  S_7
REMARK                            x       y       z     vdW  Elec       q    Type
REMARK                         _______ _______ _______ _____ _____    ______ ____
ROOT
ATOM      1  N   UNL     1      35.779 -20.365 -20.187  0.00  0.00    -0.238 NA
ATOM      2  C   UNL     1      33.617 -19.603 -20.954  0.00  0.00    +0.025 C 
ATOM      3  C   UNL     1      32.995 -20.614 -20.229  0.00  0.00    +0.004 C 
ATOM      4  C   UNL     1      34.998 -19.521 -20.899  0.00  0.00    +0.103 C 
ATOM      5  C   UNL     1      33.765 -21.500 -19.483  0.00  0.00    +0.021 C 
ATOM      6  C   UNL     1      35.140 -21.334 -19.495  0.00  0.00    +0.099 C 
ENDROOT
BRANCH   4   7
ATOM      7  S   UNL     1      35.838 -18.241 -21.816  0.00  0.00    -0.123 S 
ATOM      8  H   UNL     1      35.785 -18.525 -23.145  0.00  0.00    +0.109 HD
ENDBRANCH   4   7
TORSDOF 1
ENDMDL
MODEL 3
REMARK VINA RESULT:      -4.6      2.611      3.036
REMARK  Name = 17523
REMARK  1 active torsions:
REMARK  status: ('A' for Active; 'I' for Inactive)
REMARK    1  A    between atoms: C_4  and  S_7
REMARK                            x       y       z     vdW  Elec       q    Type
REMARK                         _______ _______ _______ _____ _____    ______ ____
ROOT
ATOM      1  N   UNL     1      33.687 -19.531 -20.965  0.00  0.00    -0.238 NA
ATOM      2  C   UNL     1      35.686 -20.654 -20.201  0.00  0.00    +0.025 C 
ATOM      3  C   UNL     1      34.912 -21.569 -19.496  0.00  0.00    +0.004 C 
ATOM      4  C   UNL     1      35.031 -19.664 -20.914  0.00  0.00    +0.103 C 
ATOM      5  C   UNL     1      33.525 -21.466 -19.526  0.00  0.00    +0.021 C 
ATOM      6  C   UNL     1      32.967 -20.438 -20.269  0.00  0.00    +0.099 C 
ENDROOT
BRANCH   4   7
ATOM      7  S   UNL     1      35.986 -18.467 -21.831  0.00  0.00    -0.123 S 
ATOM      8  H   UNL     1      35.298 -17.296 -21.902  0.00  0.00    +0.109 HD
ENDBRANCH   4   7
TORSDOF 1
ENDMDL
MODEL 4
REMARK VINA RESULT:      -4.5      1.169      1.874
REMARK  Name = 17523
REMARK  1 active torsions:
REMARK  status: ('A' for Active; 'I' for Inactive)
REMARK    1  A    between atoms: C_4  and  S_7
REMARK                            x       y       z     vdW  Elec       q    Type
REMARK                         _______ _______ _______ _____ _____    ______ ____
ROOT
ATOM      1  N   UNL     1      35.335 -21.231 -19.751  0.00  0.00    -0.238 NA
ATOM      2  C   UNL     1      32.996 -20.678 -20.010  0.00  0.00    +0.025 C 
ATOM      3  C   UNL     1      33.328 -19.651 -20.887  0.00  0.00    +0.004 C 
ATOM      4  C   UNL     1      34.027 -21.433 -19.475  0.00  0.00    +0.103 C 
ATOM      5  C   UNL     1      34.664 -19.414 -21.196  0.00  0.00    +0.021 C 
ATOM      6  C   UNL     1      35.620 -20.225 -20.607  0.00  0.00    +0.099 C 
ENDROOT
BRANCH   4   7
ATOM      7  S   UNL     1      33.647 -22.759 -18.344  0.00  0.00    -0.123 S 
ATOM      8  H   UNL     1      33.826 -23.954 -18.968  0.00  0.00    +0.109 HD
ENDBRANCH   4   7
TORSDOF 1
ENDMDL
MODEL 5
REMARK VINA RESULT:      -4.4      4.555      5.279
REMARK  Name = 17523
REMARK  1 active torsions:
REMARK  status: ('A' for Active; 'I' for Inactive)
REMARK    1  A    between atoms: C_4  and  S_7
REMARK                            x       y       z     vdW  Elec       q    Type
REMARK                         _______ _______ _______ _____ _____    ______ ____
ROOT
ATOM      1  N   UNL     1      35.278 -16.814 -22.796  0.00  0.00    -0.238 NA
ATOM      2  C   UNL     1      34.924 -18.983 -23.803  0.00  0.00    +0.025 C 
ATOM      3  C   UNL     1      34.471 -18.376 -24.970  0.00  0.00    +0.004 C 
ATOM      4  C   UNL     1      35.313 -18.165 -22.756  0.00  0.00    +0.103 C 
ATOM      5  C   UNL     1      34.421 -16.988 -25.050  0.00  0.00    +0.021 C 
ATOM      6  C   UNL     1      34.832 -16.259 -23.945  0.00  0.00    +0.099 C 
ENDROOT
BRANCH   4   7
ATOM      7  S   UNL     1      35.899 -18.902 -21.240  0.00  0.00    -0.123 S 
ATOM      8  H   UNL     1      35.281 -20.098 -21.048  0.00  0.00    +0.109 HD
ENDBRANCH   4   7
TORSDOF 1
ENDMDL
MODEL 6
REMARK VINA RESULT:      -4.4      6.792      7.501
REMARK  Name = 17523
REMARK  1 active torsions:
REMARK  status: ('A' for Active; 'I' for Inactive)
REMARK    1  A    between atoms: C_4  and  S_7
REMARK                            x       y       z     vdW  Elec       q    Type
REMARK                         _______ _______ _______ _____ _____    ______ ____
ROOT
ATOM      1  N   UNL     1      34.000 -16.837 -25.856  0.00  0.00    -0.238 NA
ATOM      2  C   UNL     1      34.101 -15.342 -23.960  0.00  0.00    +0.025 C 
ATOM      3  C   UNL     1      34.739 -16.323 -23.210  0.00  0.00    +0.004 C 
ATOM      4  C   UNL     1      33.756 -15.645 -25.267  0.00  0.00    +0.103 C 
ATOM      5  C   UNL     1      35.008 -17.562 -23.783  0.00  0.00    +0.021 C 
ATOM      6  C   UNL     1      34.622 -17.767 -25.098  0.00  0.00    +0.099 C 
ENDROOT
BRANCH   4   7
ATOM      7  S   UNL     1      32.934 -14.416 -26.265  0.00  0.00    -0.123 S 
ATOM      8  H   UNL     1      33.051 -13.197 -25.672  0.00  0.00    +0.109 HD
ENDBRANCH   4   7
TORSDOF 1
ENDMDL
MODEL 7
REMARK VINA RESULT:      -4.3      4.652      5.422
REMARK  Name = 17523
REMARK  1 active torsions:
REMARK  status: ('A' for Active; 'I' for Inactive)
REMARK    1  A    between atoms: C_4  and  S_7
REMARK                            x       y       z     vdW  Elec       q    Type
REMARK                         _______ _______ _______ _____ _____    ______ ____
ROOT
ATOM      1  N   UNL     1      34.968 -16.406 -20.447  0.00  0.00    -0.238 NA
ATOM      2  C   UNL     1      35.084 -16.682 -22.846  0.00  0.00    +0.025 C 
ATOM      3  C   UNL     1      34.612 -15.386 -23.025  0.00  0.00    +0.004 C 
ATOM      4  C   UNL     1      35.243 -17.140 -21.549  0.00  0.00    +0.103 C 
ATOM      5  C   UNL     1      34.319 -14.600 -21.916  0.00  0.00    +0.021 C 
ATOM      6  C   UNL     1      34.512 -15.152 -20.660  0.00  0.00    +0.099 C 
ENDROOT
BRANCH   4   7
ATOM      7  S   UNL     1      35.844 -18.797 -21.272  0.00  0.00    -0.123 S 
ATOM      8  H   UNL     1      36.916 -19.032 -22.076  0.00  0.00    +0.109 HD
ENDBRANCH   4   7
TORSDOF 1
ENDMDL
MODEL 8
REMARK VINA RESULT:      -4.3      4.737      5.316
REMARK  Name = 17523
REMARK  1 active torsions:
REMARK  status: ('A' for Active; 'I' for Inactive)
REMARK    1  A    between atoms: C_4  and  S_7
REMARK                            x       y       z     vdW  Elec       q    Type
REMARK                         _______ _______ _______ _____ _____    ______ ____
ROOT
ATOM      1  N   UNL     1      35.015 -16.747 -22.513  0.00  0.00    -0.238 NA
ATOM      2  C   UNL     1      34.719 -18.961 -23.437  0.00  0.00    +0.025 C 
ATOM      3  C   UNL     1      34.857 -19.517 -22.169  0.00  0.00    +0.004 C 
ATOM      4  C   UNL     1      34.805 -17.584 -23.554  0.00  0.00    +0.103 C 
ATOM      5  C   UNL     1      35.073 -18.688 -21.074  0.00  0.00    +0.021 C 
ATOM      6  C   UNL     1      35.143 -17.322 -21.297  0.00  0.00    +0.099 C 
ENDROOT
BRANCH   4   7
ATOM      7  S   UNL     1      34.636 -16.829 -25.162  0.00  0.00    -0.123 S 
ATOM      8  H   UNL     1      33.987 -15.640 -25.040  0.00  0.00    +0.109 HD
ENDBRANCH   4   7
TORSDOF 1
ENDMDL
MODEL 9
REMARK VINA RESULT:      -4.3      4.470      5.023
REMARK  Name = 17523
REMARK  1 active torsions:
REMARK  status: ('A' for Active; 'I' for Inactive)
REMARK    1  A    between atoms: C_4  and  S_7
REMARK                            x       y       z     vdW  Elec       q    Type
REMARK                         _______ _______ _______ _____ _____    ______ ____
ROOT
ATOM      1  N   UNL     1      34.864 -16.697 -23.212  0.00  0.00    -0.238 NA
ATOM      2  C   UNL     1      34.532 -18.268 -21.406  0.00  0.00    +0.025 C 
ATOM      3  C   UNL     1      34.655 -19.330 -22.296  0.00  0.00    +0.004 C 
ATOM      4  C   UNL     1      34.644 -16.983 -21.909  0.00  0.00    +0.103 C 
ATOM      5  C   UNL     1      34.883 -19.075 -23.644  0.00  0.00    +0.021 C 
ATOM      6  C   UNL     1      34.979 -17.753 -24.048  0.00  0.00    +0.099 C 
ENDROOT
BRANCH   4   7
ATOM      7  S   UNL     1      34.490 -15.592 -20.803  0.00  0.00    -0.123 S 
ATOM      8  H   UNL     1      35.398 -15.708 -19.797  0.00  0.00    +0.109 HD
ENDBRANCH   4   7
TORSDOF 1
ENDMDL
