MODEL 1
REMARK VINA RESULT:      -6.1      0.000      0.000
REMARK  Name = 3690
REMARK  5 active torsions:
REMARK  status: ('A' for Active; 'I' for Inactive)
REMARK    1  A    between atoms: P_1  and  N_8
REMARK    2  A    between atoms: N_4  and  C_13
REMARK    3  A    between atoms: N_8  and  C_10
REMARK    4  A    between atoms: C_10  and  C_12
REMARK    5  A    between atoms: C_13  and  C_15
REMARK                            x       y       z     vdW  Elec       q    Type
REMARK                         _______ _______ _______ _____ _____    ______ ____
ROOT
ATOM      1  P   UNL     1      35.494 -18.234 -22.338  0.00  0.00    +0.348 P 
ATOM      2  O   UNL     1      35.611 -18.526 -23.939  0.00  0.00    -0.292 OA
ATOM      3  O   UNL     1      36.796 -18.593 -21.662  0.00  0.00    -0.254 OA
ATOM      4  N   UNL     1      35.077 -16.621 -22.238  0.00  0.00    -0.197 NA
ATOM      5  C   UNL     1      34.084 -16.117 -23.195  0.00  0.00    +0.084 C 
ATOM      6  C   UNL     1      34.463 -16.511 -24.626  0.00  0.00    +0.050 C 
ATOM      7  C   UNL     1      34.596 -18.020 -24.798  0.00  0.00    +0.153 C 
ENDROOT
BRANCH   1   8
ATOM      8  N   UNL     1      34.190 -19.124 -21.817  0.00  0.00    -0.221 NA
ATOM      9  H   UNL     1      33.880 -19.696 -22.601  0.00  0.00    +0.133 HD
BRANCH   8  10
ATOM     10  C   UNL     1      34.380 -20.011 -20.681  0.00  0.00    +0.095 C 
BRANCH  10  12
ATOM     11 CL   UNL     1      33.272 -21.858 -19.032  0.00  0.00    -0.112 Cl
ATOM     12  C   UNL     1      33.037 -20.535 -20.200  0.00  0.00    +0.112 C 
ENDBRANCH  10  12
ENDBRANCH   8  10
ENDBRANCH   1   8
BRANCH   4  13
ATOM     13  C   UNL     1      34.828 -16.058 -20.911  0.00  0.00    +0.099 C 
BRANCH  13  15
ATOM     14 CL   UNL     1      32.546 -14.823 -20.117  0.00  0.00    -0.112 Cl
ATOM     15  C   UNL     1      34.068 -14.746 -21.037  0.00  0.00    +0.113 C 
ENDBRANCH  13  15
ENDBRANCH   4  13
TORSDOF 5
ENDMDL
MODEL 2
REMARK VINA RESULT:      -6.0      4.377      6.579
REMARK  Name = 3690
REMARK  5 active torsions:
REMARK  status: ('A' for Active; 'I' for Inactive)
REMARK    1  A    between atoms: P_1  and  N_8
REMARK    2  A    between atoms: N_4  and  C_13
REMARK    3  A    between atoms: N_8  and  C_10
REMARK    4  A    between atoms: C_10  and  C_12
REMARK    5  A    between atoms: C_13  and  C_15
REMARK                            x       y       z     vdW  Elec       q    Type
REMARK                         _______ _______ _______ _____ _____    ______ ____
ROOT
ATOM      1  P   UNL     1      33.104 -13.520 -23.635  0.00  0.00    +0.348 P 
ATOM      2  O   UNL     1      32.516 -14.090 -25.046  0.00  0.00    -0.292 OA
ATOM      3  O   UNL     1      31.968 -12.999 -22.787  0.00  0.00    -0.254 OA
ATOM      4  N   UNL     1      33.932 -14.811 -22.976  0.00  0.00    -0.197 NA
ATOM      5  C   UNL     1      34.746 -15.628 -23.884  0.00  0.00    +0.084 C 
ATOM      6  C   UNL     1      33.930 -16.050 -25.111  0.00  0.00    +0.050 C 
ATOM      7  C   UNL     1      33.376 -14.857 -25.879  0.00  0.00    +0.153 C 
ENDROOT
BRANCH   1   8
ATOM      8  N   UNL     1      34.224 -12.364 -24.052  0.00  0.00    -0.221 NA
ATOM      9  H   UNL     1      34.712 -12.701 -24.881  0.00  0.00    +0.133 HD
BRANCH   8  10
ATOM     10  C   UNL     1      33.744 -11.024 -24.346  0.00  0.00    +0.095 C 
BRANCH  10  12
ATOM     11 CL   UNL     1      35.668 -10.386 -26.150  0.00  0.00    -0.112 Cl
ATOM     12  C   UNL     1      34.921 -10.086 -24.561  0.00  0.00    +0.112 C 
ENDBRANCH  10  12
ENDBRANCH   8  10
ENDBRANCH   1   8
BRANCH   4  13
ATOM     13  C   UNL     1      34.643 -14.598 -21.716  0.00  0.00    +0.099 C 
BRANCH  13  15
ATOM     14 CL   UNL     1      32.471 -15.856 -20.685  0.00  0.00    -0.112 Cl
ATOM     15  C   UNL     1      34.240 -15.661 -20.705  0.00  0.00    +0.113 C 
ENDBRANCH  13  15
ENDBRANCH   4  13
TORSDOF 5
ENDMDL
MODEL 3
REMARK VINA RESULT:      -5.8      8.424     10.757
REMARK  Name = 3690
REMARK  5 active torsions:
REMARK  status: ('A' for Active; 'I' for Inactive)
REMARK    1  A    between atoms: P_1  and  N_8
REMARK    2  A    between atoms: N_4  and  C_13
REMARK    3  A    between atoms: N_8  and  C_10
REMARK    4  A    between atoms: C_10  and  C_12
REMARK    5  A    between atoms: C_13  and  C_15
REMARK                            x       y       z     vdW  Elec       q    Type
REMARK                         _______ _______ _______ _____ _____    ______ ____
ROOT
ATOM      1  P   UNL     1      35.936 -24.252 -15.022  0.00  0.00    +0.348 P 
ATOM      2  O   UNL     1      35.791 -25.796 -15.527  0.00  0.00    -0.292 OA
ATOM      3  O   UNL     1      34.579 -23.588 -15.027  0.00  0.00    -0.254 OA
ATOM      4  N   UNL     1      36.650 -24.370 -13.518  0.00  0.00    -0.197 NA
ATOM      5  C   UNL     1      37.736 -25.345 -13.359  0.00  0.00    +0.084 C 
ATOM      6  C   UNL     1      37.311 -26.719 -13.889  0.00  0.00    +0.050 C 
ATOM      7  C   UNL     1      36.897 -26.674 -15.355  0.00  0.00    +0.153 C 
ENDROOT
BRANCH   1   8
ATOM      8  N   UNL     1      37.039 -23.548 -16.048  0.00  0.00    -0.221 NA
ATOM      9  H   UNL     1      36.925 -23.985 -16.962  0.00  0.00    +0.133 HD
BRANCH   8  10
ATOM     10  C   UNL     1      36.967 -22.109 -16.245  0.00  0.00    +0.095 C 
BRANCH  10  12
ATOM     11 CL   UNL     1      35.152 -22.210 -18.259  0.00  0.00    -0.112 Cl
ATOM     12  C   UNL     1      36.798 -21.794 -17.722  0.00  0.00    +0.112 C 
ENDBRANCH  10  12
ENDBRANCH   8  10
ENDBRANCH   1   8
BRANCH   4  13
ATOM     13  C   UNL     1      36.981 -23.130 -12.817  0.00  0.00    +0.099 C 
BRANCH  13  15
ATOM     14 CL   UNL     1      35.594 -24.330 -10.817  0.00  0.00    -0.112 Cl
ATOM     15  C   UNL     1      37.010 -23.374 -11.315  0.00  0.00    +0.113 C 
ENDBRANCH  13  15
ENDBRANCH   4  13
TORSDOF 5
ENDMDL
MODEL 4
REMARK VINA RESULT:      -5.7      8.457     10.627
REMARK  Name = 3690
REMARK  5 active torsions:
REMARK  status: ('A' for Active; 'I' for Inactive)
REMARK    1  A    between atoms: P_1  and  N_8
REMARK    2  A    between atoms: N_4  and  C_13
REMARK    3  A    between atoms: N_8  and  C_10
REMARK    4  A    between atoms: C_10  and  C_12
REMARK    5  A    between atoms: C_13  and  C_15
REMARK                            x       y       z     vdW  Elec       q    Type
REMARK                         _______ _______ _______ _____ _____    ______ ____
ROOT
ATOM      1  P   UNL     1      37.561 -24.179 -14.083  0.00  0.00    +0.348 P 
ATOM      2  O   UNL     1      38.182 -23.872 -12.606  0.00  0.00    -0.292 OA
ATOM      3  O   UNL     1      38.429 -25.188 -14.798  0.00  0.00    -0.254 OA
ATOM      4  N   UNL     1      36.001 -24.690 -13.782  0.00  0.00    -0.197 NA
ATOM      5  C   UNL     1      35.240 -23.971 -12.753  0.00  0.00    +0.084 C 
ATOM      6  C   UNL     1      36.054 -23.857 -11.459  0.00  0.00    +0.050 C 
ATOM      7  C   UNL     1      37.387 -23.151 -11.672  0.00  0.00    +0.153 C 
ENDROOT
BRANCH   1   8
ATOM      8  N   UNL     1      37.470 -22.704 -14.844  0.00  0.00    -0.221 NA
ATOM      9  H   UNL     1      38.168 -22.097 -14.416  0.00  0.00    +0.133 HD
BRANCH   8  10
ATOM     10  C   UNL     1      37.683 -22.663 -16.282  0.00  0.00    +0.095 C 
BRANCH  10  12
ATOM     11 CL   UNL     1      36.537 -21.664 -18.528  0.00  0.00    -0.112 Cl
ATOM     12  C   UNL     1      37.092 -21.387 -16.859  0.00  0.00    +0.112 C 
ENDBRANCH  10  12
ENDBRANCH   8  10
ENDBRANCH   1   8
BRANCH   4  13
ATOM     13  C   UNL     1      35.143 -24.984 -14.929  0.00  0.00    +0.099 C 
BRANCH  13  15
ATOM     14 CL   UNL     1      33.948 -23.277 -16.667  0.00  0.00    -0.112 Cl
ATOM     15  C   UNL     1      34.027 -23.954 -15.022  0.00  0.00    +0.113 C 
ENDBRANCH  13  15
ENDBRANCH   4  13
TORSDOF 5
ENDMDL
MODEL 5
REMARK VINA RESULT:      -5.7      8.667      9.938
REMARK  Name = 3690
REMARK  5 active torsions:
REMARK  status: ('A' for Active; 'I' for Inactive)
REMARK    1  A    between atoms: P_1  and  N_8
REMARK    2  A    between atoms: N_4  and  C_13
REMARK    3  A    between atoms: N_8  and  C_10
REMARK    4  A    between atoms: C_10  and  C_12
REMARK    5  A    between atoms: C_13  and  C_15
REMARK                            x       y       z     vdW  Elec       q    Type
REMARK                         _______ _______ _______ _____ _____    ______ ____
ROOT
ATOM      1  P   UNL     1      31.729  -9.524 -22.408  0.00  0.00    +0.348 P 
ATOM      2  O   UNL     1      30.778 -10.821 -22.131  0.00  0.00    -0.292 OA
ATOM      3  O   UNL     1      31.104  -8.655 -23.473  0.00  0.00    -0.254 OA
ATOM      4  N   UNL     1      31.885  -8.794 -20.915  0.00  0.00    -0.197 NA
ATOM      5  C   UNL     1      32.080  -9.668 -19.751  0.00  0.00    +0.084 C 
ATOM      6  C   UNL     1      31.026 -10.780 -19.726  0.00  0.00    +0.050 C 
ATOM      7  C   UNL     1      31.047 -11.629 -20.992  0.00  0.00    +0.153 C 
ENDROOT
BRANCH   1   8
ATOM      8  N   UNL     1      33.216 -10.141 -22.823  0.00  0.00    -0.221 NA
ATOM      9  H   UNL     1      33.220 -11.126 -22.560  0.00  0.00    +0.133 HD
BRANCH   8  10
ATOM     10  C   UNL     1      33.622 -10.064 -24.217  0.00  0.00    +0.095 C 
BRANCH  10  12
ATOM     11 CL   UNL     1      34.886  -7.740 -23.617  0.00  0.00    -0.112 Cl
ATOM     12  C   UNL     1      34.970  -9.370 -24.328  0.00  0.00    +0.112 C 
ENDBRANCH  10  12
ENDBRANCH   8  10
ENDBRANCH   1   8
BRANCH   4  13
ATOM     13  C   UNL     1      32.749  -7.619 -20.812  0.00  0.00    +0.099 C 
BRANCH  13  15
ATOM     14 CL   UNL     1      31.990  -5.579 -22.432  0.00  0.00    -0.112 Cl
ATOM     15  C   UNL     1      31.908  -6.351 -20.830  0.00  0.00    +0.113 C 
ENDBRANCH  13  15
ENDBRANCH   4  13
TORSDOF 5
ENDMDL
MODEL 6
REMARK VINA RESULT:      -5.6      3.395      4.671
REMARK  Name = 3690
REMARK  5 active torsions:
REMARK  status: ('A' for Active; 'I' for Inactive)
REMARK    1  A    between atoms: P_1  and  N_8
REMARK    2  A    between atoms: N_4  and  C_13
REMARK    3  A    between atoms: N_8  and  C_10
REMARK    4  A    between atoms: C_10  and  C_12
REMARK    5  A    between atoms: C_13  and  C_15
REMARK                            x       y       z     vdW  Elec       q    Type
REMARK                         _______ _______ _______ _____ _____    ______ ____
ROOT
ATOM      1  P   UNL     1      34.625 -16.001 -21.302  0.00  0.00    +0.348 P 
ATOM      2  O   UNL     1      35.280 -17.319 -20.598  0.00  0.00    -0.292 OA
ATOM      3  O   UNL     1      35.208 -14.753 -20.682  0.00  0.00    -0.254 OA
ATOM      4  N   UNL     1      34.950 -16.191 -22.928  0.00  0.00    -0.197 NA
ATOM      5  C   UNL     1      34.794 -17.536 -23.497  0.00  0.00    +0.084 C 
ATOM      6  C   UNL     1      35.540 -18.572 -22.649  0.00  0.00    +0.050 C 
ATOM      7  C   UNL     1      35.065 -18.589 -21.201  0.00  0.00    +0.153 C 
ENDROOT
BRANCH   1   8
ATOM      8  N   UNL     1      32.982 -16.156 -21.096  0.00  0.00    -0.221 NA
ATOM      9  H   UNL     1      32.822 -17.010 -20.564  0.00  0.00    +0.133 HD
BRANCH   8  10
ATOM     10  C   UNL     1      32.276 -15.083 -20.415  0.00  0.00    +0.095 C 
BRANCH  10  12
ATOM     11 CL   UNL     1      31.916 -12.396 -20.318  0.00  0.00    -0.112 Cl
ATOM     12  C   UNL     1      32.229 -13.848 -21.300  0.00  0.00    +0.112 C 
ENDBRANCH  10  12
ENDBRANCH   8  10
ENDBRANCH   1   8
BRANCH   4  13
ATOM     13  C   UNL     1      34.425 -15.189 -23.854  0.00  0.00    +0.099 C 
BRANCH  13  15
ATOM     14 CL   UNL     1      32.861 -14.740 -26.025  0.00  0.00    -0.112 Cl
ATOM     15  C   UNL     1      33.885 -15.867 -25.104  0.00  0.00    +0.113 C 
ENDBRANCH  13  15
ENDBRANCH   4  13
TORSDOF 5
ENDMDL
MODEL 7
REMARK VINA RESULT:      -5.6      8.769     10.172
REMARK  Name = 3690
REMARK  5 active torsions:
REMARK  status: ('A' for Active; 'I' for Inactive)
REMARK    1  A    between atoms: P_1  and  N_8
REMARK    2  A    between atoms: N_4  and  C_13
REMARK    3  A    between atoms: N_8  and  C_10
REMARK    4  A    between atoms: C_10  and  C_12
REMARK    5  A    between atoms: C_13  and  C_15
REMARK                            x       y       z     vdW  Elec       q    Type
REMARK                         _______ _______ _______ _____ _____    ______ ____
ROOT
ATOM      1  P   UNL     1      35.985 -23.789 -13.671  0.00  0.00    +0.348 P 
ATOM      2  O   UNL     1      37.331 -23.061 -14.238  0.00  0.00    -0.292 OA
ATOM      3  O   UNL     1      35.814 -23.466 -12.205  0.00  0.00    -0.254 OA
ATOM      4  N   UNL     1      34.760 -23.228 -14.656  0.00  0.00    -0.197 NA
ATOM      5  C   UNL     1      35.041 -23.125 -16.094  0.00  0.00    +0.084 C 
ATOM      6  C   UNL     1      36.350 -22.365 -16.336  0.00  0.00    +0.050 C 
ATOM      7  C   UNL     1      37.539 -23.021 -15.645  0.00  0.00    +0.153 C 
ENDROOT
BRANCH   1   8
ATOM      8  N   UNL     1      36.185 -25.408 -13.989  0.00  0.00    -0.221 NA
ATOM      9  H   UNL     1      36.321 -25.505 -14.995  0.00  0.00    +0.133 HD
BRANCH   8  10
ATOM     10  C   UNL     1      37.282 -26.102 -13.335  0.00  0.00    +0.095 C 
BRANCH  10  12
ATOM     11 CL   UNL     1      39.865 -25.461 -13.864  0.00  0.00    -0.112 Cl
ATOM     12  C   UNL     1      38.401 -26.361 -14.331  0.00  0.00    +0.112 C 
ENDBRANCH  10  12
ENDBRANCH   8  10
ENDBRANCH   1   8
BRANCH   4  13
ATOM     13  C   UNL     1      33.413 -23.755 -14.444  0.00  0.00    +0.099 C 
BRANCH  13  15
ATOM     14 CL   UNL     1      30.980 -22.743 -15.088  0.00  0.00    -0.112 Cl
ATOM     15  C   UNL     1      32.530 -23.424 -15.638  0.00  0.00    +0.113 C 
ENDBRANCH  13  15
ENDBRANCH   4  13
TORSDOF 5
ENDMDL
MODEL 8
REMARK VINA RESULT:      -5.6      8.722     11.252
REMARK  Name = 3690
REMARK  5 active torsions:
REMARK  status: ('A' for Active; 'I' for Inactive)
REMARK    1  A    between atoms: P_1  and  N_8
REMARK    2  A    between atoms: N_4  and  C_13
REMARK    3  A    between atoms: N_8  and  C_10
REMARK    4  A    between atoms: C_10  and  C_12
REMARK    5  A    between atoms: C_13  and  C_15
REMARK                            x       y       z     vdW  Elec       q    Type
REMARK                         _______ _______ _______ _____ _____    ______ ____
ROOT
ATOM      1  P   UNL     1      36.784 -23.682 -14.567  0.00  0.00    +0.348 P 
ATOM      2  O   UNL     1      35.998 -23.072 -13.275  0.00  0.00    -0.292 OA
ATOM      3  O   UNL     1      37.631 -22.604 -15.201  0.00  0.00    -0.254 OA
ATOM      4  N   UNL     1      37.644 -24.978 -13.960  0.00  0.00    -0.197 NA
ATOM      5  C   UNL     1      36.969 -25.840 -12.982  0.00  0.00    +0.084 C 
ATOM      6  C   UNL     1      36.347 -25.002 -11.860  0.00  0.00    +0.050 C 
ATOM      7  C   UNL     1      35.352 -23.974 -12.385  0.00  0.00    +0.153 C 
ENDROOT
BRANCH   1   8
ATOM      8  N   UNL     1      35.600 -24.288 -15.565  0.00  0.00    -0.221 NA
ATOM      9  H   UNL     1      35.059 -24.959 -15.020  0.00  0.00    +0.133 HD
BRANCH   8  10
ATOM     10  C   UNL     1      34.660 -23.350 -16.155  0.00  0.00    +0.095 C 
BRANCH  10  12
ATOM     11 CL   UNL     1      32.007 -23.135 -16.679  0.00  0.00    -0.112 Cl
ATOM     12  C   UNL     1      33.294 -23.505 -15.506  0.00  0.00    +0.112 C 
ENDBRANCH  10  12
ENDBRANCH   8  10
ENDBRANCH   1   8
BRANCH   4  13
ATOM     13  C   UNL     1      38.415 -25.790 -14.900  0.00  0.00    +0.099 C 
BRANCH  13  15
ATOM     14 CL   UNL     1      40.925 -26.482 -14.137  0.00  0.00    -0.112 Cl
ATOM     15  C   UNL     1      39.858 -25.308 -14.944  0.00  0.00    +0.113 C 
ENDBRANCH  13  15
ENDBRANCH   4  13
TORSDOF 5
ENDMDL
MODEL 9
REMARK VINA RESULT:      -5.5      5.476      6.366
REMARK  Name = 3690
REMARK  5 active torsions:
REMARK  status: ('A' for Active; 'I' for Inactive)
REMARK    1  A    between atoms: P_1  and  N_8
REMARK    2  A    between atoms: N_4  and  C_13
REMARK    3  A    between atoms: N_8  and  C_10
REMARK    4  A    between atoms: C_10  and  C_12
REMARK    5  A    between atoms: C_13  and  C_15
REMARK                            x       y       z     vdW  Elec       q    Type
REMARK                         _______ _______ _______ _____ _____    ______ ____
ROOT
ATOM      1  P   UNL     1      33.665 -13.676 -23.871  0.00  0.00    +0.348 P 
ATOM      2  O   UNL     1      33.519 -14.830 -25.015  0.00  0.00    -0.292 OA
ATOM      3  O   UNL     1      34.716 -14.087 -22.868  0.00  0.00    -0.254 OA
ATOM      4  N   UNL     1      34.020 -12.285 -24.723  0.00  0.00    -0.197 NA
ATOM      5  C   UNL     1      33.288 -12.052 -25.974  0.00  0.00    +0.084 C 
ATOM      6  C   UNL     1      33.343 -13.292 -26.873  0.00  0.00    +0.050 C 
ATOM      7  C   UNL     1      32.775 -14.530 -26.190  0.00  0.00    +0.153 C 
ENDROOT
BRANCH   1   8
ATOM      8  N   UNL     1      32.144 -13.494 -23.224  0.00  0.00    -0.221 NA
ATOM      9  H   UNL     1      31.611 -14.329 -23.463  0.00  0.00    +0.133 HD
BRANCH   8  10
ATOM     10  C   UNL     1      32.032 -13.305 -21.787  0.00  0.00    +0.095 C 
BRANCH  10  12
ATOM     11 CL   UNL     1      31.636 -11.573 -19.737  0.00  0.00    -0.112 Cl
ATOM     12  C   UNL     1      31.537 -11.900 -21.484  0.00  0.00    +0.112 C 
ENDBRANCH  10  12
ENDBRANCH   8  10
ENDBRANCH   1   8
BRANCH   4  13
ATOM     13  C   UNL     1      34.148 -11.036 -23.975  0.00  0.00    +0.099 C 
BRANCH  13  15
ATOM     14 CL   UNL     1      34.883  -8.425 -24.022  0.00  0.00    -0.112 Cl
ATOM     15  C   UNL     1      34.984 -10.039 -24.765  0.00  0.00    +0.113 C 
ENDBRANCH  13  15
ENDBRANCH   4  13
TORSDOF 5
ENDMDL
