MODEL 1
REMARK VINA RESULT:      -5.4      0.000      0.000
REMARK  Name = 186
REMARK  4 active torsions:
REMARK  status: ('A' for Active; 'I' for Inactive)
REMARK    1  A    between atoms: P_1  and  O_3
REMARK    2  A    between atoms: P_1  and  O_5
REMARK    3  A    between atoms: P_1  and  O_7
REMARK    4  A    between atoms: O_7  and  C_9
REMARK                            x       y       z     vdW  Elec       q    Type
REMARK                         _______ _______ _______ _____ _____    ______ ____
ROOT
ATOM      1  P   UNL     1      40.112 -25.922 -14.639  0.00  0.00    +0.530 P 
ATOM      2  O   UNL     1      39.924 -24.589 -13.974  0.00  0.00    -0.216 OA
ENDROOT
BRANCH   1   3
ATOM      3  O   UNL     1      41.328 -26.809 -14.048  0.00  0.00    -0.293 OA
ATOM      4  H   UNL     1      41.147 -27.027 -13.121  0.00  0.00    +0.223 HD
ENDBRANCH   1   3
BRANCH   1   5
ATOM      5  O   UNL     1      40.420 -25.849 -16.225  0.00  0.00    -0.293 OA
ATOM      6  H   UNL     1      41.243 -25.358 -16.372  0.00  0.00    +0.223 HD
ENDBRANCH   1   5
BRANCH   1   7
ATOM      7  O   UNL     1      38.825 -26.896 -14.531  0.00  0.00    -0.371 OA
BRANCH   7   9
ATOM      8  O   UNL     1      36.808 -26.329 -15.469  0.00  0.00    -0.250 OA
ATOM      9  C   UNL     1      37.528 -26.495 -14.494  0.00  0.00    +0.324 C 
ATOM     10  C   UNL     1      37.096 -26.285 -13.076  0.00  0.00    +0.122 C 
ENDBRANCH   7   9
ENDBRANCH   1   7
TORSDOF 4
ENDMDL
MODEL 2
REMARK VINA RESULT:      -5.3      0.936      2.012
REMARK  Name = 186
REMARK  4 active torsions:
REMARK  status: ('A' for Active; 'I' for Inactive)
REMARK    1  A    between atoms: P_1  and  O_3
REMARK    2  A    between atoms: P_1  and  O_5
REMARK    3  A    between atoms: P_1  and  O_7
REMARK    4  A    between atoms: O_7  and  C_9
REMARK                            x       y       z     vdW  Elec       q    Type
REMARK                         _______ _______ _______ _____ _____    ______ ____
ROOT
ATOM      1  P   UNL     1      40.116 -26.050 -14.597  0.00  0.00    +0.530 P 
ATOM      2  O   UNL     1      41.314 -26.704 -13.971  0.00  0.00    -0.216 OA
ENDROOT
BRANCH   1   3
ATOM      3  O   UNL     1      40.286 -25.680 -16.162  0.00  0.00    -0.293 OA
ATOM      4  H   UNL     1      40.642 -24.782 -16.245  0.00  0.00    +0.223 HD
ENDBRANCH   1   3
BRANCH   1   5
ATOM      5  O   UNL     1      39.673 -24.653 -13.914  0.00  0.00    -0.293 OA
ATOM      6  H   UNL     1      39.827 -23.926 -14.537  0.00  0.00    +0.223 HD
ENDBRANCH   1   5
BRANCH   1   7
ATOM      7  O   UNL     1      38.775 -26.955 -14.550  0.00  0.00    -0.371 OA
BRANCH   7   9
ATOM      8  O   UNL     1      37.309 -26.311 -12.906  0.00  0.00    -0.250 OA
ATOM      9  C   UNL     1      37.567 -26.558 -14.076  0.00  0.00    +0.324 C 
ATOM     10  C   UNL     1      36.581 -26.462 -15.199  0.00  0.00    +0.122 C 
ENDBRANCH   7   9
ENDBRANCH   1   7
TORSDOF 4
ENDMDL
MODEL 3
REMARK VINA RESULT:      -5.1      1.849      2.554
REMARK  Name = 186
REMARK  4 active torsions:
REMARK  status: ('A' for Active; 'I' for Inactive)
REMARK    1  A    between atoms: P_1  and  O_3
REMARK    2  A    between atoms: P_1  and  O_5
REMARK    3  A    between atoms: P_1  and  O_7
REMARK    4  A    between atoms: O_7  and  C_9
REMARK                            x       y       z     vdW  Elec       q    Type
REMARK                         _______ _______ _______ _____ _____    ______ ____
ROOT
ATOM      1  P   UNL     1      39.648 -25.406 -14.516  0.00  0.00    +0.530 P 
ATOM      2  O   UNL     1      41.082 -25.820 -14.680  0.00  0.00    -0.216 OA
ENDROOT
BRANCH   1   3
ATOM      3  O   UNL     1      38.575 -26.609 -14.644  0.00  0.00    -0.293 OA
ATOM      4  H   UNL     1      37.681 -26.239 -14.710  0.00  0.00    +0.223 HD
ENDBRANCH   1   3
BRANCH   1   5
ATOM      5  O   UNL     1      39.133 -24.311 -15.588  0.00  0.00    -0.293 OA
ATOM      6  H   UNL     1      39.314 -23.419 -15.252  0.00  0.00    +0.223 HD
ENDBRANCH   1   5
BRANCH   1   7
ATOM      7  O   UNL     1      39.320 -24.737 -13.080  0.00  0.00    -0.371 OA
BRANCH   7   9
ATOM      8  O   UNL     1      37.682 -25.947 -12.022  0.00  0.00    -0.250 OA
ATOM      9  C   UNL     1      38.164 -24.882 -12.383  0.00  0.00    +0.324 C 
ATOM     10  C   UNL     1      37.554 -23.542 -12.114  0.00  0.00    +0.122 C 
ENDBRANCH   7   9
ENDBRANCH   1   7
TORSDOF 4
ENDMDL
MODEL 4
REMARK VINA RESULT:      -5.1      9.830     11.417
REMARK  Name = 186
REMARK  4 active torsions:
REMARK  status: ('A' for Active; 'I' for Inactive)
REMARK    1  A    between atoms: P_1  and  O_3
REMARK    2  A    between atoms: P_1  and  O_5
REMARK    3  A    between atoms: P_1  and  O_7
REMARK    4  A    between atoms: O_7  and  C_9
REMARK                            x       y       z     vdW  Elec       q    Type
REMARK                         _______ _______ _______ _____ _____    ______ ____
ROOT
ATOM      1  P   UNL     1      27.736 -22.538 -16.931  0.00  0.00    +0.530 P 
ATOM      2  O   UNL     1      27.025 -21.389 -17.585  0.00  0.00    -0.216 OA
ENDROOT
BRANCH   1   3
ATOM      3  O   UNL     1      27.509 -23.971 -17.646  0.00  0.00    -0.293 OA
ATOM      4  H   UNL     1      28.142 -24.073 -18.373  0.00  0.00    +0.223 HD
ENDBRANCH   1   3
BRANCH   1   5
ATOM      5  O   UNL     1      27.321 -22.803 -15.391  0.00  0.00    -0.293 OA
ATOM      6  H   UNL     1      26.529 -22.286 -15.176  0.00  0.00    +0.223 HD
ENDBRANCH   1   5
BRANCH   1   7
ATOM      7  O   UNL     1      29.345 -22.372 -16.884  0.00  0.00    -0.371 OA
BRANCH   7   9
ATOM      8  O   UNL     1      29.914 -24.238 -15.676  0.00  0.00    -0.250 OA
ATOM      9  C   UNL     1      30.218 -23.261 -16.345  0.00  0.00    +0.324 C 
ATOM     10  C   UNL     1      31.623 -22.874 -16.689  0.00  0.00    +0.122 C 
ENDBRANCH   7   9
ENDBRANCH   1   7
TORSDOF 4
ENDMDL
MODEL 5
REMARK VINA RESULT:      -5.1      4.121      4.894
REMARK  Name = 186
REMARK  4 active torsions:
REMARK  status: ('A' for Active; 'I' for Inactive)
REMARK    1  A    between atoms: P_1  and  O_3
REMARK    2  A    between atoms: P_1  and  O_5
REMARK    3  A    between atoms: P_1  and  O_7
REMARK    4  A    between atoms: O_7  and  C_9
REMARK                            x       y       z     vdW  Elec       q    Type
REMARK                         _______ _______ _______ _____ _____    ______ ____
ROOT
ATOM      1  P   UNL     1      35.913 -24.223 -10.982  0.00  0.00    +0.530 P 
ATOM      2  O   UNL     1      35.318 -24.550  -9.643  0.00  0.00    -0.216 OA
ENDROOT
BRANCH   1   3
ATOM      3  O   UNL     1      37.120 -23.148 -10.944  0.00  0.00    -0.293 OA
ATOM      4  H   UNL     1      37.047 -22.553 -11.707  0.00  0.00    +0.223 HD
ENDBRANCH   1   3
BRANCH   1   5
ATOM      5  O   UNL     1      34.873 -23.601 -12.052  0.00  0.00    -0.293 OA
ATOM      6  H   UNL     1      33.974 -23.638 -11.688  0.00  0.00    +0.223 HD
ENDBRANCH   1   5
BRANCH   1   7
ATOM      7  O   UNL     1      36.548 -25.500 -11.746  0.00  0.00    -0.371 OA
BRANCH   7   9
ATOM      8  O   UNL     1      36.292 -25.399 -14.025  0.00  0.00    -0.250 OA
ATOM      9  C   UNL     1      36.993 -25.516 -13.029  0.00  0.00    +0.324 C 
ATOM     10  C   UNL     1      38.479 -25.699 -13.055  0.00  0.00    +0.122 C 
ENDBRANCH   7   9
ENDBRANCH   1   7
TORSDOF 4
ENDMDL
MODEL 6
REMARK VINA RESULT:      -5.1      4.099      5.034
REMARK  Name = 186
REMARK  4 active torsions:
REMARK  status: ('A' for Active; 'I' for Inactive)
REMARK    1  A    between atoms: P_1  and  O_3
REMARK    2  A    between atoms: P_1  and  O_5
REMARK    3  A    between atoms: P_1  and  O_7
REMARK    4  A    between atoms: O_7  and  C_9
REMARK                            x       y       z     vdW  Elec       q    Type
REMARK                         _______ _______ _______ _____ _____    ______ ____
ROOT
ATOM      1  P   UNL     1      36.034 -24.080 -11.079  0.00  0.00    +0.530 P 
ATOM      2  O   UNL     1      37.112 -23.052 -10.890  0.00  0.00    -0.216 OA
ENDROOT
BRANCH   1   3
ATOM      3  O   UNL     1      34.801 -23.605 -12.012  0.00  0.00    -0.293 OA
ATOM      4  H   UNL     1      34.020 -24.145 -11.814  0.00  0.00    +0.223 HD
ENDBRANCH   1   3
BRANCH   1   5
ATOM      5  O   UNL     1      35.320 -24.573  -9.715  0.00  0.00    -0.293 OA
ATOM      6  H   UNL     1      34.445 -24.160  -9.641  0.00  0.00    +0.223 HD
ENDBRANCH   1   5
BRANCH   1   7
ATOM      7  O   UNL     1      36.547 -25.448 -11.773  0.00  0.00    -0.371 OA
BRANCH   7   9
ATOM      8  O   UNL     1      36.298 -25.543 -14.052  0.00  0.00    -0.250 OA
ATOM      9  C   UNL     1      36.996 -25.571 -13.048  0.00  0.00    +0.324 C 
ATOM     10  C   UNL     1      38.483 -25.747 -13.055  0.00  0.00    +0.122 C 
ENDBRANCH   7   9
ENDBRANCH   1   7
TORSDOF 4
ENDMDL
MODEL 7
REMARK VINA RESULT:      -5.0      2.450      3.750
REMARK  Name = 186
REMARK  4 active torsions:
REMARK  status: ('A' for Active; 'I' for Inactive)
REMARK    1  A    between atoms: P_1  and  O_3
REMARK    2  A    between atoms: P_1  and  O_5
REMARK    3  A    between atoms: P_1  and  O_7
REMARK    4  A    between atoms: O_7  and  C_9
REMARK                            x       y       z     vdW  Elec       q    Type
REMARK                         _______ _______ _______ _____ _____    ______ ____
ROOT
ATOM      1  P   UNL     1      37.151 -26.342 -15.153  0.00  0.00    +0.530 P 
ATOM      2  O   UNL     1      36.573 -27.340 -16.115  0.00  0.00    -0.216 OA
ENDROOT
BRANCH   1   3
ATOM      3  O   UNL     1      38.767 -26.258 -15.153  0.00  0.00    -0.293 OA
ATOM      4  H   UNL     1      39.043 -25.356 -14.927  0.00  0.00    +0.223 HD
ENDBRANCH   1   3
BRANCH   1   5
ATOM      5  O   UNL     1      36.776 -26.600 -13.602  0.00  0.00    -0.293 OA
ATOM      6  H   UNL     1      35.882 -26.973 -13.543  0.00  0.00    +0.223 HD
ENDBRANCH   1   5
BRANCH   1   7
ATOM      7  O   UNL     1      36.678 -24.819 -15.426  0.00  0.00    -0.371 OA
BRANCH   7   9
ATOM      8  O   UNL     1      37.900 -23.578 -13.932  0.00  0.00    -0.250 OA
ATOM      9  C   UNL     1      37.321 -23.701 -15.002  0.00  0.00    +0.324 C 
ATOM     10  C   UNL     1      37.222 -22.627 -16.040  0.00  0.00    +0.122 C 
ENDBRANCH   7   9
ENDBRANCH   1   7
TORSDOF 4
ENDMDL
MODEL 8
REMARK VINA RESULT:      -4.9      2.484      3.511
REMARK  Name = 186
REMARK  4 active torsions:
REMARK  status: ('A' for Active; 'I' for Inactive)
REMARK    1  A    between atoms: P_1  and  O_3
REMARK    2  A    between atoms: P_1  and  O_5
REMARK    3  A    between atoms: P_1  and  O_7
REMARK    4  A    between atoms: O_7  and  C_9
REMARK                            x       y       z     vdW  Elec       q    Type
REMARK                         _______ _______ _______ _____ _____    ______ ____
ROOT
ATOM      1  P   UNL     1      37.293 -26.383 -14.285  0.00  0.00    +0.530 P 
ATOM      2  O   UNL     1      38.611 -26.965 -14.706  0.00  0.00    -0.216 OA
ENDROOT
BRANCH   1   3
ATOM      3  O   UNL     1      36.858 -26.718 -12.763  0.00  0.00    -0.293 OA
ATOM      4  H   UNL     1      36.876 -27.678 -12.626  0.00  0.00    +0.223 HD
ENDBRANCH   1   3
BRANCH   1   5
ATOM      5  O   UNL     1      36.026 -26.868 -15.165  0.00  0.00    -0.293 OA
ATOM      6  H   UNL     1      35.600 -27.624 -14.730  0.00  0.00    +0.223 HD
ENDBRANCH   1   5
BRANCH   1   7
ATOM      7  O   UNL     1      37.234 -24.768 -14.364  0.00  0.00    -0.371 OA
BRANCH   7   9
ATOM      8  O   UNL     1      35.547 -24.270 -15.838  0.00  0.00    -0.250 OA
ATOM      9  C   UNL     1      36.645 -24.044 -15.350  0.00  0.00    +0.324 C 
ATOM     10  C   UNL     1      37.538 -22.915 -15.761  0.00  0.00    +0.122 C 
ENDBRANCH   7   9
ENDBRANCH   1   7
TORSDOF 4
ENDMDL
MODEL 9
REMARK VINA RESULT:      -4.9      2.465      3.797
REMARK  Name = 186
REMARK  4 active torsions:
REMARK  status: ('A' for Active; 'I' for Inactive)
REMARK    1  A    between atoms: P_1  and  O_3
REMARK    2  A    between atoms: P_1  and  O_5
REMARK    3  A    between atoms: P_1  and  O_7
REMARK    4  A    between atoms: O_7  and  C_9
REMARK                            x       y       z     vdW  Elec       q    Type
REMARK                         _______ _______ _______ _____ _____    ______ ____
ROOT
ATOM      1  P   UNL     1      36.764 -26.317 -14.955  0.00  0.00    +0.530 P 
ATOM      2  O   UNL     1      36.819 -27.285 -16.101  0.00  0.00    -0.216 OA
ENDROOT
BRANCH   1   3
ATOM      3  O   UNL     1      36.983 -26.979 -13.496  0.00  0.00    -0.293 OA
ATOM      4  H   UNL     1      37.332 -27.878 -13.599  0.00  0.00    +0.223 HD
ENDBRANCH   1   3
BRANCH   1   5
ATOM      5  O   UNL     1      35.366 -25.517 -14.812  0.00  0.00    -0.293 OA
ATOM      6  H   UNL     1      35.438 -24.658 -15.258  0.00  0.00    +0.223 HD
ENDBRANCH   1   5
BRANCH   1   7
ATOM      7  O   UNL     1      37.881 -25.149 -15.028  0.00  0.00    -0.371 OA
BRANCH   7   9
ATOM      8  O   UNL     1      39.002 -24.660 -13.087  0.00  0.00    -0.250 OA
ATOM      9  C   UNL     1      38.985 -25.057 -14.243  0.00  0.00    +0.324 C 
ATOM     10  C   UNL     1      40.192 -25.516 -15.000  0.00  0.00    +0.122 C 
ENDBRANCH   7   9
ENDBRANCH   1   7
TORSDOF 4
ENDMDL
