MODEL 1
REMARK VINA RESULT:      -8.8      0.000      0.000
REMARK  Name = 3324
REMARK  9 active torsions:
REMARK  status: ('A' for Active; 'I' for Inactive)
REMARK    1  A    between atoms: C_1  and  N_2
REMARK    2  A    between atoms: C_1  and  C_14
REMARK    3  A    between atoms: C_14  and  C_15
REMARK    4  A    between atoms: C_15  and  C_16
REMARK    5  A    between atoms: C_15  and  C_21
REMARK    6  A    between atoms: C_16  and  O_17
REMARK    7  A    between atoms: O_17  and  C_19
REMARK    8  A    between atoms: C_21  and  O_22
REMARK    9  A    between atoms: O_22  and  C_24
REMARK                            x       y       z     vdW  Elec       q    Type
REMARK                         _______ _______ _______ _____ _____    ______ ____
ROOT
ATOM      1  C   UNL     1      34.186 -19.213 -22.137  0.00  0.00    +0.095 C 
ENDROOT
BRANCH   1   2
ATOM      2  N   UNL     1      35.179 -19.686 -21.180  0.00  0.00    -0.261 N 
ATOM      3  N   UNL     1      37.124 -19.868 -20.138  0.00  0.00    -0.246 NA
ATOM      4  N   UNL     1      33.863 -21.301 -19.936  0.00  0.00    -0.322 NA
ATOM      5  N   UNL     1      35.200 -22.349 -18.182  0.00  0.00    -0.191 NA
ATOM      6  N   UNL     1      32.951 -22.919 -18.513  0.00  0.00    -0.293 N 
ATOM      7  C   UNL     1      34.985 -20.620 -20.216  0.00  0.00    +0.213 C 
ATOM      8  C   UNL     1      36.468 -19.259 -21.104  0.00  0.00    +0.222 C 
ATOM      9  C   UNL     1      36.209 -20.721 -19.574  0.00  0.00    +0.126 C 
ATOM     10  C   UNL     1      36.295 -21.627 -18.521  0.00  0.00    +0.187 C 
ATOM     11  C   UNL     1      34.069 -22.144 -18.900  0.00  0.00    +0.139 C 
ATOM     12  H   UNL     1      32.096 -22.822 -18.990  0.00  0.00    +0.155 HD
ATOM     13  H   UNL     1      33.029 -23.555 -17.765  0.00  0.00    +0.155 HD
ENDBRANCH   1   2
BRANCH   1  14
ATOM     14  C   UNL     1      34.789 -18.620 -23.416  0.00  0.00    +0.029 C 
BRANCH  14  15
ATOM     15  C   UNL     1      34.424 -17.142 -23.697  0.00  0.00    +0.089 C 
BRANCH  15  16
ATOM     16  C   UNL     1      34.638 -16.823 -25.187  0.00  0.00    +0.212 C 
BRANCH  16  17
ATOM     17  O   UNL     1      33.416 -16.389 -25.771  0.00  0.00    -0.448 OA
BRANCH  17  19
ATOM     18  O   UNL     1      33.696 -14.690 -27.310  0.00  0.00    -0.250 OA
ATOM     19  C   UNL     1      33.388 -15.090 -26.195  0.00  0.00    +0.318 C 
ATOM     20  C   UNL     1      32.917 -14.201 -25.085  0.00  0.00    +0.121 C 
ENDBRANCH  17  19
ENDBRANCH  16  17
ENDBRANCH  15  16
BRANCH  15  21
ATOM     21  C   UNL     1      35.221 -16.154 -22.834  0.00  0.00    +0.212 C 
BRANCH  21  22
ATOM     22  O   UNL     1      34.348 -15.269 -22.145  0.00  0.00    -0.448 OA
BRANCH  22  24
ATOM     23  O   UNL     1      35.071 -15.972 -20.066  0.00  0.00    -0.250 OA
ATOM     24  C   UNL     1      34.222 -15.482 -20.800  0.00  0.00    +0.318 C 
ATOM     25  C   UNL     1      32.873 -15.025 -20.334  0.00  0.00    +0.121 C 
ENDBRANCH  22  24
ENDBRANCH  21  22
ENDBRANCH  15  21
ENDBRANCH  14  15
ENDBRANCH   1  14
TORSDOF 9
ENDMDL
MODEL 2
REMARK VINA RESULT:      -8.8      6.202      9.321
REMARK  Name = 3324
REMARK  9 active torsions:
REMARK  status: ('A' for Active; 'I' for Inactive)
REMARK    1  A    between atoms: C_1  and  N_2
REMARK    2  A    between atoms: C_1  and  C_14
REMARK    3  A    between atoms: C_14  and  C_15
REMARK    4  A    between atoms: C_15  and  C_16
REMARK    5  A    between atoms: C_15  and  C_21
REMARK    6  A    between atoms: C_16  and  O_17
REMARK    7  A    between atoms: O_17  and  C_19
REMARK    8  A    between atoms: C_21  and  O_22
REMARK    9  A    between atoms: O_22  and  C_24
REMARK                            x       y       z     vdW  Elec       q    Type
REMARK                         _______ _______ _______ _____ _____    ______ ____
ROOT
ATOM      1  C   UNL     1      34.414 -23.512 -15.132  0.00  0.00    +0.095 C 
ENDROOT
BRANCH   1   2
ATOM      2  N   UNL     1      35.029 -24.129 -13.963  0.00  0.00    -0.261 N 
ATOM      3  N   UNL     1      35.248 -24.861 -11.884  0.00  0.00    -0.246 NA
ATOM      4  N   UNL     1      37.189 -24.754 -14.875  0.00  0.00    -0.322 NA
ATOM      5  N   UNL     1      38.565 -25.853 -13.185  0.00  0.00    -0.191 NA
ATOM      6  N   UNL     1      39.348 -25.510 -15.366  0.00  0.00    -0.293 N 
ATOM      7  C   UNL     1      36.272 -24.669 -13.900  0.00  0.00    +0.213 C 
ATOM      8  C   UNL     1      34.447 -24.261 -12.740  0.00  0.00    +0.222 C 
ATOM      9  C   UNL     1      36.392 -25.122 -12.596  0.00  0.00    +0.126 C 
ATOM     10  C   UNL     1      37.593 -25.733 -12.249  0.00  0.00    +0.187 C 
ATOM     11  C   UNL     1      38.306 -25.363 -14.422  0.00  0.00    +0.139 C 
ATOM     12  H   UNL     1      39.231 -25.177 -16.285  0.00  0.00    +0.155 HD
ATOM     13  H   UNL     1      40.192 -25.945 -15.104  0.00  0.00    +0.155 HD
ENDBRANCH   1   2
BRANCH   1  14
ATOM     14  C   UNL     1      32.918 -23.219 -14.964  0.00  0.00    +0.029 C 
BRANCH  14  15
ATOM     15  C   UNL     1      32.174 -22.809 -16.258  0.00  0.00    +0.089 C 
BRANCH  15  16
ATOM     16  C   UNL     1      30.737 -23.359 -16.233  0.00  0.00    +0.212 C 
BRANCH  16  17
ATOM     17  O   UNL     1      29.862 -22.460 -16.904  0.00  0.00    -0.448 OA
BRANCH  17  19
ATOM     18  O   UNL     1      27.982 -23.400 -17.861  0.00  0.00    -0.250 OA
ATOM     19  C   UNL     1      28.546 -22.826 -16.939  0.00  0.00    +0.318 C 
ATOM     20  C   UNL     1      27.870 -22.421 -15.665  0.00  0.00    +0.121 C 
ENDBRANCH  17  19
ENDBRANCH  16  17
ENDBRANCH  15  16
BRANCH  15  21
ATOM     21  C   UNL     1      32.889 -23.279 -17.534  0.00  0.00    +0.212 C 
BRANCH  21  22
ATOM     22  O   UNL     1      32.703 -22.345 -18.588  0.00  0.00    -0.448 OA
BRANCH  22  24
ATOM     23  O   UNL     1      34.891 -22.609 -19.285  0.00  0.00    -0.250 OA
ATOM     24  C   UNL     1      33.830 -21.998 -19.283  0.00  0.00    +0.318 C 
ATOM     25  C   UNL     1      33.584 -20.741 -20.061  0.00  0.00    +0.121 C 
ENDBRANCH  22  24
ENDBRANCH  21  22
ENDBRANCH  15  21
ENDBRANCH  14  15
ENDBRANCH   1  14
TORSDOF 9
ENDMDL
MODEL 3
REMARK VINA RESULT:      -8.7      6.195      9.169
REMARK  Name = 3324
REMARK  9 active torsions:
REMARK  status: ('A' for Active; 'I' for Inactive)
REMARK    1  A    between atoms: C_1  and  N_2
REMARK    2  A    between atoms: C_1  and  C_14
REMARK    3  A    between atoms: C_14  and  C_15
REMARK    4  A    between atoms: C_15  and  C_16
REMARK    5  A    between atoms: C_15  and  C_21
REMARK    6  A    between atoms: C_16  and  O_17
REMARK    7  A    between atoms: O_17  and  C_19
REMARK    8  A    between atoms: C_21  and  O_22
REMARK    9  A    between atoms: O_22  and  C_24
REMARK                            x       y       z     vdW  Elec       q    Type
REMARK                         _______ _______ _______ _____ _____    ______ ____
ROOT
ATOM      1  C   UNL     1      34.705 -23.256 -15.086  0.00  0.00    +0.095 C 
ENDROOT
BRANCH   1   2
ATOM      2  N   UNL     1      35.297 -24.000 -13.980  0.00  0.00    -0.261 N 
ATOM      3  N   UNL     1      35.481 -24.939 -11.983  0.00  0.00    -0.246 NA
ATOM      4  N   UNL     1      37.449 -24.583 -14.937  0.00  0.00    -0.322 NA
ATOM      5  N   UNL     1      38.785 -25.875 -13.356  0.00  0.00    -0.191 NA
ATOM      6  N   UNL     1      39.594 -25.336 -15.488  0.00  0.00    -0.293 N 
ATOM      7  C   UNL     1      36.526 -24.573 -13.964  0.00  0.00    +0.213 C 
ATOM      8  C   UNL     1      34.702 -24.238 -12.780  0.00  0.00    +0.222 C 
ATOM      9  C   UNL     1      36.625 -25.155 -12.710  0.00  0.00    +0.126 C 
ATOM     10  C   UNL     1      37.809 -25.825 -12.419  0.00  0.00    +0.187 C 
ATOM     11  C   UNL     1      38.548 -25.260 -14.540  0.00  0.00    +0.139 C 
ATOM     12  H   UNL     1      39.492 -24.912 -16.370  0.00  0.00    +0.155 HD
ATOM     13  H   UNL     1      40.425 -25.815 -15.266  0.00  0.00    +0.155 HD
ENDBRANCH   1   2
BRANCH   1  14
ATOM     14  C   UNL     1      33.173 -23.199 -15.047  0.00  0.00    +0.029 C 
BRANCH  14  15
ATOM     15  C   UNL     1      32.463 -23.547 -16.378  0.00  0.00    +0.089 C 
BRANCH  15  16
ATOM     16  C   UNL     1      33.317 -23.072 -17.567  0.00  0.00    +0.212 C 
BRANCH  16  17
ATOM     17  O   UNL     1      32.525 -22.287 -18.450  0.00  0.00    -0.448 OA
BRANCH  17  19
ATOM     18  O   UNL     1      32.725 -20.823 -20.225  0.00  0.00    -0.250 OA
ATOM     19  C   UNL     1      33.214 -21.574 -19.391  0.00  0.00    +0.318 C 
ATOM     20  C   UNL     1      34.682 -21.840 -19.259  0.00  0.00    +0.121 C 
ENDBRANCH  17  19
ENDBRANCH  16  17
ENDBRANCH  15  16
BRANCH  15  21
ATOM     21  C   UNL     1      31.053 -22.948 -16.478  0.00  0.00    +0.212 C 
BRANCH  21  22
ATOM     22  O   UNL     1      30.066 -23.940 -16.228  0.00  0.00    -0.448 OA
BRANCH  22  24
ATOM     23  O   UNL     1      28.028 -24.152 -17.296  0.00  0.00    -0.250 OA
ATOM     24  C   UNL     1      28.776 -23.582 -16.513  0.00  0.00    +0.318 C 
ATOM     25  C   UNL     1      28.394 -22.372 -15.717  0.00  0.00    +0.121 C 
ENDBRANCH  22  24
ENDBRANCH  21  22
ENDBRANCH  15  21
ENDBRANCH  14  15
ENDBRANCH   1  14
TORSDOF 9
ENDMDL
MODEL 4
REMARK VINA RESULT:      -8.6      1.171      3.746
REMARK  Name = 3324
REMARK  9 active torsions:
REMARK  status: ('A' for Active; 'I' for Inactive)
REMARK    1  A    between atoms: C_1  and  N_2
REMARK    2  A    between atoms: C_1  and  C_14
REMARK    3  A    between atoms: C_14  and  C_15
REMARK    4  A    between atoms: C_15  and  C_16
REMARK    5  A    between atoms: C_15  and  C_21
REMARK    6  A    between atoms: C_16  and  O_17
REMARK    7  A    between atoms: O_17  and  C_19
REMARK    8  A    between atoms: C_21  and  O_22
REMARK    9  A    between atoms: O_22  and  C_24
REMARK                            x       y       z     vdW  Elec       q    Type
REMARK                         _______ _______ _______ _____ _____    ______ ____
ROOT
ATOM      1  C   UNL     1      35.360 -19.538 -21.265  0.00  0.00    +0.095 C 
ENDROOT
BRANCH   1   2
ATOM      2  N   UNL     1      34.545 -20.439 -20.459  0.00  0.00    -0.261 N 
ATOM      3  N   UNL     1      32.759 -21.546 -19.762  0.00  0.00    -0.246 NA
ATOM      4  N   UNL     1      36.198 -21.231 -18.869  0.00  0.00    -0.322 NA
ATOM      5  N   UNL     1      35.207 -22.812 -17.295  0.00  0.00    -0.191 NA
ATOM      6  N   UNL     1      37.471 -22.223 -17.176  0.00  0.00    -0.293 N 
ATOM      7  C   UNL     1      34.967 -21.173 -19.399  0.00  0.00    +0.213 C 
ATOM      8  C   UNL     1      33.221 -20.687 -20.646  0.00  0.00    +0.222 C 
ATOM      9  C   UNL     1      33.839 -21.859 -18.976  0.00  0.00    +0.126 C 
ATOM     10  C   UNL     1      33.990 -22.703 -17.881  0.00  0.00    +0.187 C 
ATOM     11  C   UNL     1      36.220 -22.080 -17.818  0.00  0.00    +0.139 C 
ATOM     12  H   UNL     1      38.253 -21.722 -17.501  0.00  0.00    +0.155 HD
ATOM     13  H   UNL     1      37.560 -22.826 -16.402  0.00  0.00    +0.155 HD
ENDBRANCH   1   2
BRANCH   1  14
ATOM     14  C   UNL     1      34.849 -19.354 -22.699  0.00  0.00    +0.029 C 
BRANCH  14  15
ATOM     15  C   UNL     1      35.303 -18.052 -23.402  0.00  0.00    +0.089 C 
BRANCH  15  16
ATOM     16  C   UNL     1      35.364 -16.900 -22.384  0.00  0.00    +0.212 C 
BRANCH  16  17
ATOM     17  O   UNL     1      34.067 -16.651 -21.856  0.00  0.00    -0.448 OA
BRANCH  17  19
ATOM     18  O   UNL     1      34.906 -15.349 -20.142  0.00  0.00    -0.250 OA
ATOM     19  C   UNL     1      33.994 -15.693 -20.884  0.00  0.00    +0.318 C 
ATOM     20  C   UNL     1      32.617 -15.106 -20.848  0.00  0.00    +0.121 C 
ENDBRANCH  17  19
ENDBRANCH  16  17
ENDBRANCH  15  16
BRANCH  15  21
ATOM     21  C   UNL     1      34.399 -17.659 -24.579  0.00  0.00    +0.212 C 
BRANCH  21  22
ATOM     22  O   UNL     1      34.765 -16.386 -25.093  0.00  0.00    -0.448 OA
BRANCH  22  24
ATOM     23  O   UNL     1      33.199 -15.762 -26.673  0.00  0.00    -0.250 OA
ATOM     24  C   UNL     1      33.740 -15.624 -25.584  0.00  0.00    +0.318 C 
ATOM     25  C   UNL     1      33.360 -14.574 -24.585  0.00  0.00    +0.121 C 
ENDBRANCH  22  24
ENDBRANCH  21  22
ENDBRANCH  15  21
ENDBRANCH  14  15
ENDBRANCH   1  14
TORSDOF 9
ENDMDL
MODEL 5
REMARK VINA RESULT:      -8.6      1.667      3.965
REMARK  Name = 3324
REMARK  9 active torsions:
REMARK  status: ('A' for Active; 'I' for Inactive)
REMARK    1  A    between atoms: C_1  and  N_2
REMARK    2  A    between atoms: C_1  and  C_14
REMARK    3  A    between atoms: C_14  and  C_15
REMARK    4  A    between atoms: C_15  and  C_16
REMARK    5  A    between atoms: C_15  and  C_21
REMARK    6  A    between atoms: C_16  and  O_17
REMARK    7  A    between atoms: O_17  and  C_19
REMARK    8  A    between atoms: C_21  and  O_22
REMARK    9  A    between atoms: O_22  and  C_24
REMARK                            x       y       z     vdW  Elec       q    Type
REMARK                         _______ _______ _______ _____ _____    ______ ____
ROOT
ATOM      1  C   UNL     1      35.563 -20.556 -20.364  0.00  0.00    +0.095 C 
ENDROOT
BRANCH   1   2
ATOM      2  N   UNL     1      34.723 -21.365 -19.488  0.00  0.00    -0.261 N 
ATOM      3  N   UNL     1      32.910 -22.370 -18.712  0.00  0.00    -0.246 NA
ATOM      4  N   UNL     1      36.348 -22.045 -17.820  0.00  0.00    -0.322 NA
ATOM      5  N   UNL     1      35.314 -23.460 -16.121  0.00  0.00    -0.191 NA
ATOM      6  N   UNL     1      37.589 -22.908 -16.034  0.00  0.00    -0.293 N 
ATOM      7  C   UNL     1      35.123 -22.010 -18.364  0.00  0.00    +0.213 C 
ATOM      8  C   UNL     1      33.396 -21.602 -19.665  0.00  0.00    +0.222 C 
ATOM      9  C   UNL     1      33.978 -22.633 -17.892  0.00  0.00    +0.126 C 
ATOM     10  C   UNL     1      34.104 -23.379 -16.724  0.00  0.00    +0.187 C 
ATOM     11  C   UNL     1      36.346 -22.797 -16.697  0.00  0.00    +0.139 C 
ATOM     12  H   UNL     1      38.383 -22.453 -16.396  0.00  0.00    +0.155 HD
ATOM     13  H   UNL     1      37.660 -23.440 -15.208  0.00  0.00    +0.155 HD
ENDBRANCH   1   2
BRANCH   1  14
ATOM     14  C   UNL     1      34.774 -19.692 -21.356  0.00  0.00    +0.029 C 
BRANCH  14  15
ATOM     15  C   UNL     1      35.539 -18.474 -21.927  0.00  0.00    +0.089 C 
BRANCH  15  16
ATOM     16  C   UNL     1      35.160 -17.204 -21.146  0.00  0.00    +0.212 C 
BRANCH  16  17
ATOM     17  O   UNL     1      33.745 -17.104 -21.039  0.00  0.00    -0.448 OA
BRANCH  17  19
ATOM     18  O   UNL     1      32.082 -15.522 -21.294  0.00  0.00    -0.250 OA
ATOM     19  C   UNL     1      33.237 -15.835 -21.036  0.00  0.00    +0.318 C 
ATOM     20  C   UNL     1      34.309 -14.857 -20.665  0.00  0.00    +0.121 C 
ENDBRANCH  17  19
ENDBRANCH  16  17
ENDBRANCH  15  16
BRANCH  15  21
ATOM     21  C   UNL     1      35.287 -18.257 -23.426  0.00  0.00    +0.212 C 
BRANCH  21  22
ATOM     22  O   UNL     1      35.292 -16.872 -23.743  0.00  0.00    -0.448 OA
BRANCH  22  24
ATOM     23  O   UNL     1      34.656 -17.058 -25.957  0.00  0.00    -0.250 OA
ATOM     24  C   UNL     1      34.591 -16.513 -24.862  0.00  0.00    +0.318 C 
ATOM     25  C   UNL     1      33.712 -15.338 -24.560  0.00  0.00    +0.121 C 
ENDBRANCH  22  24
ENDBRANCH  21  22
ENDBRANCH  15  21
ENDBRANCH  14  15
ENDBRANCH   1  14
TORSDOF 9
ENDMDL
MODEL 6
REMARK VINA RESULT:      -8.5      5.109      8.235
REMARK  Name = 3324
REMARK  9 active torsions:
REMARK  status: ('A' for Active; 'I' for Inactive)
REMARK    1  A    between atoms: C_1  and  N_2
REMARK    2  A    between atoms: C_1  and  C_14
REMARK    3  A    between atoms: C_14  and  C_15
REMARK    4  A    between atoms: C_15  and  C_16
REMARK    5  A    between atoms: C_15  and  C_21
REMARK    6  A    between atoms: C_16  and  O_17
REMARK    7  A    between atoms: O_17  and  C_19
REMARK    8  A    between atoms: C_21  and  O_22
REMARK    9  A    between atoms: O_22  and  C_24
REMARK                            x       y       z     vdW  Elec       q    Type
REMARK                         _______ _______ _______ _____ _____    ______ ____
ROOT
ATOM      1  C   UNL     1      32.344 -13.774 -22.455  0.00  0.00    +0.095 C 
ENDROOT
BRANCH   1   2
ATOM      2  N   UNL     1      32.167 -12.330 -22.351  0.00  0.00    -0.261 N 
ATOM      3  N   UNL     1      31.334 -10.391 -21.682  0.00  0.00    -0.246 NA
ATOM      4  N   UNL     1      33.880 -11.562 -23.889  0.00  0.00    -0.322 NA
ATOM      5  N   UNL     1      33.917  -9.124 -24.005  0.00  0.00    -0.191 NA
ATOM      6  N   UNL     1      35.397 -10.432 -25.266  0.00  0.00    -0.293 N 
ATOM      7  C   UNL     1      32.880 -11.384 -23.013  0.00  0.00    +0.213 C 
ATOM      8  C   UNL     1      31.253 -11.700 -21.566  0.00  0.00    +0.222 C 
ATOM      9  C   UNL     1      32.347 -10.180 -22.583  0.00  0.00    +0.126 C 
ATOM     10  C   UNL     1      32.903  -9.020 -23.114  0.00  0.00    +0.187 C 
ATOM     11  C   UNL     1      34.337 -10.371 -24.333  0.00  0.00    +0.139 C 
ATOM     12  H   UNL     1      35.753 -11.305 -25.550  0.00  0.00    +0.155 HD
ATOM     13  H   UNL     1      35.779  -9.602 -25.632  0.00  0.00    +0.155 HD
ENDBRANCH   1   2
BRANCH   1  14
ATOM     14  C   UNL     1      33.204 -14.376 -21.337  0.00  0.00    +0.029 C 
BRANCH  14  15
ATOM     15  C   UNL     1      34.359 -15.291 -21.810  0.00  0.00    +0.089 C 
BRANCH  15  16
ATOM     16  C   UNL     1      34.541 -15.160 -23.333  0.00  0.00    +0.212 C 
BRANCH  16  17
ATOM     17  O   UNL     1      35.127 -16.347 -23.855  0.00  0.00    -0.448 OA
BRANCH  17  19
ATOM     18  O   UNL     1      34.233 -16.151 -25.976  0.00  0.00    -0.250 OA
ATOM     19  C   UNL     1      34.576 -16.823 -25.012  0.00  0.00    +0.318 C 
ATOM     20  C   UNL     1      34.445 -18.313 -24.939  0.00  0.00    +0.121 C 
ENDBRANCH  17  19
ENDBRANCH  16  17
ENDBRANCH  15  16
BRANCH  15  21
ATOM     21  C   UNL     1      34.148 -16.765 -21.436  0.00  0.00    +0.212 C 
BRANCH  21  22
ATOM     22  O   UNL     1      35.274 -17.274 -20.735  0.00  0.00    -0.448 OA
BRANCH  22  24
ATOM     23  O   UNL     1      36.777 -18.997 -21.068  0.00  0.00    -0.250 OA
ATOM     24  C   UNL     1      35.635 -18.558 -21.037  0.00  0.00    +0.318 C 
ATOM     25  C   UNL     1      34.414 -19.376 -21.329  0.00  0.00    +0.121 C 
ENDBRANCH  22  24
ENDBRANCH  21  22
ENDBRANCH  15  21
ENDBRANCH  14  15
ENDBRANCH   1  14
TORSDOF 9
ENDMDL
MODEL 7
REMARK VINA RESULT:      -8.4      1.754      3.546
REMARK  Name = 3324
REMARK  9 active torsions:
REMARK  status: ('A' for Active; 'I' for Inactive)
REMARK    1  A    between atoms: C_1  and  N_2
REMARK    2  A    between atoms: C_1  and  C_14
REMARK    3  A    between atoms: C_14  and  C_15
REMARK    4  A    between atoms: C_15  and  C_16
REMARK    5  A    between atoms: C_15  and  C_21
REMARK    6  A    between atoms: C_16  and  O_17
REMARK    7  A    between atoms: O_17  and  C_19
REMARK    8  A    between atoms: C_21  and  O_22
REMARK    9  A    between atoms: O_22  and  C_24
REMARK                            x       y       z     vdW  Elec       q    Type
REMARK                         _______ _______ _______ _____ _____    ______ ____
ROOT
ATOM      1  C   UNL     1      33.956 -17.679 -21.487  0.00  0.00    +0.095 C 
ENDROOT
BRANCH   1   2
ATOM      2  N   UNL     1      35.000 -18.627 -21.115  0.00  0.00    -0.261 N 
ATOM      3  N   UNL     1      37.028 -19.488 -20.892  0.00  0.00    -0.246 NA
ATOM      4  N   UNL     1      33.669 -20.370 -20.077  0.00  0.00    -0.322 NA
ATOM      5  N   UNL     1      35.085 -22.197 -19.292  0.00  0.00    -0.191 NA
ATOM      6  N   UNL     1      32.758 -22.246 -19.017  0.00  0.00    -0.293 N 
ATOM      7  C   UNL     1      34.820 -19.815 -20.486  0.00  0.00    +0.213 C 
ATOM      8  C   UNL     1      36.331 -18.465 -21.342  0.00  0.00    +0.222 C 
ATOM      9  C   UNL     1      36.096 -20.339 -20.354  0.00  0.00    +0.126 C 
ATOM     10  C   UNL     1      36.207 -21.578 -19.731  0.00  0.00    +0.187 C 
ATOM     11  C   UNL     1      33.903 -21.564 -19.490  0.00  0.00    +0.139 C 
ATOM     12  H   UNL     1      31.866 -21.846 -19.126  0.00  0.00    +0.155 HD
ATOM     13  H   UNL     1      32.855 -23.122 -18.577  0.00  0.00    +0.155 HD
ENDBRANCH   1   2
BRANCH   1  14
ATOM     14  C   UNL     1      34.100 -16.305 -20.822  0.00  0.00    +0.029 C 
BRANCH  14  15
ATOM     15  C   UNL     1      34.102 -15.098 -21.792  0.00  0.00    +0.089 C 
BRANCH  15  16
ATOM     16  C   UNL     1      32.679 -14.525 -21.919  0.00  0.00    +0.212 C 
BRANCH  16  17
ATOM     17  O   UNL     1      32.432 -13.602 -20.865  0.00  0.00    -0.448 OA
BRANCH  17  19
ATOM     18  O   UNL     1      31.808 -11.987 -22.394  0.00  0.00    -0.250 OA
ATOM     19  C   UNL     1      31.936 -12.387 -21.244  0.00  0.00    +0.318 C 
ATOM     20  C   UNL     1      31.559 -11.590 -20.032  0.00  0.00    +0.121 C 
ENDBRANCH  17  19
ENDBRANCH  16  17
ENDBRANCH  15  16
BRANCH  15  21
ATOM     21  C   UNL     1      34.649 -15.448 -23.183  0.00  0.00    +0.212 C 
BRANCH  21  22
ATOM     22  O   UNL     1      33.609 -15.429 -24.152  0.00  0.00    -0.448 OA
BRANCH  22  24
ATOM     23  O   UNL     1      33.621 -15.587 -26.458  0.00  0.00    -0.250 OA
ATOM     24  C   UNL     1      33.899 -16.026 -25.349  0.00  0.00    +0.318 C 
ATOM     25  C   UNL     1      34.619 -17.318 -25.114  0.00  0.00    +0.121 C 
ENDBRANCH  22  24
ENDBRANCH  21  22
ENDBRANCH  15  21
ENDBRANCH  14  15
ENDBRANCH   1  14
TORSDOF 9
ENDMDL
MODEL 8
REMARK VINA RESULT:      -8.4      1.836      2.534
REMARK  Name = 3324
REMARK  9 active torsions:
REMARK  status: ('A' for Active; 'I' for Inactive)
REMARK    1  A    between atoms: C_1  and  N_2
REMARK    2  A    between atoms: C_1  and  C_14
REMARK    3  A    between atoms: C_14  and  C_15
REMARK    4  A    between atoms: C_15  and  C_16
REMARK    5  A    between atoms: C_15  and  C_21
REMARK    6  A    between atoms: C_16  and  O_17
REMARK    7  A    between atoms: O_17  and  C_19
REMARK    8  A    between atoms: C_21  and  O_22
REMARK    9  A    between atoms: O_22  and  C_24
REMARK                            x       y       z     vdW  Elec       q    Type
REMARK                         _______ _______ _______ _____ _____    ______ ____
ROOT
ATOM      1  C   UNL     1      33.997 -17.824 -21.418  0.00  0.00    +0.095 C 
ENDROOT
BRANCH   1   2
ATOM      2  N   UNL     1      35.033 -18.778 -21.040  0.00  0.00    -0.261 N 
ATOM      3  N   UNL     1      37.053 -19.655 -20.814  0.00  0.00    -0.246 NA
ATOM      4  N   UNL     1      33.688 -20.498 -19.982  0.00  0.00    -0.322 NA
ATOM      5  N   UNL     1      35.088 -22.331 -19.183  0.00  0.00    -0.191 NA
ATOM      6  N   UNL     1      32.763 -22.355 -18.900  0.00  0.00    -0.293 N 
ATOM      7  C   UNL     1      34.843 -19.958 -20.399  0.00  0.00    +0.213 C 
ATOM      8  C   UNL     1      36.365 -18.631 -21.272  0.00  0.00    +0.222 C 
ATOM      9  C   UNL     1      36.115 -20.493 -20.266  0.00  0.00    +0.126 C 
ATOM     10  C   UNL     1      36.215 -21.727 -19.631  0.00  0.00    +0.187 C 
ATOM     11  C   UNL     1      33.912 -21.688 -19.383  0.00  0.00    +0.139 C 
ATOM     12  H   UNL     1      31.874 -21.947 -19.011  0.00  0.00    +0.155 HD
ATOM     13  H   UNL     1      32.852 -23.228 -18.453  0.00  0.00    +0.155 HD
ENDBRANCH   1   2
BRANCH   1  14
ATOM     14  C   UNL     1      34.467 -16.364 -21.418  0.00  0.00    +0.029 C 
BRANCH  14  15
ATOM     15  C   UNL     1      33.569 -15.380 -22.206  0.00  0.00    +0.089 C 
BRANCH  15  16
ATOM     16  C   UNL     1      34.276 -14.948 -23.502  0.00  0.00    +0.212 C 
BRANCH  16  17
ATOM     17  O   UNL     1      35.010 -16.041 -24.042  0.00  0.00    -0.448 OA
BRANCH  17  19
ATOM     18  O   UNL     1      34.028 -16.025 -26.133  0.00  0.00    -0.250 OA
ATOM     19  C   UNL     1      34.479 -16.618 -25.162  0.00  0.00    +0.318 C 
ATOM     20  C   UNL     1      34.527 -18.110 -25.037  0.00  0.00    +0.121 C 
ENDBRANCH  17  19
ENDBRANCH  16  17
ENDBRANCH  15  16
BRANCH  15  21
ATOM     21  C   UNL     1      33.178 -14.140 -21.388  0.00  0.00    +0.212 C 
BRANCH  21  22
ATOM     22  O   UNL     1      31.976 -13.567 -21.884  0.00  0.00    -0.448 OA
BRANCH  22  24
ATOM     23  O   UNL     1      32.637 -11.668 -23.022  0.00  0.00    -0.250 OA
ATOM     24  C   UNL     1      32.012 -12.221 -22.127  0.00  0.00    +0.318 C 
ATOM     25  C   UNL     1      31.163 -11.499 -21.126  0.00  0.00    +0.121 C 
ENDBRANCH  22  24
ENDBRANCH  21  22
ENDBRANCH  15  21
ENDBRANCH  14  15
ENDBRANCH   1  14
TORSDOF 9
ENDMDL
MODEL 9
REMARK VINA RESULT:      -8.4      6.084      9.205
REMARK  Name = 3324
REMARK  9 active torsions:
REMARK  status: ('A' for Active; 'I' for Inactive)
REMARK    1  A    between atoms: C_1  and  N_2
REMARK    2  A    between atoms: C_1  and  C_14
REMARK    3  A    between atoms: C_14  and  C_15
REMARK    4  A    between atoms: C_15  and  C_16
REMARK    5  A    between atoms: C_15  and  C_21
REMARK    6  A    between atoms: C_16  and  O_17
REMARK    7  A    between atoms: O_17  and  C_19
REMARK    8  A    between atoms: C_21  and  O_22
REMARK    9  A    between atoms: O_22  and  C_24
REMARK                            x       y       z     vdW  Elec       q    Type
REMARK                         _______ _______ _______ _____ _____    ______ ____
ROOT
ATOM      1  C   UNL     1      34.326 -24.360 -15.181  0.00  0.00    +0.095 C 
ENDROOT
BRANCH   1   2
ATOM      2  N   UNL     1      35.639 -24.009 -14.654  0.00  0.00    -0.261 N 
ATOM      3  N   UNL     1      37.753 -23.351 -14.640  0.00  0.00    -0.246 NA
ATOM      4  N   UNL     1      35.281 -24.382 -12.284  0.00  0.00    -0.322 NA
ATOM      5  N   UNL     1      37.304 -23.891 -11.008  0.00  0.00    -0.191 NA
ATOM      6  N   UNL     1      35.341 -24.620  -9.957  0.00  0.00    -0.293 N 
ATOM      7  C   UNL     1      36.016 -24.036 -13.352  0.00  0.00    +0.213 C 
ATOM      8  C   UNL     1      36.703 -23.596 -15.395  0.00  0.00    +0.222 C 
ATOM      9  C   UNL     1      37.338 -23.621 -13.360  0.00  0.00    +0.126 C 
ATOM     10  C   UNL     1      37.985 -23.555 -12.130  0.00  0.00    +0.187 C 
ATOM     11  C   UNL     1      36.013 -24.278 -11.153  0.00  0.00    +0.139 C 
ATOM     12  H   UNL     1      34.401 -24.911  -9.986  0.00  0.00    +0.155 HD
ATOM     13  H   UNL     1      35.814 -24.568  -9.095  0.00  0.00    +0.155 HD
ENDBRANCH   1   2
BRANCH   1  14
ATOM     14  C   UNL     1      33.293 -23.232 -15.074  0.00  0.00    +0.029 C 
BRANCH  14  15
ATOM     15  C   UNL     1      32.521 -22.915 -16.378  0.00  0.00    +0.089 C 
BRANCH  15  16
ATOM     16  C   UNL     1      31.083 -23.455 -16.281  0.00  0.00    +0.212 C 
BRANCH  16  17
ATOM     17  O   UNL     1      30.186 -22.569 -16.940  0.00  0.00    -0.448 OA
BRANCH  17  19
ATOM     18  O   UNL     1      27.988 -21.866 -16.861  0.00  0.00    -0.250 OA
ATOM     19  C   UNL     1      28.881 -22.640 -16.541  0.00  0.00    +0.318 C 
ATOM     20  C   UNL     1      28.686 -23.820 -15.640  0.00  0.00    +0.121 C 
ENDBRANCH  17  19
ENDBRANCH  16  17
ENDBRANCH  15  16
BRANCH  15  21
ATOM     21  C   UNL     1      33.205 -23.479 -17.632  0.00  0.00    +0.212 C 
BRANCH  21  22
ATOM     22  O   UNL     1      32.926 -22.669 -18.766  0.00  0.00    -0.448 OA
BRANCH  22  24
ATOM     23  O   UNL     1      35.149 -22.484 -19.369  0.00  0.00    -0.250 OA
ATOM     24  C   UNL     1      34.004 -22.050 -19.336  0.00  0.00    +0.318 C 
ATOM     25  C   UNL     1      33.586 -20.740 -19.930  0.00  0.00    +0.121 C 
ENDBRANCH  22  24
ENDBRANCH  21  22
ENDBRANCH  15  21
ENDBRANCH  14  15
ENDBRANCH   1  14
TORSDOF 9
ENDMDL
