MODEL 1
REMARK VINA RESULT:      -7.9      0.000      0.000
REMARK  Name = 445062
REMARK  11 active torsions:
REMARK  status: ('A' for Active; 'I' for Inactive)
REMARK    1  A    between atoms: C_2  and  C_10
REMARK    2  A    between atoms: C_3  and  C_19
REMARK    3  A    between atoms: C_4  and  O_8
REMARK    4  A    between atoms: C_10  and  N_11
REMARK    5  A    between atoms: N_11  and  C_14
REMARK    6  A    between atoms: C_14  and  C_16
REMARK    7  A    between atoms: C_16  and  O_17
REMARK    8  A    between atoms: C_19  and  O_20
REMARK    9  A    between atoms: O_20  and  P_21
REMARK   10  A    between atoms: P_21  and  O_23
REMARK   11  A    between atoms: P_21  and  O_25
REMARK                            x       y       z     vdW  Elec       q    Type
REMARK                         _______ _______ _______ _____ _____    ______ ____
ROOT
ATOM      1  N   UNL     1      35.317 -23.155 -16.798  0.00  0.00    -0.245 NA
ATOM      2  C   UNL     1      32.823 -23.457 -15.572  0.00  0.00    -0.009 C 
ATOM      3  C   UNL     1      33.987 -23.751 -14.870  0.00  0.00    +0.024 C 
ATOM      4  C   UNL     1      32.906 -23.012 -16.887  0.00  0.00    +0.141 C 
ATOM      5  C   UNL     1      34.165 -22.880 -17.450  0.00  0.00    +0.092 C 
ATOM      6  C   UNL     1      35.198 -23.586 -15.522  0.00  0.00    +0.096 C 
ATOM      7  C   UNL     1      34.310 -22.406 -18.858  0.00  0.00    +0.055 C 
ENDROOT
BRANCH   4   8
ATOM      8  O   UNL     1      31.785 -22.718 -17.598  0.00  0.00    -0.505 OA
ATOM      9  H   UNL     1      30.958 -23.072 -17.338  0.00  0.00    +0.292 HD
ENDBRANCH   4   8
BRANCH   2  10
ATOM     10  C   UNL     1      31.488 -23.617 -14.920  0.00  0.00    -0.051 C 
BRANCH  10  11
ATOM     11  N   UNL     1      30.575 -24.433 -15.719  0.00  0.00    +0.394 N 
ATOM     12  H   UNL     1      30.718 -25.417 -15.490  0.00  0.00    -0.083 HD
ATOM     13  H   UNL     1      30.767 -24.268 -16.707  0.00  0.00    -0.083 HD
BRANCH  11  14
ATOM     14  C   UNL     1      29.191 -24.076 -15.445  0.00  0.00    +0.031 C 
BRANCH  14  16
ATOM     15  O   UNL     1      27.795 -24.262 -17.401  0.00  0.00    -0.253 OA
ATOM     16  C   UNL     1      28.559 -23.590 -16.720  0.00  0.00    +0.292 C 
BRANCH  16  17
ATOM     17  O   UNL     1      28.957 -22.339 -17.064  0.00  0.00    -0.482 OA
ATOM     18  H   UNL     1      28.653 -21.954 -17.862  0.00  0.00    +0.295 HD
ENDBRANCH  16  17
ENDBRANCH  14  16
ENDBRANCH  11  14
ENDBRANCH  10  11
ENDBRANCH   2  10
BRANCH   3  19
ATOM     19  C   UNL     1      33.958 -24.231 -13.460  0.00  0.00    +0.181 C 
BRANCH  19  20
ATOM     20  O   UNL     1      35.044 -23.657 -12.741  0.00  0.00    -0.268 OA
BRANCH  20  21
ATOM     21  P   UNL     1      35.889 -24.605 -11.742  0.00  0.00    +0.473 P 
ATOM     22  O   UNL     1      35.171 -25.010 -10.488  0.00  0.00    -0.227 OA
BRANCH  21  23
ATOM     23  O   UNL     1      37.270 -23.795 -11.518  0.00  0.00    -0.303 OA
ATOM     24  H   UNL     1      37.138 -22.862 -11.745  0.00  0.00    +0.222 HD
ENDBRANCH  21  23
BRANCH  21  25
ATOM     25  O   UNL     1      36.328 -25.831 -12.702  0.00  0.00    -0.303 OA
ATOM     26  H   UNL     1      35.558 -26.390 -12.886  0.00  0.00    +0.222 HD
ENDBRANCH  21  25
ENDBRANCH  20  21
ENDBRANCH  19  20
ENDBRANCH   3  19
TORSDOF 11
ENDMDL
MODEL 2
REMARK VINA RESULT:      -7.6      3.608      6.070
REMARK  Name = 445062
REMARK  11 active torsions:
REMARK  status: ('A' for Active; 'I' for Inactive)
REMARK    1  A    between atoms: C_2  and  C_10
REMARK    2  A    between atoms: C_3  and  C_19
REMARK    3  A    between atoms: C_4  and  O_8
REMARK    4  A    between atoms: C_10  and  N_11
REMARK    5  A    between atoms: N_11  and  C_14
REMARK    6  A    between atoms: C_14  and  C_16
REMARK    7  A    between atoms: C_16  and  O_17
REMARK    8  A    between atoms: C_19  and  O_20
REMARK    9  A    between atoms: O_20  and  P_21
REMARK   10  A    between atoms: P_21  and  O_23
REMARK   11  A    between atoms: P_21  and  O_25
REMARK                            x       y       z     vdW  Elec       q    Type
REMARK                         _______ _______ _______ _____ _____    ______ ____
ROOT
ATOM      1  N   UNL     1      33.679 -23.284 -16.575  0.00  0.00    -0.245 NA
ATOM      2  C   UNL     1      36.190 -23.410 -15.353  0.00  0.00    -0.009 C 
ATOM      3  C   UNL     1      35.083 -23.982 -14.736  0.00  0.00    +0.024 C 
ATOM      4  C   UNL     1      36.042 -22.775 -16.582  0.00  0.00    +0.141 C 
ATOM      5  C   UNL     1      34.777 -22.740 -17.146  0.00  0.00    +0.092 C 
ATOM      6  C   UNL     1      33.861 -23.892 -15.382  0.00  0.00    +0.096 C 
ATOM      7  C   UNL     1      34.563 -22.071 -18.464  0.00  0.00    +0.055 C 
ENDROOT
BRANCH   4   8
ATOM      8  O   UNL     1      37.106 -22.207 -17.208  0.00  0.00    -0.505 OA
ATOM      9  H   UNL     1      37.043 -21.335 -17.543  0.00  0.00    +0.292 HD
ENDBRANCH   4   8
BRANCH   2  10
ATOM     10  C   UNL     1      37.534 -23.476 -14.703  0.00  0.00    -0.051 C 
BRANCH  10  11
ATOM     11  N   UNL     1      38.419 -24.439 -15.357  0.00  0.00    +0.394 N 
ATOM     12  H   UNL     1      39.258 -23.957 -15.682  0.00  0.00    -0.083 HD
ATOM     13  H   UNL     1      37.923 -24.858 -16.144  0.00  0.00    -0.083 HD
BRANCH  11  14
ATOM     14  C   UNL     1      38.805 -25.494 -14.432  0.00  0.00    +0.031 C 
BRANCH  14  16
ATOM     15  O   UNL     1      40.998 -26.402 -14.008  0.00  0.00    -0.253 OA
ATOM     16  C   UNL     1      40.172 -25.991 -14.814  0.00  0.00    +0.292 C 
BRANCH  16  17
ATOM     17  O   UNL     1      40.417 -25.898 -16.146  0.00  0.00    -0.482 OA
ATOM     18  H   UNL     1      40.133 -26.579 -16.722  0.00  0.00    +0.295 HD
ENDBRANCH  16  17
ENDBRANCH  14  16
ENDBRANCH  11  14
ENDBRANCH  10  11
ENDBRANCH   2  10
BRANCH   3  19
ATOM     19  C   UNL     1      35.184 -24.674 -13.420  0.00  0.00    +0.181 C 
BRANCH  19  20
ATOM     20  O   UNL     1      35.298 -23.705 -12.383  0.00  0.00    -0.268 OA
BRANCH  20  21
ATOM     21  P   UNL     1      36.156 -24.088 -11.068  0.00  0.00    +0.473 P 
ATOM     22  O   UNL     1      35.343 -24.400  -9.846  0.00  0.00    -0.227 OA
BRANCH  21  23
ATOM     23  O   UNL     1      37.193 -22.856 -10.913  0.00  0.00    -0.303 OA
ATOM     24  H   UNL     1      36.940 -22.143 -11.519  0.00  0.00    +0.222 HD
ENDBRANCH  21  23
BRANCH  21  25
ATOM     25  O   UNL     1      37.092 -25.298 -11.593  0.00  0.00    -0.303 OA
ATOM     26  H   UNL     1      36.577 -25.874 -12.179  0.00  0.00    +0.222 HD
ENDBRANCH  21  25
ENDBRANCH  20  21
ENDBRANCH  19  20
ENDBRANCH   3  19
TORSDOF 11
ENDMDL
MODEL 3
REMARK VINA RESULT:      -7.5      3.241      5.718
REMARK  Name = 445062
REMARK  11 active torsions:
REMARK  status: ('A' for Active; 'I' for Inactive)
REMARK    1  A    between atoms: C_2  and  C_10
REMARK    2  A    between atoms: C_3  and  C_19
REMARK    3  A    between atoms: C_4  and  O_8
REMARK    4  A    between atoms: C_10  and  N_11
REMARK    5  A    between atoms: N_11  and  C_14
REMARK    6  A    between atoms: C_14  and  C_16
REMARK    7  A    between atoms: C_16  and  O_17
REMARK    8  A    between atoms: C_19  and  O_20
REMARK    9  A    between atoms: O_20  and  P_21
REMARK   10  A    between atoms: P_21  and  O_23
REMARK   11  A    between atoms: P_21  and  O_25
REMARK                            x       y       z     vdW  Elec       q    Type
REMARK                         _______ _______ _______ _____ _____    ______ ____
ROOT
ATOM      1  N   UNL     1      34.507 -22.774 -17.707  0.00  0.00    -0.245 NA
ATOM      2  C   UNL     1      35.734 -23.146 -15.223  0.00  0.00    -0.009 C 
ATOM      3  C   UNL     1      34.448 -23.628 -15.447  0.00  0.00    +0.024 C 
ATOM      4  C   UNL     1      36.406 -22.478 -16.241  0.00  0.00    +0.141 C 
ATOM      5  C   UNL     1      35.755 -22.319 -17.453  0.00  0.00    +0.092 C 
ATOM      6  C   UNL     1      33.885 -23.417 -16.694  0.00  0.00    +0.096 C 
ATOM      7  C   UNL     1      36.432 -21.610 -18.580  0.00  0.00    +0.055 C 
ENDROOT
BRANCH   4   8
ATOM      8  O   UNL     1      37.663 -21.997 -16.050  0.00  0.00    -0.505 OA
ATOM      9  H   UNL     1      37.946 -21.752 -15.192  0.00  0.00    +0.292 HD
ENDBRANCH   4   8
BRANCH   2  10
ATOM     10  C   UNL     1      36.393 -23.344 -13.896  0.00  0.00    -0.051 C 
BRANCH  10  11
ATOM     11  N   UNL     1      37.478 -24.322 -13.957  0.00  0.00    +0.394 N 
ATOM     12  H   UNL     1      38.272 -23.976 -13.418  0.00  0.00    -0.083 HD
ATOM     13  H   UNL     1      37.744 -24.457 -14.933  0.00  0.00    -0.083 HD
BRANCH  11  14
ATOM     14  C   UNL     1      37.051 -25.600 -13.409  0.00  0.00    +0.031 C 
BRANCH  14  16
ATOM     15  O   UNL     1      38.292 -27.191 -14.728  0.00  0.00    -0.253 OA
ATOM     16  C   UNL     1      37.222 -26.658 -14.464  0.00  0.00    +0.292 C 
BRANCH  16  17
ATOM     17  O   UNL     1      36.071 -26.933 -15.129  0.00  0.00    -0.482 OA
ATOM     18  H   UNL     1      35.798 -26.387 -15.839  0.00  0.00    +0.295 HD
ENDBRANCH  16  17
ENDBRANCH  14  16
ENDBRANCH  11  14
ENDBRANCH  10  11
ENDBRANCH   2  10
BRANCH   3  19
ATOM     19  C   UNL     1      33.682 -24.350 -14.393  0.00  0.00    +0.181 C 
BRANCH  19  20
ATOM     20  O   UNL     1      32.304 -24.384 -14.749  0.00  0.00    -0.268 OA
BRANCH  20  21
ATOM     21  P   UNL     1      31.242 -23.658 -13.771  0.00  0.00    +0.473 P 
ATOM     22  O   UNL     1      30.190 -22.843 -14.467  0.00  0.00    -0.227 OA
BRANCH  21  23
ATOM     23  O   UNL     1      32.171 -22.843 -12.729  0.00  0.00    -0.303 OA
ATOM     24  H   UNL     1      32.162 -21.900 -12.958  0.00  0.00    +0.222 HD
ENDBRANCH  21  23
BRANCH  21  25
ATOM     25  O   UNL     1      30.677 -24.886 -12.883  0.00  0.00    -0.303 OA
ATOM     26  H   UNL     1      30.067 -25.418 -13.418  0.00  0.00    +0.222 HD
ENDBRANCH  21  25
ENDBRANCH  20  21
ENDBRANCH  19  20
ENDBRANCH   3  19
TORSDOF 11
ENDMDL
MODEL 4
REMARK VINA RESULT:      -7.5      2.160      2.852
REMARK  Name = 445062
REMARK  11 active torsions:
REMARK  status: ('A' for Active; 'I' for Inactive)
REMARK    1  A    between atoms: C_2  and  C_10
REMARK    2  A    between atoms: C_3  and  C_19
REMARK    3  A    between atoms: C_4  and  O_8
REMARK    4  A    between atoms: C_10  and  N_11
REMARK    5  A    between atoms: N_11  and  C_14
REMARK    6  A    between atoms: C_14  and  C_16
REMARK    7  A    between atoms: C_16  and  O_17
REMARK    8  A    between atoms: C_19  and  O_20
REMARK    9  A    between atoms: O_20  and  P_21
REMARK   10  A    between atoms: P_21  and  O_23
REMARK   11  A    between atoms: P_21  and  O_25
REMARK                            x       y       z     vdW  Elec       q    Type
REMARK                         _______ _______ _______ _____ _____    ______ ____
ROOT
ATOM      1  N   UNL     1      36.011 -22.163 -17.744  0.00  0.00    -0.245 NA
ATOM      2  C   UNL     1      34.571 -23.588 -15.818  0.00  0.00    -0.009 C 
ATOM      3  C   UNL     1      35.921 -23.318 -15.622  0.00  0.00    +0.024 C 
ATOM      4  C   UNL     1      33.940 -23.146 -16.976  0.00  0.00    +0.141 C 
ATOM      5  C   UNL     1      34.698 -22.445 -17.900  0.00  0.00    +0.092 C 
ATOM      6  C   UNL     1      36.590 -22.609 -16.606  0.00  0.00    +0.096 C 
ATOM      7  C   UNL     1      34.070 -21.948 -19.161  0.00  0.00    +0.055 C 
ENDROOT
BRANCH   4   8
ATOM      8  O   UNL     1      32.622 -23.396 -17.194  0.00  0.00    -0.505 OA
ATOM      9  H   UNL     1      32.365 -24.114 -17.738  0.00  0.00    +0.292 HD
ENDBRANCH   4   8
BRANCH   2  10
ATOM     10  C   UNL     1      33.797 -24.349 -14.790  0.00  0.00    -0.051 C 
BRANCH  10  11
ATOM     11  N   UNL     1      32.576 -23.652 -14.388  0.00  0.00    +0.394 N 
ATOM     12  H   UNL     1      32.151 -23.219 -15.208  0.00  0.00    -0.083 HD
ATOM     13  H   UNL     1      32.817 -22.942 -13.696  0.00  0.00    -0.083 HD
BRANCH  11  14
ATOM     14  C   UNL     1      31.626 -24.580 -13.793  0.00  0.00    +0.031 C 
BRANCH  14  16
ATOM     15  O   UNL     1      30.372 -24.182 -15.812  0.00  0.00    -0.253 OA
ATOM     16  C   UNL     1      30.494 -24.793 -14.759  0.00  0.00    +0.292 C 
BRANCH  16  17
ATOM     17  O   UNL     1      29.591 -25.708 -14.322  0.00  0.00    -0.482 OA
ATOM     18  H   UNL     1      29.001 -25.489 -13.628  0.00  0.00    +0.295 HD
ENDBRANCH  16  17
ENDBRANCH  14  16
ENDBRANCH  11  14
ENDBRANCH  10  11
ENDBRANCH   2  10
BRANCH   3  19
ATOM     19  C   UNL     1      36.646 -23.767 -14.401  0.00  0.00    +0.181 C 
BRANCH  19  20
ATOM     20  O   UNL     1      37.618 -24.744 -14.760  0.00  0.00    -0.268 OA
BRANCH  20  21
ATOM     21  P   UNL     1      37.203 -26.304 -14.678  0.00  0.00    +0.473 P 
ATOM     22  O   UNL     1      36.294 -26.779 -15.774  0.00  0.00    -0.227 OA
BRANCH  21  23
ATOM     23  O   UNL     1      36.623 -26.470 -13.178  0.00  0.00    -0.303 OA
ATOM     24  H   UNL     1      35.819 -27.013 -13.201  0.00  0.00    +0.222 HD
ENDBRANCH  21  23
BRANCH  21  25
ATOM     25  O   UNL     1      38.636 -27.051 -14.607  0.00  0.00    -0.303 OA
ATOM     26  H   UNL     1      39.208 -26.720 -15.317  0.00  0.00    +0.222 HD
ENDBRANCH  21  25
ENDBRANCH  20  21
ENDBRANCH  19  20
ENDBRANCH   3  19
TORSDOF 11
ENDMDL
MODEL 5
REMARK VINA RESULT:      -7.4      3.183      6.417
REMARK  Name = 445062
REMARK  11 active torsions:
REMARK  status: ('A' for Active; 'I' for Inactive)
REMARK    1  A    between atoms: C_2  and  C_10
REMARK    2  A    between atoms: C_3  and  C_19
REMARK    3  A    between atoms: C_4  and  O_8
REMARK    4  A    between atoms: C_10  and  N_11
REMARK    5  A    between atoms: N_11  and  C_14
REMARK    6  A    between atoms: C_14  and  C_16
REMARK    7  A    between atoms: C_16  and  O_17
REMARK    8  A    between atoms: C_19  and  O_20
REMARK    9  A    between atoms: O_20  and  P_21
REMARK   10  A    between atoms: P_21  and  O_23
REMARK   11  A    between atoms: P_21  and  O_25
REMARK                            x       y       z     vdW  Elec       q    Type
REMARK                         _______ _______ _______ _____ _____    ______ ____
ROOT
ATOM      1  N   UNL     1      32.406 -24.849 -13.101  0.00  0.00    -0.245 NA
ATOM      2  C   UNL     1      32.297 -23.599 -15.600  0.00  0.00    -0.009 C 
ATOM      3  C   UNL     1      31.225 -24.367 -15.155  0.00  0.00    +0.024 C 
ATOM      4  C   UNL     1      33.422 -23.456 -14.795  0.00  0.00    +0.141 C 
ATOM      5  C   UNL     1      33.427 -24.096 -13.566  0.00  0.00    +0.092 C 
ATOM      6  C   UNL     1      31.329 -24.966 -13.910  0.00  0.00    +0.096 C 
ATOM      7  C   UNL     1      34.611 -23.975 -12.664  0.00  0.00    +0.055 C 
ENDROOT
BRANCH   4   8
ATOM      8  O   UNL     1      34.484 -22.712 -15.204  0.00  0.00    -0.505 OA
ATOM      9  H   UNL     1      34.350 -21.846 -15.535  0.00  0.00    +0.292 HD
ENDBRANCH   4   8
BRANCH   2  10
ATOM     10  C   UNL     1      32.241 -22.929 -16.934  0.00  0.00    -0.051 C 
BRANCH  10  11
ATOM     11  N   UNL     1      33.338 -23.344 -17.808  0.00  0.00    +0.394 N 
ATOM     12  H   UNL     1      33.085 -24.218 -18.271  0.00  0.00    -0.083 HD
ATOM     13  H   UNL     1      34.177 -23.473 -17.243  0.00  0.00    -0.083 HD
BRANCH  11  14
ATOM     14  C   UNL     1      33.605 -22.330 -18.817  0.00  0.00    +0.031 C 
BRANCH  14  16
ATOM     15  O   UNL     1      35.825 -22.360 -17.879  0.00  0.00    -0.253 OA
ATOM     16  C   UNL     1      35.037 -21.889 -18.688  0.00  0.00    +0.292 C 
BRANCH  16  17
ATOM     17  O   UNL     1      35.358 -20.879 -19.537  0.00  0.00    -0.482 OA
ATOM     18  H   UNL     1      35.053 -20.897 -20.422  0.00  0.00    +0.295 HD
ENDBRANCH  16  17
ENDBRANCH  14  16
ENDBRANCH  11  14
ENDBRANCH  10  11
ENDBRANCH   2  10
BRANCH   3  19
ATOM     19  C   UNL     1      29.995 -24.555 -15.975  0.00  0.00    +0.181 C 
BRANCH  19  20
ATOM     20  O   UNL     1      28.913 -23.853 -15.373  0.00  0.00    -0.268 OA
BRANCH  20  21
ATOM     21  P   UNL     1      27.929 -22.997 -16.327  0.00  0.00    +0.473 P 
ATOM     22  O   UNL     1      26.713 -22.436 -15.649  0.00  0.00    -0.227 OA
BRANCH  21  23
ATOM     23  O   UNL     1      27.632 -23.994 -17.566  0.00  0.00    -0.303 OA
ATOM     24  H   UNL     1      27.419 -23.472 -18.356  0.00  0.00    +0.222 HD
ENDBRANCH  21  23
BRANCH  21  25
ATOM     25  O   UNL     1      28.924 -21.894 -16.968  0.00  0.00    -0.303 OA
ATOM     26  H   UNL     1      29.824 -22.041 -16.639  0.00  0.00    +0.222 HD
ENDBRANCH  21  25
ENDBRANCH  20  21
ENDBRANCH  19  20
ENDBRANCH   3  19
TORSDOF 11
ENDMDL
MODEL 6
REMARK VINA RESULT:      -7.4      2.913      6.109
REMARK  Name = 445062
REMARK  11 active torsions:
REMARK  status: ('A' for Active; 'I' for Inactive)
REMARK    1  A    between atoms: C_2  and  C_10
REMARK    2  A    between atoms: C_3  and  C_19
REMARK    3  A    between atoms: C_4  and  O_8
REMARK    4  A    between atoms: C_10  and  N_11
REMARK    5  A    between atoms: N_11  and  C_14
REMARK    6  A    between atoms: C_14  and  C_16
REMARK    7  A    between atoms: C_16  and  O_17
REMARK    8  A    between atoms: C_19  and  O_20
REMARK    9  A    between atoms: O_20  and  P_21
REMARK   10  A    between atoms: P_21  and  O_23
REMARK   11  A    between atoms: P_21  and  O_25
REMARK                            x       y       z     vdW  Elec       q    Type
REMARK                         _______ _______ _______ _____ _____    ______ ____
ROOT
ATOM      1  N   UNL     1      34.443 -22.729 -17.945  0.00  0.00    -0.245 NA
ATOM      2  C   UNL     1      35.687 -23.002 -15.457  0.00  0.00    -0.009 C 
ATOM      3  C   UNL     1      34.417 -23.530 -15.664  0.00  0.00    +0.024 C 
ATOM      4  C   UNL     1      36.335 -22.339 -16.492  0.00  0.00    +0.141 C 
ATOM      5  C   UNL     1      35.676 -22.229 -17.706  0.00  0.00    +0.092 C 
ATOM      6  C   UNL     1      33.844 -23.367 -16.915  0.00  0.00    +0.096 C 
ATOM      7  C   UNL     1      36.328 -21.526 -18.851  0.00  0.00    +0.055 C 
ENDROOT
BRANCH   4   8
ATOM      8  O   UNL     1      37.576 -21.813 -16.318  0.00  0.00    -0.505 OA
ATOM      9  H   UNL     1      38.107 -21.604 -17.061  0.00  0.00    +0.292 HD
ENDBRANCH   4   8
BRANCH   2  10
ATOM     10  C   UNL     1      36.355 -23.148 -14.128  0.00  0.00    -0.051 C 
BRANCH  10  11
ATOM     11  N   UNL     1      37.584 -23.936 -14.209  0.00  0.00    +0.394 N 
ATOM     12  H   UNL     1      38.386 -23.306 -14.233  0.00  0.00    -0.083 HD
ATOM     13  H   UNL     1      37.554 -24.504 -15.056  0.00  0.00    -0.083 HD
BRANCH  11  14
ATOM     14  C   UNL     1      37.706 -24.819 -13.059  0.00  0.00    +0.031 C 
BRANCH  14  16
ATOM     15  O   UNL     1      38.831 -23.168 -11.709  0.00  0.00    -0.253 OA
ATOM     16  C   UNL     1      37.922 -23.979 -11.830  0.00  0.00    +0.292 C 
BRANCH  16  17
ATOM     17  O   UNL     1      37.026 -24.244 -10.845  0.00  0.00    -0.482 OA
ATOM     18  H   UNL     1      36.190 -24.609 -11.058  0.00  0.00    +0.295 HD
ENDBRANCH  16  17
ENDBRANCH  14  16
ENDBRANCH  11  14
ENDBRANCH  10  11
ENDBRANCH   2  10
BRANCH   3  19
ATOM     19  C   UNL     1      33.676 -24.250 -14.591  0.00  0.00    +0.181 C 
BRANCH  19  20
ATOM     20  O   UNL     1      32.287 -24.263 -14.901  0.00  0.00    -0.268 OA
BRANCH  20  21
ATOM     21  P   UNL     1      31.253 -23.657 -13.816  0.00  0.00    +0.473 P 
ATOM     22  O   UNL     1      30.118 -22.862 -14.393  0.00  0.00    -0.227 OA
BRANCH  21  23
ATOM     23  O   UNL     1      32.205 -22.856 -12.783  0.00  0.00    -0.303 OA
ATOM     24  H   UNL     1      32.182 -23.293 -11.918  0.00  0.00    +0.222 HD
ENDBRANCH  21  23
BRANCH  21  25
ATOM     25  O   UNL     1      30.812 -24.967 -12.975  0.00  0.00    -0.303 OA
ATOM     26  H   UNL     1      31.157 -25.762 -13.410  0.00  0.00    +0.222 HD
ENDBRANCH  21  25
ENDBRANCH  20  21
ENDBRANCH  19  20
ENDBRANCH   3  19
TORSDOF 11
ENDMDL
MODEL 7
REMARK VINA RESULT:      -7.4      2.187      2.767
REMARK  Name = 445062
REMARK  11 active torsions:
REMARK  status: ('A' for Active; 'I' for Inactive)
REMARK    1  A    between atoms: C_2  and  C_10
REMARK    2  A    between atoms: C_3  and  C_19
REMARK    3  A    between atoms: C_4  and  O_8
REMARK    4  A    between atoms: C_10  and  N_11
REMARK    5  A    between atoms: N_11  and  C_14
REMARK    6  A    between atoms: C_14  and  C_16
REMARK    7  A    between atoms: C_16  and  O_17
REMARK    8  A    between atoms: C_19  and  O_20
REMARK    9  A    between atoms: O_20  and  P_21
REMARK   10  A    between atoms: P_21  and  O_23
REMARK   11  A    between atoms: P_21  and  O_25
REMARK                            x       y       z     vdW  Elec       q    Type
REMARK                         _______ _______ _______ _____ _____    ______ ____
ROOT
ATOM      1  N   UNL     1      36.436 -21.267 -18.557  0.00  0.00    -0.245 NA
ATOM      2  C   UNL     1      34.220 -22.754 -17.724  0.00  0.00    -0.009 C 
ATOM      3  C   UNL     1      35.346 -22.664 -16.913  0.00  0.00    +0.024 C 
ATOM      4  C   UNL     1      34.201 -22.101 -18.952  0.00  0.00    +0.141 C 
ATOM      5  C   UNL     1      35.325 -21.377 -19.319  0.00  0.00    +0.092 C 
ATOM      6  C   UNL     1      36.418 -21.916 -17.371  0.00  0.00    +0.096 C 
ATOM      7  C   UNL     1      35.357 -20.657 -20.627  0.00  0.00    +0.055 C 
ENDROOT
BRANCH   4   8
ATOM      8  O   UNL     1      33.115 -22.171 -19.765  0.00  0.00    -0.505 OA
ATOM      9  H   UNL     1      32.346 -21.676 -19.565  0.00  0.00    +0.292 HD
ENDBRANCH   4   8
BRANCH   2  10
ATOM     10  C   UNL     1      33.033 -23.548 -17.282  0.00  0.00    -0.051 C 
BRANCH  10  11
ATOM     11  N   UNL     1      31.835 -22.721 -17.142  0.00  0.00    +0.394 N 
ATOM     12  H   UNL     1      31.191 -22.933 -17.905  0.00  0.00    -0.083 HD
ATOM     13  H   UNL     1      32.109 -21.739 -17.172  0.00  0.00    -0.083 HD
BRANCH  11  14
ATOM     14  C   UNL     1      31.173 -22.984 -15.873  0.00  0.00    +0.031 C 
BRANCH  14  16
ATOM     15  O   UNL     1      28.953 -23.847 -15.504  0.00  0.00    -0.253 OA
ATOM     16  C   UNL     1      29.693 -23.087 -16.116  0.00  0.00    +0.292 C 
BRANCH  16  17
ATOM     17  O   UNL     1      29.263 -22.279 -17.118  0.00  0.00    -0.482 OA
ATOM     18  H   UNL     1      28.914 -22.652 -17.903  0.00  0.00    +0.295 HD
ENDBRANCH  16  17
ENDBRANCH  14  16
ENDBRANCH  11  14
ENDBRANCH  10  11
ENDBRANCH   2  10
BRANCH   3  19
ATOM     19  C   UNL     1      35.421 -23.344 -15.589  0.00  0.00    +0.181 C 
BRANCH  19  20
ATOM     20  O   UNL     1      35.882 -24.678 -15.767  0.00  0.00    -0.268 OA
BRANCH  20  21
ATOM     21  P   UNL     1      37.156 -25.170 -14.902  0.00  0.00    +0.473 P 
ATOM     22  O   UNL     1      36.896 -25.355 -13.435  0.00  0.00    -0.227 OA
BRANCH  21  23
ATOM     23  O   UNL     1      38.310 -24.099 -15.270  0.00  0.00    -0.303 OA
ATOM     24  H   UNL     1      38.869 -24.457 -15.977  0.00  0.00    +0.222 HD
ENDBRANCH  21  23
BRANCH  21  25
ATOM     25  O   UNL     1      37.625 -26.505 -15.686  0.00  0.00    -0.303 OA
ATOM     26  H   UNL     1      36.961 -27.202 -15.564  0.00  0.00    +0.222 HD
ENDBRANCH  21  25
ENDBRANCH  20  21
ENDBRANCH  19  20
ENDBRANCH   3  19
TORSDOF 11
ENDMDL
MODEL 8
REMARK VINA RESULT:      -7.3      2.935      5.244
REMARK  Name = 445062
REMARK  11 active torsions:
REMARK  status: ('A' for Active; 'I' for Inactive)
REMARK    1  A    between atoms: C_2  and  C_10
REMARK    2  A    between atoms: C_3  and  C_19
REMARK    3  A    between atoms: C_4  and  O_8
REMARK    4  A    between atoms: C_10  and  N_11
REMARK    5  A    between atoms: N_11  and  C_14
REMARK    6  A    between atoms: C_14  and  C_16
REMARK    7  A    between atoms: C_16  and  O_17
REMARK    8  A    between atoms: C_19  and  O_20
REMARK    9  A    between atoms: O_20  and  P_21
REMARK   10  A    between atoms: P_21  and  O_23
REMARK   11  A    between atoms: P_21  and  O_25
REMARK                            x       y       z     vdW  Elec       q    Type
REMARK                         _______ _______ _______ _____ _____    ______ ____
ROOT
ATOM      1  N   UNL     1      37.185 -24.458 -14.639  0.00  0.00    -0.245 NA
ATOM      2  C   UNL     1      34.485 -24.084 -14.019  0.00  0.00    -0.009 C 
ATOM      3  C   UNL     1      34.969 -23.734 -15.275  0.00  0.00    +0.024 C 
ATOM      4  C   UNL     1      35.352 -24.621 -13.072  0.00  0.00    +0.141 C 
ATOM      5  C   UNL     1      36.680 -24.786 -13.429  0.00  0.00    +0.092 C 
ATOM      6  C   UNL     1      36.314 -23.939 -15.533  0.00  0.00    +0.096 C 
ATOM      7  C   UNL     1      37.652 -25.358 -12.450  0.00  0.00    +0.055 C 
ENDROOT
BRANCH   4   8
ATOM      8  O   UNL     1      34.907 -24.971 -11.837  0.00  0.00    -0.505 OA
ATOM      9  H   UNL     1      34.780 -24.315 -11.180  0.00  0.00    +0.292 HD
ENDBRANCH   4   8
BRANCH   2  10
ATOM     10  C   UNL     1      33.043 -23.885 -13.684  0.00  0.00    -0.051 C 
BRANCH  10  11
ATOM     11  N   UNL     1      32.287 -25.136 -13.726  0.00  0.00    +0.394 N 
ATOM     12  H   UNL     1      32.679 -25.788 -13.046  0.00  0.00    -0.083 HD
ATOM     13  H   UNL     1      32.349 -25.525 -14.667  0.00  0.00    -0.083 HD
BRANCH  11  14
ATOM     14  C   UNL     1      30.886 -24.903 -13.408  0.00  0.00    +0.031 C 
BRANCH  14  16
ATOM     15  O   UNL     1      30.401 -24.763 -15.765  0.00  0.00    -0.253 OA
ATOM     16  C   UNL     1      30.067 -25.135 -14.648  0.00  0.00    +0.292 C 
BRANCH  16  17
ATOM     17  O   UNL     1      28.892 -25.766 -14.395  0.00  0.00    -0.482 OA
ATOM     18  H   UNL     1      28.889 -26.584 -13.939  0.00  0.00    +0.295 HD
ENDBRANCH  16  17
ENDBRANCH  14  16
ENDBRANCH  11  14
ENDBRANCH  10  11
ENDBRANCH   2  10
BRANCH   3  19
ATOM     19  C   UNL     1      34.087 -23.155 -16.327  0.00  0.00    +0.181 C 
BRANCH  19  20
ATOM     20  O   UNL     1      34.851 -22.904 -17.501  0.00  0.00    -0.268 OA
BRANCH  20  21
ATOM     21  P   UNL     1      34.068 -22.478 -18.849  0.00  0.00    +0.473 P 
ATOM     22  O   UNL     1      34.634 -21.287 -19.565  0.00  0.00    -0.227 OA
BRANCH  21  23
ATOM     23  O   UNL     1      32.530 -22.331 -18.371  0.00  0.00    -0.303 OA
ATOM     24  H   UNL     1      32.504 -21.943 -17.482  0.00  0.00    +0.222 HD
ENDBRANCH  21  23
BRANCH  21  25
ATOM     25  O   UNL     1      34.061 -23.850 -19.706  0.00  0.00    -0.303 OA
ATOM     26  H   UNL     1      33.147 -24.158 -19.817  0.00  0.00    +0.222 HD
ENDBRANCH  21  25
ENDBRANCH  20  21
ENDBRANCH  19  20
ENDBRANCH   3  19
TORSDOF 11
ENDMDL
MODEL 9
REMARK VINA RESULT:      -7.2      2.189      4.354
REMARK  Name = 445062
REMARK  11 active torsions:
REMARK  status: ('A' for Active; 'I' for Inactive)
REMARK    1  A    between atoms: C_2  and  C_10
REMARK    2  A    between atoms: C_3  and  C_19
REMARK    3  A    between atoms: C_4  and  O_8
REMARK    4  A    between atoms: C_10  and  N_11
REMARK    5  A    between atoms: N_11  and  C_14
REMARK    6  A    between atoms: C_14  and  C_16
REMARK    7  A    between atoms: C_16  and  O_17
REMARK    8  A    between atoms: C_19  and  O_20
REMARK    9  A    between atoms: O_20  and  P_21
REMARK   10  A    between atoms: P_21  and  O_23
REMARK   11  A    between atoms: P_21  and  O_25
REMARK                            x       y       z     vdW  Elec       q    Type
REMARK                         _______ _______ _______ _____ _____    ______ ____
ROOT
ATOM      1  N   UNL     1      31.187 -24.335 -14.075  0.00  0.00    -0.245 NA
ATOM      2  C   UNL     1      33.049 -23.451 -15.963  0.00  0.00    -0.009 C 
ATOM      3  C   UNL     1      33.476 -24.127 -14.825  0.00  0.00    +0.024 C 
ATOM      4  C   UNL     1      31.692 -23.217 -16.158  0.00  0.00    +0.141 C 
ATOM      5  C   UNL     1      30.810 -23.675 -15.192  0.00  0.00    +0.092 C 
ATOM      6  C   UNL     1      32.514 -24.544 -13.919  0.00  0.00    +0.096 C 
ATOM      7  C   UNL     1      29.342 -23.450 -15.353  0.00  0.00    +0.055 C 
ENDROOT
BRANCH   4   8
ATOM      8  O   UNL     1      31.247 -22.559 -17.260  0.00  0.00    -0.505 OA
ATOM      9  H   UNL     1      31.363 -21.632 -17.332  0.00  0.00    +0.292 HD
ENDBRANCH   4   8
BRANCH   2  10
ATOM     10  C   UNL     1      34.042 -22.978 -16.975  0.00  0.00    -0.051 C 
BRANCH  10  11
ATOM     11  N   UNL     1      33.560 -23.146 -18.345  0.00  0.00    +0.394 N 
ATOM     12  H   UNL     1      32.594 -22.822 -18.403  0.00  0.00    -0.083 HD
ATOM     13  H   UNL     1      33.618 -24.134 -18.594  0.00  0.00    -0.083 HD
BRANCH  11  14
ATOM     14  C   UNL     1      34.375 -22.380 -19.276  0.00  0.00    +0.031 C 
BRANCH  14  16
ATOM     15  O   UNL     1      32.456 -20.923 -19.345  0.00  0.00    -0.253 OA
ATOM     16  C   UNL     1      33.600 -21.166 -19.707  0.00  0.00    +0.292 C 
BRANCH  16  17
ATOM     17  O   UNL     1      34.285 -20.382 -20.578  0.00  0.00    -0.482 OA
ATOM     18  H   UNL     1      34.239 -19.449 -20.504  0.00  0.00    +0.295 HD
ENDBRANCH  16  17
ENDBRANCH  14  16
ENDBRANCH  11  14
ENDBRANCH  10  11
ENDBRANCH   2  10
BRANCH   3  19
ATOM     19  C   UNL     1      34.916 -24.405 -14.565  0.00  0.00    +0.181 C 
BRANCH  19  20
ATOM     20  O   UNL     1      35.284 -25.629 -15.192  0.00  0.00    -0.268 OA
BRANCH  20  21
ATOM     21  P   UNL     1      36.803 -26.152 -15.020  0.00  0.00    +0.473 P 
ATOM     22  O   UNL     1      37.848 -25.075 -14.994  0.00  0.00    -0.227 OA
BRANCH  21  23
ATOM     23  O   UNL     1      36.969 -27.249 -16.197  0.00  0.00    -0.303 OA
ATOM     24  H   UNL     1      36.599 -26.896 -17.021  0.00  0.00    +0.222 HD
ENDBRANCH  21  23
BRANCH  21  25
ATOM     25  O   UNL     1      36.719 -27.054 -13.680  0.00  0.00    -0.303 OA
ATOM     26  H   UNL     1      37.592 -27.087 -13.258  0.00  0.00    +0.222 HD
ENDBRANCH  21  25
ENDBRANCH  20  21
ENDBRANCH  19  20
ENDBRANCH   3  19
TORSDOF 11
ENDMDL
