MODEL 1
REMARK VINA RESULT:      -8.4      0.000      0.000
REMARK  Name = 5749
REMARK  10 active torsions:
REMARK  status: ('A' for Active; 'I' for Inactive)
REMARK    1  A    between atoms: C_1  and  C_2
REMARK    2  A    between atoms: C_1  and  C_8
REMARK    3  A    between atoms: C_1  and  O_14
REMARK    4  A    between atoms: C_1  and  C_17
REMARK    5  A    between atoms: C_17  and  O_18
REMARK    6  A    between atoms: O_18  and  C_19
REMARK    7  A    between atoms: C_19  and  C_20
REMARK    8  A    between atoms: C_20  and  N_21
REMARK    9  A    between atoms: N_21  and  C_23
REMARK   10  A    between atoms: N_21  and  C_25
REMARK                            x       y       z     vdW  Elec       q    Type
REMARK                         _______ _______ _______ _____ _____    ______ ____
ROOT
ATOM      1  C   UNL     1      34.956 -18.226 -22.061  0.00  0.00    +0.196 C 
ENDROOT
BRANCH   1   2
ATOM      2  C   UNL     1      34.679 -19.623 -21.512  0.00  0.00    +0.039 C 
ATOM      3  C   UNL     1      35.834 -20.093 -20.618  0.00  0.00    +0.003 C 
ATOM      4  C   UNL     1      33.349 -19.651 -20.746  0.00  0.00    +0.003 C 
ATOM      5  C   UNL     1      35.557 -21.467 -20.013  0.00  0.00    +0.000 C 
ATOM      6  C   UNL     1      33.076 -21.026 -20.140  0.00  0.00    +0.000 C 
ATOM      7  C   UNL     1      34.230 -21.493 -19.260  0.00  0.00    +0.000 C 
ENDBRANCH   1   2
BRANCH   1   8
ATOM      8  C   UNL     1      34.217 -17.071 -21.389  0.00  0.00    +0.012 C 
ATOM      9  C   UNL     1      34.934 -15.991 -20.873  0.00  0.00    -0.002 C 
ATOM     10  C   UNL     1      32.827 -17.097 -21.289  0.00  0.00    -0.002 C 
ATOM     11  C   UNL     1      34.259 -14.936 -20.258  0.00  0.00    -0.000 C 
ATOM     12  C   UNL     1      32.152 -16.043 -20.674  0.00  0.00    -0.000 C 
ATOM     13  C   UNL     1      32.868 -14.962 -20.160  0.00  0.00    -0.000 C 
ENDBRANCH   1   8
BRANCH   1  14
ATOM     14  O   UNL     1      36.356 -17.980 -21.874  0.00  0.00    -0.373 OA
ATOM     15  H   UNL     1      36.565 -17.073 -22.150  0.00  0.00    +0.211 HD
ENDBRANCH   1  14
BRANCH   1  17
ATOM     16  O   UNL     1      34.149 -19.132 -24.178  0.00  0.00    -0.247 OA
ATOM     17  C   UNL     1      34.703 -18.225 -23.571  0.00  0.00    +0.345 C 
BRANCH  17  18
ATOM     18  O   UNL     1      35.189 -17.077 -24.131  0.00  0.00    -0.449 OA
BRANCH  18  19
ATOM     19  C   UNL     1      34.205 -16.180 -24.655  0.00  0.00    +0.187 C 
BRANCH  19  20
ATOM     20  C   UNL     1      34.493 -14.773 -24.172  0.00  0.00    -0.025 C 
BRANCH  20  21
ATOM     21  N   UNL     1      33.393 -13.873 -24.601  0.00  0.00    +0.391 N 
ATOM     22  C   UNL     1      33.902 -12.435 -24.776  0.00  0.00    -0.096 C 
BRANCH  21  23
ATOM     23  C   UNL     1      32.800 -14.336 -25.939  0.00  0.00    -0.073 C 
ATOM     24  C   UNL     1      33.222 -13.375 -27.028  0.00  0.00    -0.024 C 
ENDBRANCH  21  23
BRANCH  21  25
ATOM     25  C   UNL     1      32.266 -13.856 -23.558  0.00  0.00    -0.073 C 
ATOM     26  C   UNL     1      32.325 -12.559 -22.781  0.00  0.00    -0.024 C 
ENDBRANCH  21  25
ENDBRANCH  20  21
ENDBRANCH  19  20
ENDBRANCH  18  19
ENDBRANCH  17  18
ENDBRANCH   1  17
TORSDOF 10
ENDMDL
MODEL 2
REMARK VINA RESULT:      -8.3      0.292      1.738
REMARK  Name = 5749
REMARK  10 active torsions:
REMARK  status: ('A' for Active; 'I' for Inactive)
REMARK    1  A    between atoms: C_1  and  C_2
REMARK    2  A    between atoms: C_1  and  C_8
REMARK    3  A    between atoms: C_1  and  O_14
REMARK    4  A    between atoms: C_1  and  C_17
REMARK    5  A    between atoms: C_17  and  O_18
REMARK    6  A    between atoms: O_18  and  C_19
REMARK    7  A    between atoms: C_19  and  C_20
REMARK    8  A    between atoms: C_20  and  N_21
REMARK    9  A    between atoms: N_21  and  C_23
REMARK   10  A    between atoms: N_21  and  C_25
REMARK                            x       y       z     vdW  Elec       q    Type
REMARK                         _______ _______ _______ _____ _____    ______ ____
ROOT
ATOM      1  C   UNL     1      34.954 -18.204 -22.092  0.00  0.00    +0.196 C 
ENDROOT
BRANCH   1   2
ATOM      2  C   UNL     1      34.679 -19.599 -21.537  0.00  0.00    +0.039 C 
ATOM      3  C   UNL     1      35.834 -20.064 -20.640  0.00  0.00    +0.003 C 
ATOM      4  C   UNL     1      33.349 -19.626 -20.772  0.00  0.00    +0.003 C 
ATOM      5  C   UNL     1      35.558 -21.436 -20.030  0.00  0.00    +0.000 C 
ATOM      6  C   UNL     1      33.077 -20.999 -20.161  0.00  0.00    +0.000 C 
ATOM      7  C   UNL     1      34.232 -21.461 -19.278  0.00  0.00    +0.000 C 
ENDBRANCH   1   2
BRANCH   1   8
ATOM      8  C   UNL     1      34.218 -17.047 -21.421  0.00  0.00    +0.012 C 
ATOM      9  C   UNL     1      32.826 -17.062 -21.338  0.00  0.00    -0.002 C 
ATOM     10  C   UNL     1      34.937 -15.976 -20.893  0.00  0.00    -0.002 C 
ATOM     11  C   UNL     1      32.152 -16.004 -20.726  0.00  0.00    -0.000 C 
ATOM     12  C   UNL     1      34.264 -14.918 -20.281  0.00  0.00    -0.000 C 
ATOM     13  C   UNL     1      32.872 -14.933 -20.197  0.00  0.00    -0.000 C 
ENDBRANCH   1   8
BRANCH   1  14
ATOM     14  O   UNL     1      36.355 -17.957 -21.910  0.00  0.00    -0.373 OA
ATOM     15  H   UNL     1      36.644 -18.342 -21.068  0.00  0.00    +0.211 HD
ENDBRANCH   1  14
BRANCH   1  17
ATOM     16  O   UNL     1      34.155 -19.125 -24.206  0.00  0.00    -0.247 OA
ATOM     17  C   UNL     1      34.697 -18.208 -23.601  0.00  0.00    +0.345 C 
BRANCH  17  18
ATOM     18  O   UNL     1      35.163 -17.053 -24.163  0.00  0.00    -0.449 OA
BRANCH  18  19
ATOM     19  C   UNL     1      34.161 -16.153 -24.646  0.00  0.00    +0.187 C 
BRANCH  19  20
ATOM     20  C   UNL     1      34.469 -14.748 -24.168  0.00  0.00    -0.025 C 
BRANCH  20  21
ATOM     21  N   UNL     1      33.400 -13.827 -24.629  0.00  0.00    +0.391 N 
ATOM     22  C   UNL     1      32.282 -13.723 -23.583  0.00  0.00    -0.096 C 
BRANCH  21  23
ATOM     23  C   UNL     1      33.960 -12.419 -24.872  0.00  0.00    -0.073 C 
ATOM     24  C   UNL     1      33.450 -11.488 -23.795  0.00  0.00    -0.024 C 
ENDBRANCH  21  23
BRANCH  21  25
ATOM     25  C   UNL     1      32.780 -14.328 -25.941  0.00  0.00    -0.073 C 
ATOM     26  C   UNL     1      33.221 -13.430 -27.076  0.00  0.00    -0.024 C 
ENDBRANCH  21  25
ENDBRANCH  20  21
ENDBRANCH  19  20
ENDBRANCH  18  19
ENDBRANCH  17  18
ENDBRANCH   1  17
TORSDOF 10
ENDMDL
MODEL 3
REMARK VINA RESULT:      -8.2      5.014      9.584
REMARK  Name = 5749
REMARK  10 active torsions:
REMARK  status: ('A' for Active; 'I' for Inactive)
REMARK    1  A    between atoms: C_1  and  C_2
REMARK    2  A    between atoms: C_1  and  C_8
REMARK    3  A    between atoms: C_1  and  O_14
REMARK    4  A    between atoms: C_1  and  C_17
REMARK    5  A    between atoms: C_17  and  O_18
REMARK    6  A    between atoms: O_18  and  C_19
REMARK    7  A    between atoms: C_19  and  C_20
REMARK    8  A    between atoms: C_20  and  N_21
REMARK    9  A    between atoms: N_21  and  C_23
REMARK   10  A    between atoms: N_21  and  C_25
REMARK                            x       y       z     vdW  Elec       q    Type
REMARK                         _______ _______ _______ _____ _____    ______ ____
ROOT
ATOM      1  C   UNL     1      32.337  -8.533 -23.033  0.00  0.00    +0.196 C 
ENDROOT
BRANCH   1   2
ATOM      2  C   UNL     1      32.287  -7.007 -23.060  0.00  0.00    +0.039 C 
ATOM      3  C   UNL     1      32.390  -6.486 -24.499  0.00  0.00    +0.003 C 
ATOM      4  C   UNL     1      31.008  -6.494 -22.383  0.00  0.00    +0.003 C 
ATOM      5  C   UNL     1      32.289  -4.964 -24.557  0.00  0.00    +0.000 C 
ATOM      6  C   UNL     1      30.909  -4.972 -22.445  0.00  0.00    +0.000 C 
ATOM      7  C   UNL     1      31.021  -4.458 -23.876  0.00  0.00    +0.000 C 
ENDBRANCH   1   2
BRANCH   1   8
ATOM      8  C   UNL     1      32.005  -9.202 -21.702  0.00  0.00    +0.012 C 
ATOM      9  C   UNL     1      31.217 -10.352 -21.677  0.00  0.00    -0.002 C 
ATOM     10  C   UNL     1      32.488  -8.662 -20.511  0.00  0.00    -0.002 C 
ATOM     11  C   UNL     1      30.912 -10.963 -20.461  0.00  0.00    -0.000 C 
ATOM     12  C   UNL     1      32.184  -9.272 -19.294  0.00  0.00    -0.000 C 
ATOM     13  C   UNL     1      31.396 -10.424 -19.269  0.00  0.00    -0.000 C 
ENDBRANCH   1   8
BRANCH   1  14
ATOM     14  O   UNL     1      31.362  -8.994 -23.977  0.00  0.00    -0.373 OA
ATOM     15  H   UNL     1      31.608  -9.878 -24.292  0.00  0.00    +0.211 HD
ENDBRANCH   1  14
BRANCH   1  17
ATOM     16  O   UNL     1      34.766  -8.453 -23.265  0.00  0.00    -0.247 OA
ATOM     17  C   UNL     1      33.704  -8.995 -23.545  0.00  0.00    +0.345 C 
BRANCH  17  18
ATOM     18  O   UNL     1      33.560 -10.085 -24.357  0.00  0.00    -0.449 OA
BRANCH  18  19
ATOM     19  C   UNL     1      33.998 -11.330 -23.803  0.00  0.00    +0.187 C 
BRANCH  19  20
ATOM     20  C   UNL     1      33.898 -12.416 -24.855  0.00  0.00    -0.025 C 
BRANCH  20  21
ATOM     21  N   UNL     1      33.378 -13.658 -24.229  0.00  0.00    +0.391 N 
ATOM     22  C   UNL     1      34.491 -14.390 -23.467  0.00  0.00    -0.096 C 
BRANCH  21  23
ATOM     23  C   UNL     1      32.251 -13.339 -23.238  0.00  0.00    -0.073 C 
ATOM     24  C   UNL     1      32.448 -14.156 -21.980  0.00  0.00    -0.024 C 
ENDBRANCH  21  23
BRANCH  21  25
ATOM     25  C   UNL     1      32.822 -14.613 -25.295  0.00  0.00    -0.073 C 
ATOM     26  C   UNL     1      33.163 -14.079 -26.669  0.00  0.00    -0.024 C 
ENDBRANCH  21  25
ENDBRANCH  20  21
ENDBRANCH  19  20
ENDBRANCH  18  19
ENDBRANCH  17  18
ENDBRANCH   1  17
TORSDOF 10
ENDMDL
MODEL 4
REMARK VINA RESULT:      -8.2      6.795     11.149
REMARK  Name = 5749
REMARK  10 active torsions:
REMARK  status: ('A' for Active; 'I' for Inactive)
REMARK    1  A    between atoms: C_1  and  C_2
REMARK    2  A    between atoms: C_1  and  C_8
REMARK    3  A    between atoms: C_1  and  O_14
REMARK    4  A    between atoms: C_1  and  C_17
REMARK    5  A    between atoms: C_17  and  O_18
REMARK    6  A    between atoms: O_18  and  C_19
REMARK    7  A    between atoms: C_19  and  C_20
REMARK    8  A    between atoms: C_20  and  N_21
REMARK    9  A    between atoms: N_21  and  C_23
REMARK   10  A    between atoms: N_21  and  C_25
REMARK                            x       y       z     vdW  Elec       q    Type
REMARK                         _______ _______ _______ _____ _____    ______ ____
ROOT
ATOM      1  C   UNL     1      33.881 -23.124 -17.048  0.00  0.00    +0.196 C 
ENDROOT
BRANCH   1   2
ATOM      2  C   UNL     1      34.194 -21.945 -17.967  0.00  0.00    +0.039 C 
ATOM      3  C   UNL     1      35.608 -22.071 -18.549  0.00  0.00    +0.003 C 
ATOM      4  C   UNL     1      33.150 -21.837 -19.087  0.00  0.00    +0.003 C 
ATOM      5  C   UNL     1      35.926 -20.930 -19.513  0.00  0.00    +0.000 C 
ATOM      6  C   UNL     1      33.472 -20.698 -20.051  0.00  0.00    +0.000 C 
ATOM      7  C   UNL     1      34.882 -20.822 -20.620  0.00  0.00    +0.000 C 
ENDBRANCH   1   2
BRANCH   1   8
ATOM      8  C   UNL     1      32.573 -23.047 -16.264  0.00  0.00    +0.012 C 
ATOM      9  C   UNL     1      32.592 -23.097 -14.871  0.00  0.00    -0.002 C 
ATOM     10  C   UNL     1      31.361 -22.928 -16.942  0.00  0.00    -0.002 C 
ATOM     11  C   UNL     1      31.397 -23.028 -14.154  0.00  0.00    -0.000 C 
ATOM     12  C   UNL     1      30.166 -22.858 -16.226  0.00  0.00    -0.000 C 
ATOM     13  C   UNL     1      30.184 -22.908 -14.832  0.00  0.00    -0.000 C 
ENDBRANCH   1   8
BRANCH   1  14
ATOM     14  O   UNL     1      33.789 -24.284 -17.885  0.00  0.00    -0.373 OA
ATOM     15  H   UNL     1      34.628 -24.411 -18.356  0.00  0.00    +0.211 HD
ENDBRANCH   1  14
BRANCH   1  17
ATOM     16  O   UNL     1      35.630 -22.458 -15.481  0.00  0.00    -0.247 OA
ATOM     17  C   UNL     1      35.066 -23.348 -16.106  0.00  0.00    +0.345 C 
BRANCH  17  18
ATOM     18  O   UNL     1      35.399 -24.674 -16.073  0.00  0.00    -0.449 OA
BRANCH  18  19
ATOM     19  C   UNL     1      35.793 -25.180 -14.794  0.00  0.00    +0.187 C 
BRANCH  19  20
ATOM     20  C   UNL     1      37.261 -25.553 -14.827  0.00  0.00    -0.025 C 
BRANCH  20  21
ATOM     21  N   UNL     1      37.883 -25.212 -13.523  0.00  0.00    +0.391 N 
ATOM     22  C   UNL     1      37.344 -26.118 -12.408  0.00  0.00    -0.096 C 
BRANCH  21  23
ATOM     23  C   UNL     1      39.407 -25.385 -13.584  0.00  0.00    -0.073 C 
ATOM     24  C   UNL     1      39.851 -25.374 -15.030  0.00  0.00    -0.024 C 
ENDBRANCH  21  23
BRANCH  21  25
ATOM     25  C   UNL     1      37.582 -23.756 -13.142  0.00  0.00    -0.073 C 
ATOM     26  C   UNL     1      37.270 -23.681 -11.663  0.00  0.00    -0.024 C 
ENDBRANCH  21  25
ENDBRANCH  20  21
ENDBRANCH  19  20
ENDBRANCH  18  19
ENDBRANCH  17  18
ENDBRANCH   1  17
TORSDOF 10
ENDMDL
MODEL 5
REMARK VINA RESULT:      -8.1      8.259     11.657
REMARK  Name = 5749
REMARK  10 active torsions:
REMARK  status: ('A' for Active; 'I' for Inactive)
REMARK    1  A    between atoms: C_1  and  C_2
REMARK    2  A    between atoms: C_1  and  C_8
REMARK    3  A    between atoms: C_1  and  O_14
REMARK    4  A    between atoms: C_1  and  C_17
REMARK    5  A    between atoms: C_17  and  O_18
REMARK    6  A    between atoms: O_18  and  C_19
REMARK    7  A    between atoms: C_19  and  C_20
REMARK    8  A    between atoms: C_20  and  N_21
REMARK    9  A    between atoms: N_21  and  C_23
REMARK   10  A    between atoms: N_21  and  C_25
REMARK                            x       y       z     vdW  Elec       q    Type
REMARK                         _______ _______ _______ _____ _____    ______ ____
ROOT
ATOM      1  C   UNL     1      33.525 -23.466 -15.422  0.00  0.00    +0.196 C 
ENDROOT
BRANCH   1   2
ATOM      2  C   UNL     1      32.138 -24.039 -15.704  0.00  0.00    +0.039 C 
ATOM      3  C   UNL     1      31.647 -24.879 -14.518  0.00  0.00    +0.003 C 
ATOM      4  C   UNL     1      31.142 -22.916 -16.028  0.00  0.00    +0.003 C 
ATOM      5  C   UNL     1      30.239 -25.420 -14.754  0.00  0.00    +0.000 C 
ATOM      6  C   UNL     1      29.735 -23.460 -16.261  0.00  0.00    +0.000 C 
ATOM      7  C   UNL     1      29.254 -24.302 -15.083  0.00  0.00    +0.000 C 
ENDBRANCH   1   2
BRANCH   1   8
ATOM      8  C   UNL     1      34.295 -22.924 -16.625  0.00  0.00    +0.012 C 
ATOM      9  C   UNL     1      35.592 -22.442 -16.461  0.00  0.00    -0.002 C 
ATOM     10  C   UNL     1      33.699 -22.912 -17.885  0.00  0.00    -0.002 C 
ATOM     11  C   UNL     1      36.296 -21.946 -17.560  0.00  0.00    -0.000 C 
ATOM     12  C   UNL     1      34.402 -22.417 -18.984  0.00  0.00    -0.000 C 
ATOM     13  C   UNL     1      35.701 -21.935 -18.821  0.00  0.00    -0.000 C 
ENDBRANCH   1   8
BRANCH   1  14
ATOM     14  O   UNL     1      33.340 -22.363 -14.525  0.00  0.00    -0.373 OA
ATOM     15  H   UNL     1      33.629 -21.543 -14.956  0.00  0.00    +0.211 HD
ENDBRANCH   1  14
BRANCH   1  17
ATOM     16  O   UNL     1      34.360 -24.648 -13.458  0.00  0.00    -0.247 OA
ATOM     17  C   UNL     1      34.354 -24.513 -14.675  0.00  0.00    +0.345 C 
BRANCH  17  18
ATOM     18  O   UNL     1      35.083 -25.258 -15.559  0.00  0.00    -0.449 OA
BRANCH  18  19
ATOM     19  C   UNL     1      36.113 -26.066 -14.983  0.00  0.00    +0.187 C 
BRANCH  19  20
ATOM     20  C   UNL     1      37.432 -25.321 -15.038  0.00  0.00    -0.025 C 
BRANCH  20  21
ATOM     21  N   UNL     1      37.961 -25.161 -13.660  0.00  0.00    +0.391 N 
ATOM     22  C   UNL     1      37.303 -26.164 -12.703  0.00  0.00    -0.096 C 
BRANCH  21  23
ATOM     23  C   UNL     1      39.478 -25.396 -13.629  0.00  0.00    -0.073 C 
ATOM     24  C   UNL     1      40.013 -25.380 -15.043  0.00  0.00    -0.024 C 
ENDBRANCH  21  23
BRANCH  21  25
ATOM     25  C   UNL     1      37.686 -23.746 -13.132  0.00  0.00    -0.073 C 
ATOM     26  C   UNL     1      37.299 -23.825 -11.671  0.00  0.00    -0.024 C 
ENDBRANCH  21  25
ENDBRANCH  20  21
ENDBRANCH  19  20
ENDBRANCH  18  19
ENDBRANCH  17  18
ENDBRANCH   1  17
TORSDOF 10
ENDMDL
MODEL 6
REMARK VINA RESULT:      -8.1      2.326      7.129
REMARK  Name = 5749
REMARK  10 active torsions:
REMARK  status: ('A' for Active; 'I' for Inactive)
REMARK    1  A    between atoms: C_1  and  C_2
REMARK    2  A    between atoms: C_1  and  C_8
REMARK    3  A    between atoms: C_1  and  O_14
REMARK    4  A    between atoms: C_1  and  C_17
REMARK    5  A    between atoms: C_17  and  O_18
REMARK    6  A    between atoms: O_18  and  C_19
REMARK    7  A    between atoms: C_19  and  C_20
REMARK    8  A    between atoms: C_20  and  N_21
REMARK    9  A    between atoms: N_21  and  C_23
REMARK   10  A    between atoms: N_21  and  C_25
REMARK                            x       y       z     vdW  Elec       q    Type
REMARK                         _______ _______ _______ _____ _____    ______ ____
ROOT
ATOM      1  C   UNL     1      33.292 -13.234 -22.978  0.00  0.00    +0.196 C 
ENDROOT
BRANCH   1   2
ATOM      2  C   UNL     1      32.220 -12.259 -22.497  0.00  0.00    +0.039 C 
ATOM      3  C   UNL     1      32.060 -12.336 -20.973  0.00  0.00    +0.003 C 
ATOM      4  C   UNL     1      32.551 -10.827 -22.939  0.00  0.00    +0.003 C 
ATOM      5  C   UNL     1      31.030 -11.333 -20.461  0.00  0.00    +0.000 C 
ATOM      6  C   UNL     1      31.521  -9.825 -22.424  0.00  0.00    +0.000 C 
ATOM      7  C   UNL     1      31.358  -9.912 -20.910  0.00  0.00    +0.000 C 
ENDBRANCH   1   2
BRANCH   1   8
ATOM      8  C   UNL     1      33.271 -13.591 -24.462  0.00  0.00    +0.012 C 
ATOM      9  C   UNL     1      33.100 -14.917 -24.857  0.00  0.00    -0.002 C 
ATOM     10  C   UNL     1      33.423 -12.591 -25.422  0.00  0.00    -0.002 C 
ATOM     11  C   UNL     1      33.080 -15.244 -26.214  0.00  0.00    -0.000 C 
ATOM     12  C   UNL     1      33.404 -12.917 -26.778  0.00  0.00    -0.000 C 
ATOM     13  C   UNL     1      33.232 -14.244 -27.174  0.00  0.00    -0.000 C 
ENDBRANCH   1   8
BRANCH   1  14
ATOM     14  O   UNL     1      34.558 -12.611 -22.726  0.00  0.00    -0.373 OA
ATOM     15  H   UNL     1      35.035 -13.111 -22.045  0.00  0.00    +0.211 HD
ENDBRANCH   1  14
BRANCH   1  17
ATOM     16  O   UNL     1      32.221 -15.140 -21.894  0.00  0.00    -0.247 OA
ATOM     17  C   UNL     1      33.239 -14.497 -22.116  0.00  0.00    +0.345 C 
BRANCH  17  18
ATOM     18  O   UNL     1      34.483 -14.791 -21.631  0.00  0.00    -0.449 OA
BRANCH  18  19
ATOM     19  C   UNL     1      34.668 -16.136 -21.179  0.00  0.00    +0.187 C 
BRANCH  19  20
ATOM     20  C   UNL     1      35.211 -16.981 -22.313  0.00  0.00    -0.025 C 
BRANCH  20  21
ATOM     21  N   UNL     1      35.034 -18.418 -21.982  0.00  0.00    +0.391 N 
ATOM     22  C   UNL     1      36.224 -18.938 -21.164  0.00  0.00    -0.096 C 
BRANCH  21  23
ATOM     23  C   UNL     1      33.757 -18.634 -21.158  0.00  0.00    -0.073 C 
ATOM     24  C   UNL     1      33.702 -20.073 -20.696  0.00  0.00    -0.024 C 
ENDBRANCH  21  23
BRANCH  21  25
ATOM     25  C   UNL     1      34.928 -19.262 -23.260  0.00  0.00    -0.073 C 
ATOM     26  C   UNL     1      34.623 -18.355 -24.432  0.00  0.00    -0.024 C 
ENDBRANCH  21  25
ENDBRANCH  20  21
ENDBRANCH  19  20
ENDBRANCH  18  19
ENDBRANCH  17  18
ENDBRANCH   1  17
TORSDOF 10
ENDMDL
MODEL 7
REMARK VINA RESULT:      -8.0      6.797     11.155
REMARK  Name = 5749
REMARK  10 active torsions:
REMARK  status: ('A' for Active; 'I' for Inactive)
REMARK    1  A    between atoms: C_1  and  C_2
REMARK    2  A    between atoms: C_1  and  C_8
REMARK    3  A    between atoms: C_1  and  O_14
REMARK    4  A    between atoms: C_1  and  C_17
REMARK    5  A    between atoms: C_17  and  O_18
REMARK    6  A    between atoms: O_18  and  C_19
REMARK    7  A    between atoms: C_19  and  C_20
REMARK    8  A    between atoms: C_20  and  N_21
REMARK    9  A    between atoms: N_21  and  C_23
REMARK   10  A    between atoms: N_21  and  C_25
REMARK                            x       y       z     vdW  Elec       q    Type
REMARK                         _______ _______ _______ _____ _____    ______ ____
ROOT
ATOM      1  C   UNL     1      33.853 -23.159 -17.028  0.00  0.00    +0.196 C 
ENDROOT
BRANCH   1   2
ATOM      2  C   UNL     1      34.215 -21.982 -17.931  0.00  0.00    +0.039 C 
ATOM      3  C   UNL     1      35.656 -22.111 -18.440  0.00  0.00    +0.003 C 
ATOM      4  C   UNL     1      33.230 -21.876 -19.103  0.00  0.00    +0.003 C 
ATOM      5  C   UNL     1      36.025 -20.974 -19.388  0.00  0.00    +0.000 C 
ATOM      6  C   UNL     1      33.602 -20.739 -20.051  0.00  0.00    +0.000 C 
ATOM      7  C   UNL     1      35.039 -20.866 -20.547  0.00  0.00    +0.000 C 
ENDBRANCH   1   2
BRANCH   1   8
ATOM      8  C   UNL     1      32.522 -23.064 -16.285  0.00  0.00    +0.012 C 
ATOM      9  C   UNL     1      31.332 -22.948 -17.002  0.00  0.00    -0.002 C 
ATOM     10  C   UNL     1      32.498 -23.092 -14.892  0.00  0.00    -0.002 C 
ATOM     11  C   UNL     1      30.115 -22.860 -16.324  0.00  0.00    -0.000 C 
ATOM     12  C   UNL     1      31.282 -23.004 -14.213  0.00  0.00    -0.000 C 
ATOM     13  C   UNL     1      30.091 -22.889 -14.930  0.00  0.00    -0.000 C 
ENDBRANCH   1   8
BRANCH   1  14
ATOM     14  O   UNL     1      33.769 -24.315 -17.871  0.00  0.00    -0.373 OA
ATOM     15  H   UNL     1      32.932 -24.298 -18.361  0.00  0.00    +0.211 HD
ENDBRANCH   1  14
BRANCH   1  17
ATOM     16  O   UNL     1      35.552 -22.530 -15.392  0.00  0.00    -0.247 OA
ATOM     17  C   UNL     1      35.003 -23.406 -16.048  0.00  0.00    +0.345 C 
BRANCH  17  18
ATOM     18  O   UNL     1      35.325 -24.734 -16.023  0.00  0.00    -0.449 OA
BRANCH  18  19
ATOM     19  C   UNL     1      35.647 -25.267 -14.735  0.00  0.00    +0.187 C 
BRANCH  19  20
ATOM     20  C   UNL     1      37.020 -25.907 -14.779  0.00  0.00    -0.025 C 
BRANCH  20  21
ATOM     21  N   UNL     1      38.000 -25.012 -14.114  0.00  0.00    +0.391 N 
ATOM     22  C   UNL     1      38.603 -24.022 -15.118  0.00  0.00    -0.096 C 
BRANCH  21  23
ATOM     23  C   UNL     1      37.328 -24.206 -12.994  0.00  0.00    -0.073 C 
ATOM     24  C   UNL     1      38.362 -23.851 -11.948  0.00  0.00    -0.024 C 
ENDBRANCH  21  23
BRANCH  21  25
ATOM     25  C   UNL     1      39.147 -25.825 -13.497  0.00  0.00    -0.073 C 
ATOM     26  C   UNL     1      40.316 -25.845 -14.456  0.00  0.00    -0.024 C 
ENDBRANCH  21  25
ENDBRANCH  20  21
ENDBRANCH  19  20
ENDBRANCH  18  19
ENDBRANCH  17  18
ENDBRANCH   1  17
TORSDOF 10
ENDMDL
MODEL 8
REMARK VINA RESULT:      -8.0      1.460      4.403
REMARK  Name = 5749
REMARK  10 active torsions:
REMARK  status: ('A' for Active; 'I' for Inactive)
REMARK    1  A    between atoms: C_1  and  C_2
REMARK    2  A    between atoms: C_1  and  C_8
REMARK    3  A    between atoms: C_1  and  O_14
REMARK    4  A    between atoms: C_1  and  C_17
REMARK    5  A    between atoms: C_17  and  O_18
REMARK    6  A    between atoms: O_18  and  C_19
REMARK    7  A    between atoms: C_19  and  C_20
REMARK    8  A    between atoms: C_20  and  N_21
REMARK    9  A    between atoms: N_21  and  C_23
REMARK   10  A    between atoms: N_21  and  C_25
REMARK                            x       y       z     vdW  Elec       q    Type
REMARK                         _______ _______ _______ _____ _____    ______ ____
ROOT
ATOM      1  C   UNL     1      34.953 -17.947 -21.595  0.00  0.00    +0.196 C 
ENDROOT
BRANCH   1   2
ATOM      2  C   UNL     1      34.411 -17.784 -23.013  0.00  0.00    +0.039 C 
ATOM      3  C   UNL     1      35.088 -16.602 -23.720  0.00  0.00    +0.003 C 
ATOM      4  C   UNL     1      34.595 -19.079 -23.817  0.00  0.00    +0.003 C 
ATOM      5  C   UNL     1      34.600 -16.451 -25.159  0.00  0.00    +0.000 C 
ATOM      6  C   UNL     1      34.110 -18.923 -25.256  0.00  0.00    +0.000 C 
ATOM      7  C   UNL     1      34.778 -17.742 -25.952  0.00  0.00    +0.000 C 
ENDBRANCH   1   2
BRANCH   1   8
ATOM      8  C   UNL     1      34.549 -19.220 -20.854  0.00  0.00    +0.012 C 
ATOM      9  C   UNL     1      33.201 -19.491 -20.620  0.00  0.00    -0.002 C 
ATOM     10  C   UNL     1      35.527 -20.108 -20.410  0.00  0.00    -0.002 C 
ATOM     11  C   UNL     1      32.831 -20.653 -19.943  0.00  0.00    -0.000 C 
ATOM     12  C   UNL     1      35.158 -21.270 -19.732  0.00  0.00    -0.000 C 
ATOM     13  C   UNL     1      33.809 -21.543 -19.499  0.00  0.00    -0.000 C 
ENDBRANCH   1   8
BRANCH   1  14
ATOM     14  O   UNL     1      36.383 -17.973 -21.701  0.00  0.00    -0.373 OA
ATOM     15  H   UNL     1      36.639 -18.442 -22.511  0.00  0.00    +0.211 HD
ENDBRANCH   1  14
BRANCH   1  17
ATOM     16  O   UNL     1      35.269 -16.262 -19.859  0.00  0.00    -0.247 OA
ATOM     17  C   UNL     1      34.591 -16.706 -20.778  0.00  0.00    +0.345 C 
BRANCH  17  18
ATOM     18  O   UNL     1      33.409 -16.178 -21.217  0.00  0.00    -0.449 OA
BRANCH  18  19
ATOM     19  C   UNL     1      33.220 -14.785 -20.956  0.00  0.00    +0.187 C 
BRANCH  19  20
ATOM     20  C   UNL     1      33.949 -13.969 -22.005  0.00  0.00    -0.025 C 
BRANCH  20  21
ATOM     21  N   UNL     1      32.964 -13.175 -22.782  0.00  0.00    +0.391 N 
ATOM     22  C   UNL     1      32.341 -14.023 -23.899  0.00  0.00    -0.096 C 
BRANCH  21  23
ATOM     23  C   UNL     1      31.832 -12.673 -21.875  0.00  0.00    -0.073 C 
ATOM     24  C   UNL     1      31.717 -11.171 -22.008  0.00  0.00    -0.024 C 
ENDBRANCH  21  23
BRANCH  21  25
ATOM     25  C   UNL     1      33.637 -11.955 -23.427  0.00  0.00    -0.073 C 
ATOM     26  C   UNL     1      33.773 -12.190 -24.915  0.00  0.00    -0.024 C 
ENDBRANCH  21  25
ENDBRANCH  20  21
ENDBRANCH  19  20
ENDBRANCH  18  19
ENDBRANCH  17  18
ENDBRANCH   1  17
TORSDOF 10
ENDMDL
MODEL 9
REMARK VINA RESULT:      -7.5      4.659      9.414
REMARK  Name = 5749
REMARK  10 active torsions:
REMARK  status: ('A' for Active; 'I' for Inactive)
REMARK    1  A    between atoms: C_1  and  C_2
REMARK    2  A    between atoms: C_1  and  C_8
REMARK    3  A    between atoms: C_1  and  O_14
REMARK    4  A    between atoms: C_1  and  C_17
REMARK    5  A    between atoms: C_17  and  O_18
REMARK    6  A    between atoms: O_18  and  C_19
REMARK    7  A    between atoms: C_19  and  C_20
REMARK    8  A    between atoms: C_20  and  N_21
REMARK    9  A    between atoms: N_21  and  C_23
REMARK   10  A    between atoms: N_21  and  C_25
REMARK                            x       y       z     vdW  Elec       q    Type
REMARK                         _______ _______ _______ _____ _____    ______ ____
ROOT
ATOM      1  C   UNL     1      32.280  -9.117 -22.299  0.00  0.00    +0.196 C 
ENDROOT
BRANCH   1   2
ATOM      2  C   UNL     1      31.451  -7.872 -22.606  0.00  0.00    +0.039 C 
ATOM      3  C   UNL     1      31.894  -6.696 -21.726  0.00  0.00    +0.003 C 
ATOM      4  C   UNL     1      31.549  -7.508 -24.094  0.00  0.00    +0.003 C 
ATOM      5  C   UNL     1      31.115  -5.424 -22.050  0.00  0.00    +0.000 C 
ATOM      6  C   UNL     1      30.771  -6.234 -24.414  0.00  0.00    +0.000 C 
ATOM      7  C   UNL     1      31.208  -5.069 -23.531  0.00  0.00    +0.000 C 
ENDBRANCH   1   2
BRANCH   1   8
ATOM      8  C   UNL     1      33.318  -9.518 -23.345  0.00  0.00    +0.012 C 
ATOM      9  C   UNL     1      34.360  -8.648 -23.662  0.00  0.00    -0.002 C 
ATOM     10  C   UNL     1      33.223 -10.754 -23.983  0.00  0.00    -0.002 C 
ATOM     11  C   UNL     1      35.309  -9.013 -24.617  0.00  0.00    -0.000 C 
ATOM     12  C   UNL     1      34.171 -11.120 -24.939  0.00  0.00    -0.000 C 
ATOM     13  C   UNL     1      35.215 -10.250 -25.255  0.00  0.00    -0.000 C 
ENDBRANCH   1   8
BRANCH   1  14
ATOM     14  O   UNL     1      33.001  -8.845 -21.091  0.00  0.00    -0.373 OA
ATOM     15  H   UNL     1      33.931  -9.096 -21.205  0.00  0.00    +0.211 HD
ENDBRANCH   1  14
BRANCH   1  17
ATOM     16  O   UNL     1      30.248 -10.447 -22.539  0.00  0.00    -0.247 OA
ATOM     17  C   UNL     1      31.335 -10.283 -22.000  0.00  0.00    +0.345 C 
BRANCH  17  18
ATOM     18  O   UNL     1      31.878 -11.099 -21.047  0.00  0.00    -0.449 OA
BRANCH  18  19
ATOM     19  C   UNL     1      31.595 -12.494 -21.194  0.00  0.00    +0.187 C 
BRANCH  19  20
ATOM     20  C   UNL     1      32.670 -13.305 -20.498  0.00  0.00    -0.025 C 
BRANCH  20  21
ATOM     21  N   UNL     1      33.018 -14.479 -21.337  0.00  0.00    +0.391 N 
ATOM     22  C   UNL     1      32.289 -15.736 -20.843  0.00  0.00    -0.096 C 
BRANCH  21  23
ATOM     23  C   UNL     1      32.622 -14.241 -22.800  0.00  0.00    -0.073 C 
ATOM     24  C   UNL     1      33.778 -14.623 -23.697  0.00  0.00    -0.024 C 
ENDBRANCH  21  23
BRANCH  21  25
ATOM     25  C   UNL     1      34.528 -14.754 -21.289  0.00  0.00    -0.073 C 
ATOM     26  C   UNL     1      34.766 -16.135 -20.719  0.00  0.00    -0.024 C 
ENDBRANCH  21  25
ENDBRANCH  20  21
ENDBRANCH  19  20
ENDBRANCH  18  19
ENDBRANCH  17  18
ENDBRANCH   1  17
TORSDOF 10
ENDMDL
