MODEL 1
REMARK VINA RESULT:     -10.1      0.000      0.000
REMARK  Name = 4679
REMARK  7 active torsions:
REMARK  status: ('A' for Active; 'I' for Inactive)
REMARK    1  A    between atoms: C_4  and  S_12
REMARK    2  A    between atoms: C_8  and  O_25
REMARK    3  A    between atoms: S_12  and  C_14
REMARK    4  A    between atoms: C_14  and  C_16
REMARK    5  A    between atoms: C_17  and  O_21
REMARK    6  A    between atoms: C_18  and  O_23
REMARK    7  A    between atoms: O_25  and  C_28
REMARK                            x       y       z     vdW  Elec       q    Type
REMARK                         _______ _______ _______ _____ _____    ______ ____
ROOT
ATOM      1  N   UNL     1      34.984 -22.148 -18.665  0.00  0.00    -0.307 N 
ATOM      2  N   UNL     1      32.776 -21.929 -18.785  0.00  0.00    -0.307 N 
ATOM      3  C   UNL     1      34.763 -21.210 -19.640  0.00  0.00    +0.063 C 
ATOM      4  C   UNL     1      33.768 -22.547 -18.185  0.00  0.00    +0.226 C 
ATOM      5  C   UNL     1      33.376 -21.091 -19.697  0.00  0.00    +0.060 C 
ATOM      6  C   UNL     1      35.629 -20.479 -20.453  0.00  0.00    +0.053 C 
ATOM      7  C   UNL     1      32.803 -20.193 -20.614  0.00  0.00    +0.019 C 
ATOM      8  C   UNL     1      35.042 -19.589 -21.359  0.00  0.00    +0.146 C 
ATOM      9  C   UNL     1      33.654 -19.447 -21.439  0.00  0.00    +0.038 C 
ATOM     10  H   UNL     1      35.862 -22.477 -18.363  0.00  0.00    +0.149 HD
ATOM     11  H   UNL     1      31.812 -22.040 -18.620  0.00  0.00    +0.149 HD
ENDROOT
BRANCH   4  12
ATOM     12  S   UNL     1      33.548 -23.766 -16.895  0.00  0.00    +0.085 S 
ATOM     13  O   UNL     1      32.167 -23.595 -16.292  0.00  0.00    -0.252 OA
BRANCH  12  14
ATOM     14  C   UNL     1      34.743 -23.159 -15.670  0.00  0.00    +0.144 C 
BRANCH  14  16
ATOM     15  N   UNL     1      35.420 -25.461 -15.408  0.00  0.00    -0.244 NA
ATOM     16  C   UNL     1      35.817 -24.172 -15.392  0.00  0.00    +0.109 C 
ATOM     17  C   UNL     1      37.109 -23.752 -15.146  0.00  0.00    +0.187 C 
ATOM     18  C   UNL     1      38.068 -24.728 -14.896  0.00  0.00    +0.175 C 
ATOM     19  C   UNL     1      37.703 -26.071 -14.901  0.00  0.00    +0.061 C 
ATOM     20  C   UNL     1      36.379 -26.381 -15.160  0.00  0.00    +0.102 C 
BRANCH  17  21
ATOM     21  O   UNL     1      37.443 -22.435 -15.146  0.00  0.00    -0.467 OA
ATOM     22  C   UNL     1      37.634 -21.797 -16.393  0.00  0.00    +0.253 C 
ENDBRANCH  17  21
BRANCH  18  23
ATOM     23  O   UNL     1      39.362 -24.384 -14.646  0.00  0.00    -0.468 OA
ATOM     24  C   UNL     1      40.302 -25.424 -14.467  0.00  0.00    +0.253 C 
ENDBRANCH  18  23
ENDBRANCH  14  16
ENDBRANCH  12  14
ENDBRANCH   4  12
BRANCH   8  25
ATOM     25  O   UNL     1      35.840 -18.847 -22.179  0.00  0.00    -0.424 OA
BRANCH  25  28
ATOM     26  F   UNL     1      35.763 -16.710 -22.849  0.00  0.00    -0.155 F 
ATOM     27  F   UNL     1      35.475 -18.270 -24.337  0.00  0.00    -0.155 F 
ATOM     28  C   UNL     1      35.199 -17.929 -23.054  0.00  0.00    +0.509 C 
ENDBRANCH  25  28
ENDBRANCH   8  25
TORSDOF 7
ENDMDL
MODEL 2
REMARK VINA RESULT:      -9.9      0.696      1.436
REMARK  Name = 4679
REMARK  7 active torsions:
REMARK  status: ('A' for Active; 'I' for Inactive)
REMARK    1  A    between atoms: C_4  and  S_12
REMARK    2  A    between atoms: C_8  and  O_25
REMARK    3  A    between atoms: S_12  and  C_14
REMARK    4  A    between atoms: C_14  and  C_16
REMARK    5  A    between atoms: C_17  and  O_21
REMARK    6  A    between atoms: C_18  and  O_23
REMARK    7  A    between atoms: O_25  and  C_28
REMARK                            x       y       z     vdW  Elec       q    Type
REMARK                         _______ _______ _______ _____ _____    ______ ____
ROOT
ATOM      1  N   UNL     1      33.089 -21.841 -18.995  0.00  0.00    -0.307 N 
ATOM      2  N   UNL     1      35.218 -22.173 -18.451  0.00  0.00    -0.307 N 
ATOM      3  C   UNL     1      33.812 -21.047 -19.848  0.00  0.00    +0.063 C 
ATOM      4  C   UNL     1      33.972 -22.493 -18.181  0.00  0.00    +0.226 C 
ATOM      5  C   UNL     1      35.139 -21.271 -19.487  0.00  0.00    +0.060 C 
ATOM      6  C   UNL     1      33.432 -20.178 -20.870  0.00  0.00    +0.053 C 
ATOM      7  C   UNL     1      36.159 -20.596 -20.179  0.00  0.00    +0.019 C 
ATOM      8  C   UNL     1      34.460 -19.515 -21.548  0.00  0.00    +0.146 C 
ATOM      9  C   UNL     1      35.801 -19.719 -21.210  0.00  0.00    +0.038 C 
ATOM     10  H   UNL     1      32.108 -21.927 -18.973  0.00  0.00    +0.149 HD
ATOM     11  H   UNL     1      36.032 -22.505 -18.008  0.00  0.00    +0.149 HD
ENDROOT
BRANCH   4  12
ATOM     12  S   UNL     1      33.494 -23.645 -16.899  0.00  0.00    +0.085 S 
ATOM     13  O   UNL     1      32.089 -23.308 -16.439  0.00  0.00    -0.252 OA
BRANCH  12  14
ATOM     14  C   UNL     1      34.626 -23.138 -15.572  0.00  0.00    +0.144 C 
BRANCH  14  16
ATOM     15  N   UNL     1      35.318 -25.444 -15.399  0.00  0.00    -0.244 NA
ATOM     16  C   UNL     1      35.709 -24.154 -15.348  0.00  0.00    +0.109 C 
ATOM     17  C   UNL     1      37.004 -23.736 -15.111  0.00  0.00    +0.187 C 
ATOM     18  C   UNL     1      37.971 -24.715 -14.911  0.00  0.00    +0.175 C 
ATOM     19  C   UNL     1      37.613 -26.058 -14.955  0.00  0.00    +0.061 C 
ATOM     20  C   UNL     1      36.286 -26.367 -15.200  0.00  0.00    +0.102 C 
BRANCH  17  21
ATOM     21  O   UNL     1      37.331 -22.418 -15.073  0.00  0.00    -0.467 OA
ATOM     22  C   UNL     1      37.644 -21.774 -16.293  0.00  0.00    +0.253 C 
ENDBRANCH  17  21
BRANCH  18  23
ATOM     23  O   UNL     1      39.268 -24.372 -14.674  0.00  0.00    -0.468 OA
ATOM     24  C   UNL     1      40.204 -25.413 -14.482  0.00  0.00    +0.253 C 
ENDBRANCH  18  23
ENDBRANCH  14  16
ENDBRANCH  12  14
ENDBRANCH   4  12
BRANCH   8  25
ATOM     25  O   UNL     1      34.148 -18.653 -22.558  0.00  0.00    -0.424 OA
BRANCH  25  28
ATOM     26  F   UNL     1      34.869 -19.754 -24.371  0.00  0.00    -0.155 F 
ATOM     27  F   UNL     1      34.658 -17.592 -24.492  0.00  0.00    -0.155 F 
ATOM     28  C   UNL     1      35.033 -18.603 -23.669  0.00  0.00    +0.509 C 
ENDBRANCH  25  28
ENDBRANCH   8  25
TORSDOF 7
ENDMDL
MODEL 3
REMARK VINA RESULT:      -9.6      6.954     12.098
REMARK  Name = 4679
REMARK  7 active torsions:
REMARK  status: ('A' for Active; 'I' for Inactive)
REMARK    1  A    between atoms: C_4  and  S_12
REMARK    2  A    between atoms: C_8  and  O_25
REMARK    3  A    between atoms: S_12  and  C_14
REMARK    4  A    between atoms: C_14  and  C_16
REMARK    5  A    between atoms: C_17  and  O_21
REMARK    6  A    between atoms: C_18  and  O_23
REMARK    7  A    between atoms: O_25  and  C_28
REMARK                            x       y       z     vdW  Elec       q    Type
REMARK                         _______ _______ _______ _____ _____    ______ ____
ROOT
ATOM      1  N   UNL     1      33.969 -15.356 -22.907  0.00  0.00    -0.307 N 
ATOM      2  N   UNL     1      34.069 -16.401 -24.866  0.00  0.00    -0.307 N 
ATOM      3  C   UNL     1      34.549 -16.570 -22.644  0.00  0.00    +0.063 C 
ATOM      4  C   UNL     1      33.701 -15.302 -24.246  0.00  0.00    +0.226 C 
ATOM      5  C   UNL     1      34.600 -17.205 -23.883  0.00  0.00    +0.060 C 
ATOM      6  C   UNL     1      35.017 -17.151 -21.466  0.00  0.00    +0.053 C 
ATOM      7  C   UNL     1      35.149 -18.495 -23.969  0.00  0.00    +0.019 C 
ATOM      8  C   UNL     1      35.561 -18.436 -21.570  0.00  0.00    +0.146 C 
ATOM      9  C   UNL     1      35.627 -19.098 -22.799  0.00  0.00    +0.038 C 
ATOM     10  H   UNL     1      33.779 -14.648 -22.249  0.00  0.00    +0.149 HD
ATOM     11  H   UNL     1      33.985 -16.606 -25.825  0.00  0.00    +0.149 HD
ENDROOT
BRANCH   4  12
ATOM     12  S   UNL     1      32.939 -13.905 -25.063  0.00  0.00    +0.085 S 
ATOM     13  O   UNL     1      33.380 -13.887 -26.513  0.00  0.00    -0.252 OA
BRANCH  12  14
ATOM     14  C   UNL     1      33.794 -12.537 -24.228  0.00  0.00    +0.144 C 
BRANCH  14  16
ATOM     15  N   UNL     1      32.399 -12.726 -22.268  0.00  0.00    -0.244 NA
ATOM     16  C   UNL     1      32.925 -11.892 -23.187  0.00  0.00    +0.109 C 
ATOM     17  C   UNL     1      32.714 -10.527 -23.219  0.00  0.00    +0.187 C 
ATOM     18  C   UNL     1      31.903  -9.976 -22.233  0.00  0.00    +0.175 C 
ATOM     19  C   UNL     1      31.339 -10.799 -21.264  0.00  0.00    +0.061 C 
ATOM     20  C   UNL     1      31.616 -12.155 -21.325  0.00  0.00    +0.102 C 
BRANCH  17  21
ATOM     21  O   UNL     1      33.276  -9.741 -24.175  0.00  0.00    -0.467 OA
ATOM     22  C   UNL     1      34.534  -9.155 -23.901  0.00  0.00    +0.253 C 
ENDBRANCH  17  21
BRANCH  18  23
ATOM     23  O   UNL     1      31.655  -8.637 -22.205  0.00  0.00    -0.468 OA
ATOM     24  C   UNL     1      32.243  -7.876 -21.169  0.00  0.00    +0.253 C 
ENDBRANCH  18  23
ENDBRANCH  14  16
ENDBRANCH  12  14
ENDBRANCH   4  12
BRANCH   8  25
ATOM     25  O   UNL     1      36.035 -19.053 -20.450  0.00  0.00    -0.424 OA
BRANCH  25  28
ATOM     26  F   UNL     1      36.342 -20.858 -19.157  0.00  0.00    -0.155 F 
ATOM     27  F   UNL     1      34.356 -20.492 -19.966  0.00  0.00    -0.155 F 
ATOM     28  C   UNL     1      35.678 -20.415 -20.256  0.00  0.00    +0.509 C 
ENDBRANCH  25  28
ENDBRANCH   8  25
TORSDOF 7
ENDMDL
MODEL 4
REMARK VINA RESULT:      -9.6      4.081      7.964
REMARK  Name = 4679
REMARK  7 active torsions:
REMARK  status: ('A' for Active; 'I' for Inactive)
REMARK    1  A    between atoms: C_4  and  S_12
REMARK    2  A    between atoms: C_8  and  O_25
REMARK    3  A    between atoms: S_12  and  C_14
REMARK    4  A    between atoms: C_14  and  C_16
REMARK    5  A    between atoms: C_17  and  O_21
REMARK    6  A    between atoms: C_18  and  O_23
REMARK    7  A    between atoms: O_25  and  C_28
REMARK                            x       y       z     vdW  Elec       q    Type
REMARK                         _______ _______ _______ _____ _____    ______ ____
ROOT
ATOM      1  N   UNL     1      35.385 -24.463 -15.738  0.00  0.00    -0.307 N 
ATOM      2  N   UNL     1      34.915 -22.880 -14.251  0.00  0.00    -0.307 N 
ATOM      3  C   UNL     1      36.357 -24.566 -14.776  0.00  0.00    +0.063 C 
ATOM      4  C   UNL     1      34.548 -23.444 -15.380  0.00  0.00    +0.226 C 
ATOM      5  C   UNL     1      36.042 -23.566 -13.859  0.00  0.00    +0.060 C 
ATOM      6  C   UNL     1      37.451 -25.419 -14.635  0.00  0.00    +0.053 C 
ATOM      7  C   UNL     1      36.857 -23.395 -12.727  0.00  0.00    +0.019 C 
ATOM      8  C   UNL     1      38.251 -25.234 -13.502  0.00  0.00    +0.146 C 
ATOM      9  C   UNL     1      37.961 -24.241 -12.564  0.00  0.00    +0.038 C 
ATOM     10  H   UNL     1      35.303 -25.024 -16.543  0.00  0.00    +0.149 HD
ATOM     11  H   UNL     1      34.480 -22.130 -13.785  0.00  0.00    +0.149 HD
ENDROOT
BRANCH   4  12
ATOM     12  S   UNL     1      33.123 -22.932 -16.332  0.00  0.00    +0.085 S 
ATOM     13  O   UNL     1      31.945 -23.810 -15.957  0.00  0.00    -0.252 OA
BRANCH  12  14
ATOM     14  C   UNL     1      33.651 -23.431 -17.996  0.00  0.00    +0.144 C 
BRANCH  14  16
ATOM     15  N   UNL     1      32.768 -21.720 -19.452  0.00  0.00    -0.244 NA
ATOM     16  C   UNL     1      33.876 -22.242 -18.887  0.00  0.00    +0.109 C 
ATOM     17  C   UNL     1      35.155 -21.759 -19.076  0.00  0.00    +0.187 C 
ATOM     18  C   UNL     1      35.312 -20.656 -19.908  0.00  0.00    +0.175 C 
ATOM     19  C   UNL     1      34.197 -20.084 -20.512  0.00  0.00    +0.061 C 
ATOM     20  C   UNL     1      32.959 -20.648 -20.254  0.00  0.00    +0.102 C 
BRANCH  17  21
ATOM     21  O   UNL     1      36.230 -22.333 -18.474  0.00  0.00    -0.467 OA
ATOM     22  C   UNL     1      36.840 -21.644 -17.400  0.00  0.00    +0.253 C 
ENDBRANCH  17  21
BRANCH  18  23
ATOM     23  O   UNL     1      36.546 -20.127 -20.137  0.00  0.00    -0.468 OA
ATOM     24  C   UNL     1      36.643 -19.026 -21.017  0.00  0.00    +0.253 C 
ENDBRANCH  18  23
ENDBRANCH  14  16
ENDBRANCH  12  14
ENDBRANCH   4  12
BRANCH   8  25
ATOM     25  O   UNL     1      39.335 -26.040 -13.312  0.00  0.00    -0.424 OA
BRANCH  25  28
ATOM     26  F   UNL     1      40.692 -24.819 -14.611  0.00  0.00    -0.155 F 
ATOM     27  F   UNL     1      41.397 -26.754 -13.912  0.00  0.00    -0.155 F 
ATOM     28  C   UNL     1      40.299 -26.093 -14.354  0.00  0.00    +0.509 C 
ENDBRANCH  25  28
ENDBRANCH   8  25
TORSDOF 7
ENDMDL
MODEL 5
REMARK VINA RESULT:      -9.4      1.232      1.805
REMARK  Name = 4679
REMARK  7 active torsions:
REMARK  status: ('A' for Active; 'I' for Inactive)
REMARK    1  A    between atoms: C_4  and  S_12
REMARK    2  A    between atoms: C_8  and  O_25
REMARK    3  A    between atoms: S_12  and  C_14
REMARK    4  A    between atoms: C_14  and  C_16
REMARK    5  A    between atoms: C_17  and  O_21
REMARK    6  A    between atoms: C_18  and  O_23
REMARK    7  A    between atoms: O_25  and  C_28
REMARK                            x       y       z     vdW  Elec       q    Type
REMARK                         _______ _______ _______ _____ _____    ______ ____
ROOT
ATOM      1  N   UNL     1      34.857 -22.119 -18.704  0.00  0.00    -0.307 N 
ATOM      2  N   UNL     1      32.657 -21.827 -18.816  0.00  0.00    -0.307 N 
ATOM      3  C   UNL     1      34.664 -21.172 -19.676  0.00  0.00    +0.063 C 
ATOM      4  C   UNL     1      33.630 -22.478 -18.221  0.00  0.00    +0.226 C 
ATOM      5  C   UNL     1      33.281 -21.007 -19.729  0.00  0.00    +0.060 C 
ATOM      6  C   UNL     1      35.550 -20.468 -20.491  0.00  0.00    +0.053 C 
ATOM      7  C   UNL     1      32.736 -20.088 -20.641  0.00  0.00    +0.019 C 
ATOM      8  C   UNL     1      34.990 -19.557 -21.393  0.00  0.00    +0.146 C 
ATOM      9  C   UNL     1      33.607 -19.370 -21.468  0.00  0.00    +0.038 C 
ATOM     10  H   UNL     1      35.725 -22.476 -18.406  0.00  0.00    +0.149 HD
ATOM     11  H   UNL     1      31.690 -21.907 -18.648  0.00  0.00    +0.149 HD
ENDROOT
BRANCH   4  12
ATOM     12  S   UNL     1      33.375 -23.692 -16.932  0.00  0.00    +0.085 S 
ATOM     13  O   UNL     1      31.892 -23.778 -16.629  0.00  0.00    -0.252 OA
BRANCH  12  14
ATOM     14  C   UNL     1      34.157 -22.844 -15.530  0.00  0.00    +0.144 C 
BRANCH  14  16
ATOM     15  N   UNL     1      36.411 -22.391 -16.266  0.00  0.00    -0.244 NA
ATOM     16  C   UNL     1      35.629 -23.135 -15.457  0.00  0.00    +0.109 C 
ATOM     17  C   UNL     1      36.094 -24.110 -14.596  0.00  0.00    +0.187 C 
ATOM     18  C   UNL     1      37.465 -24.342 -14.563  0.00  0.00    +0.175 C 
ATOM     19  C   UNL     1      38.309 -23.599 -15.381  0.00  0.00    +0.061 C 
ATOM     20  C   UNL     1      37.738 -22.645 -16.206  0.00  0.00    +0.102 C 
BRANCH  17  21
ATOM     21  O   UNL     1      35.250 -24.824 -13.806  0.00  0.00    -0.467 OA
ATOM     22  C   UNL     1      35.098 -24.421 -12.459  0.00  0.00    +0.253 C 
ENDBRANCH  17  21
BRANCH  18  23
ATOM     23  O   UNL     1      37.990 -25.288 -13.737  0.00  0.00    -0.468 OA
ATOM     24  C   UNL     1      39.327 -25.690 -13.954  0.00  0.00    +0.253 C 
ENDBRANCH  18  23
ENDBRANCH  14  16
ENDBRANCH  12  14
ENDBRANCH   4  12
BRANCH   8  25
ATOM     25  O   UNL     1      35.809 -18.840 -22.214  0.00  0.00    -0.424 OA
BRANCH  25  28
ATOM     26  F   UNL     1      35.763 -16.690 -22.844  0.00  0.00    -0.155 F 
ATOM     27  F   UNL     1      35.501 -18.219 -24.369  0.00  0.00    -0.155 F 
ATOM     28  C   UNL     1      35.196 -17.900 -23.086  0.00  0.00    +0.509 C 
ENDBRANCH  25  28
ENDBRANCH   8  25
TORSDOF 7
ENDMDL
MODEL 6
REMARK VINA RESULT:      -9.4      7.978     11.503
REMARK  Name = 4679
REMARK  7 active torsions:
REMARK  status: ('A' for Active; 'I' for Inactive)
REMARK    1  A    between atoms: C_4  and  S_12
REMARK    2  A    between atoms: C_8  and  O_25
REMARK    3  A    between atoms: S_12  and  C_14
REMARK    4  A    between atoms: C_14  and  C_16
REMARK    5  A    between atoms: C_17  and  O_21
REMARK    6  A    between atoms: C_18  and  O_23
REMARK    7  A    between atoms: O_25  and  C_28
REMARK                            x       y       z     vdW  Elec       q    Type
REMARK                         _______ _______ _______ _____ _____    ______ ____
ROOT
ATOM      1  N   UNL     1      32.473 -11.414 -22.953  0.00  0.00    -0.307 N 
ATOM      2  N   UNL     1      34.250 -11.740 -24.247  0.00  0.00    -0.307 N 
ATOM      3  C   UNL     1      33.022 -10.172 -23.138  0.00  0.00    +0.063 C 
ATOM      4  C   UNL     1      33.241 -12.316 -23.634  0.00  0.00    +0.226 C 
ATOM      5  C   UNL     1      34.131 -10.401 -23.949  0.00  0.00    +0.060 C 
ATOM      6  C   UNL     1      32.657  -8.906 -22.679  0.00  0.00    +0.053 C 
ATOM      7  C   UNL     1      34.933  -9.314 -24.336  0.00  0.00    +0.019 C 
ATOM      8  C   UNL     1      33.467  -7.836 -23.074  0.00  0.00    +0.146 C 
ATOM      9  C   UNL     1      34.585  -8.034 -23.888  0.00  0.00    +0.038 C 
ATOM     10  H   UNL     1      31.669 -11.621 -22.423  0.00  0.00    +0.149 HD
ATOM     11  H   UNL     1      34.942 -12.170 -24.800  0.00  0.00    +0.149 HD
ENDROOT
BRANCH   4  12
ATOM     12  S   UNL     1      32.916 -14.075 -23.687  0.00  0.00    +0.085 S 
ATOM     13  O   UNL     1      32.153 -14.468 -22.437  0.00  0.00    -0.252 OA
BRANCH  12  14
ATOM     14  C   UNL     1      34.604 -14.721 -23.506  0.00  0.00    +0.144 C 
BRANCH  14  16
ATOM     15  N   UNL     1      34.347 -16.672 -24.902  0.00  0.00    -0.244 NA
ATOM     16  C   UNL     1      34.648 -16.213 -23.670  0.00  0.00    +0.109 C 
ATOM     17  C   UNL     1      34.984 -17.012 -22.595  0.00  0.00    +0.187 C 
ATOM     18  C   UNL     1      35.013 -18.388 -22.798  0.00  0.00    +0.175 C 
ATOM     19  C   UNL     1      34.708 -18.906 -24.052  0.00  0.00    +0.061 C 
ATOM     20  C   UNL     1      34.385 -18.014 -25.061  0.00  0.00    +0.102 C 
BRANCH  17  21
ATOM     21  O   UNL     1      35.279 -16.483 -21.378  0.00  0.00    -0.467 OA
ATOM     22  C   UNL     1      34.206 -16.163 -20.514  0.00  0.00    +0.253 C 
ENDBRANCH  17  21
BRANCH  18  23
ATOM     23  O   UNL     1      35.337 -19.233 -21.781  0.00  0.00    -0.468 OA
ATOM     24  C   UNL     1      34.283 -19.834 -21.057  0.00  0.00    +0.253 C 
ENDBRANCH  18  23
ENDBRANCH  14  16
ENDBRANCH  12  14
ENDBRANCH   4  12
BRANCH   8  25
ATOM     25  O   UNL     1      33.157  -6.575 -22.655  0.00  0.00    -0.424 OA
BRANCH  25  28
ATOM     26  F   UNL     1      32.173  -6.198 -20.678  0.00  0.00    -0.155 F 
ATOM     27  F   UNL     1      31.330  -5.256 -22.448  0.00  0.00    -0.155 F 
ATOM     28  C   UNL     1      31.911  -6.395 -21.996  0.00  0.00    +0.509 C 
ENDBRANCH  25  28
ENDBRANCH   8  25
TORSDOF 7
ENDMDL
MODEL 7
REMARK VINA RESULT:      -9.4      4.826      9.899
REMARK  Name = 4679
REMARK  7 active torsions:
REMARK  status: ('A' for Active; 'I' for Inactive)
REMARK    1  A    between atoms: C_4  and  S_12
REMARK    2  A    between atoms: C_8  and  O_25
REMARK    3  A    between atoms: S_12  and  C_14
REMARK    4  A    between atoms: C_14  and  C_16
REMARK    5  A    between atoms: C_17  and  O_21
REMARK    6  A    between atoms: C_18  and  O_23
REMARK    7  A    between atoms: O_25  and  C_28
REMARK                            x       y       z     vdW  Elec       q    Type
REMARK                         _______ _______ _______ _____ _____    ______ ____
ROOT
ATOM      1  N   UNL     1      35.804 -19.265 -21.575  0.00  0.00    -0.307 N 
ATOM      2  N   UNL     1      33.603 -19.571 -21.531  0.00  0.00    -0.307 N 
ATOM      3  C   UNL     1      35.582 -20.177 -20.576  0.00  0.00    +0.063 C 
ATOM      4  C   UNL     1      34.593 -18.934 -22.115  0.00  0.00    +0.226 C 
ATOM      5  C   UNL     1      34.200 -20.351 -20.567  0.00  0.00    +0.060 C 
ATOM      6  C   UNL     1      36.444 -20.843 -19.704  0.00  0.00    +0.053 C 
ATOM      7  C   UNL     1      33.629 -21.241 -19.641  0.00  0.00    +0.019 C 
ATOM      8  C   UNL     1      35.858 -21.724 -18.790  0.00  0.00    +0.146 C 
ATOM      9  C   UNL     1      34.475 -21.921 -18.757  0.00  0.00    +0.038 C 
ATOM     10  H   UNL     1      36.680 -18.911 -21.855  0.00  0.00    +0.149 HD
ATOM     11  H   UNL     1      32.643 -19.506 -21.737  0.00  0.00    +0.149 HD
ENDROOT
BRANCH   4  12
ATOM     12  S   UNL     1      34.375 -17.771 -23.457  0.00  0.00    +0.085 S 
ATOM     13  O   UNL     1      35.242 -18.203 -24.623  0.00  0.00    -0.252 OA
BRANCH  12  14
ATOM     14  C   UNL     1      35.151 -16.296 -22.734  0.00  0.00    +0.144 C 
BRANCH  14  16
ATOM     15  N   UNL     1      33.794 -15.684 -20.833  0.00  0.00    -0.244 NA
ATOM     16  C   UNL     1      34.134 -15.387 -22.104  0.00  0.00    +0.109 C 
ATOM     17  C   UNL     1      33.618 -14.330 -22.828  0.00  0.00    +0.187 C 
ATOM     18  C   UNL     1      32.681 -13.515 -22.200  0.00  0.00    +0.175 C 
ATOM     19  C   UNL     1      32.300 -13.785 -20.890  0.00  0.00    +0.061 C 
ATOM     20  C   UNL     1      32.881 -14.870 -20.257  0.00  0.00    +0.102 C 
BRANCH  17  21
ATOM     21  O   UNL     1      34.005 -14.085 -24.107  0.00  0.00    -0.467 OA
ATOM     22  C   UNL     1      33.175 -14.547 -25.154  0.00  0.00    +0.253 C 
ENDBRANCH  17  21
BRANCH  18  23
ATOM     23  O   UNL     1      32.133 -12.455 -22.856  0.00  0.00    -0.468 OA
ATOM     24  C   UNL     1      31.818 -11.301 -22.103  0.00  0.00    +0.253 C 
ENDBRANCH  18  23
ENDBRANCH  14  16
ENDBRANCH  12  14
ENDBRANCH   4  12
BRANCH   8  25
ATOM     25  O   UNL     1      36.652 -22.403 -17.913  0.00  0.00    -0.424 OA
BRANCH  25  28
ATOM     26  F   UNL     1      35.996 -22.107 -15.791  0.00  0.00    -0.155 F 
ATOM     27  F   UNL     1      38.127 -22.261 -16.202  0.00  0.00    -0.155 F 
ATOM     28  C   UNL     1      36.961 -21.763 -16.683  0.00  0.00    +0.509 C 
ENDBRANCH  25  28
ENDBRANCH   8  25
TORSDOF 7
ENDMDL
MODEL 8
REMARK VINA RESULT:      -9.2      6.720     11.784
REMARK  Name = 4679
REMARK  7 active torsions:
REMARK  status: ('A' for Active; 'I' for Inactive)
REMARK    1  A    between atoms: C_4  and  S_12
REMARK    2  A    between atoms: C_8  and  O_25
REMARK    3  A    between atoms: S_12  and  C_14
REMARK    4  A    between atoms: C_14  and  C_16
REMARK    5  A    between atoms: C_17  and  O_21
REMARK    6  A    between atoms: C_18  and  O_23
REMARK    7  A    between atoms: O_25  and  C_28
REMARK                            x       y       z     vdW  Elec       q    Type
REMARK                         _______ _______ _______ _____ _____    ______ ____
ROOT
ATOM      1  N   UNL     1      34.099 -15.468 -22.878  0.00  0.00    -0.307 N 
ATOM      2  N   UNL     1      33.966 -16.526 -24.827  0.00  0.00    -0.307 N 
ATOM      3  C   UNL     1      34.588 -16.728 -22.643  0.00  0.00    +0.063 C 
ATOM      4  C   UNL     1      33.741 -15.397 -24.195  0.00  0.00    +0.226 C 
ATOM      5  C   UNL     1      34.494 -17.369 -23.876  0.00  0.00    +0.060 C 
ATOM      6  C   UNL     1      35.087 -17.343 -21.496  0.00  0.00    +0.053 C 
ATOM      7  C   UNL     1      34.921 -18.704 -23.987  0.00  0.00    +0.019 C 
ATOM      8  C   UNL     1      35.508 -18.670 -21.624  0.00  0.00    +0.146 C 
ATOM      9  C   UNL     1      35.427 -19.341 -22.848  0.00  0.00    +0.038 C 
ATOM     10  H   UNL     1      34.019 -14.744 -22.215  0.00  0.00    +0.149 HD
ATOM     11  H   UNL     1      33.796 -16.727 -25.776  0.00  0.00    +0.149 HD
ENDROOT
BRANCH   4  12
ATOM     12  S   UNL     1      33.047 -13.942 -24.969  0.00  0.00    +0.085 S 
ATOM     13  O   UNL     1      33.473 -13.913 -26.424  0.00  0.00    -0.252 OA
BRANCH  12  14
ATOM     14  C   UNL     1      33.984 -12.642 -24.114  0.00  0.00    +0.144 C 
BRANCH  14  16
ATOM     15  N   UNL     1      33.197 -10.363 -24.017  0.00  0.00    -0.244 NA
ATOM     16  C   UNL     1      33.077 -11.608 -23.512  0.00  0.00    +0.109 C 
ATOM     17  C   UNL     1      32.196 -11.967 -22.511  0.00  0.00    +0.187 C 
ATOM     18  C   UNL     1      31.375 -10.973 -21.987  0.00  0.00    +0.175 C 
ATOM     19  C   UNL     1      31.465  -9.675 -22.477  0.00  0.00    +0.061 C 
ATOM     20  C   UNL     1      32.383  -9.424 -23.483  0.00  0.00    +0.102 C 
BRANCH  17  21
ATOM     21  O   UNL     1      32.125 -13.242 -22.048  0.00  0.00    -0.467 OA
ATOM     22  C   UNL     1      32.684 -13.522 -20.779  0.00  0.00    +0.253 C 
ENDBRANCH  17  21
BRANCH  18  23
ATOM     23  O   UNL     1      30.483 -11.259 -20.999  0.00  0.00    -0.468 OA
ATOM     24  C   UNL     1      30.745 -10.758 -19.704  0.00  0.00    +0.253 C 
ENDBRANCH  18  23
ENDBRANCH  14  16
ENDBRANCH  12  14
ENDBRANCH   4  12
BRANCH   8  25
ATOM     25  O   UNL     1      36.006 -19.322 -20.535  0.00  0.00    -0.424 OA
BRANCH  25  28
ATOM     26  F   UNL     1      36.091 -21.062 -19.124  0.00  0.00    -0.155 F 
ATOM     27  F   UNL     1      34.155 -20.474 -19.923  0.00  0.00    -0.155 F 
ATOM     28  C   UNL     1      35.467 -20.604 -20.240  0.00  0.00    +0.509 C 
ENDBRANCH  25  28
ENDBRANCH   8  25
TORSDOF 7
ENDMDL
MODEL 9
REMARK VINA RESULT:      -9.0      1.953      2.875
REMARK  Name = 4679
REMARK  7 active torsions:
REMARK  status: ('A' for Active; 'I' for Inactive)
REMARK    1  A    between atoms: C_4  and  S_12
REMARK    2  A    between atoms: C_8  and  O_25
REMARK    3  A    between atoms: S_12  and  C_14
REMARK    4  A    between atoms: C_14  and  C_16
REMARK    5  A    between atoms: C_17  and  O_21
REMARK    6  A    between atoms: C_18  and  O_23
REMARK    7  A    between atoms: O_25  and  C_28
REMARK                            x       y       z     vdW  Elec       q    Type
REMARK                         _______ _______ _______ _____ _____    ______ ____
ROOT
ATOM      1  N   UNL     1      33.078 -21.521 -19.290  0.00  0.00    -0.307 N 
ATOM      2  N   UNL     1      35.131 -22.096 -18.664  0.00  0.00    -0.307 N 
ATOM      3  C   UNL     1      33.919 -20.714 -20.012  0.00  0.00    +0.063 C 
ATOM      4  C   UNL     1      33.848 -22.328 -18.501  0.00  0.00    +0.226 C 
ATOM      5  C   UNL     1      35.196 -21.092 -19.603  0.00  0.00    +0.060 C 
ATOM      6  C   UNL     1      33.681 -19.716 -20.957  0.00  0.00    +0.053 C 
ATOM      7  C   UNL     1      36.312 -20.447 -20.161  0.00  0.00    +0.019 C 
ATOM      8  C   UNL     1      34.804 -19.084 -21.502  0.00  0.00    +0.146 C 
ATOM      9  C   UNL     1      36.097 -19.442 -21.113  0.00  0.00    +0.038 C 
ATOM     10  H   UNL     1      32.094 -21.519 -19.332  0.00  0.00    +0.149 HD
ATOM     11  H   UNL     1      35.884 -22.543 -18.214  0.00  0.00    +0.149 HD
ENDROOT
BRANCH   4  12
ATOM     12  S   UNL     1      33.192 -23.554 -17.376  0.00  0.00    +0.085 S 
ATOM     13  O   UNL     1      31.680 -23.564 -17.492  0.00  0.00    -0.252 OA
BRANCH  12  14
ATOM     14  C   UNL     1      33.599 -22.783 -15.783  0.00  0.00    +0.144 C 
BRANCH  14  16
ATOM     15  N   UNL     1      35.881 -23.568 -15.807  0.00  0.00    -0.244 NA
ATOM     16  C   UNL     1      34.736 -23.487 -15.100  0.00  0.00    +0.109 C 
ATOM     17  C   UNL     1      34.562 -23.997 -13.828  0.00  0.00    +0.187 C 
ATOM     18  C   UNL     1      35.644 -24.640 -13.237  0.00  0.00    +0.175 C 
ATOM     19  C   UNL     1      36.845 -24.747 -13.930  0.00  0.00    +0.061 C 
ATOM     20  C   UNL     1      36.911 -24.199 -15.200  0.00  0.00    +0.102 C 
BRANCH  17  21
ATOM     21  O   UNL     1      33.379 -23.881 -13.170  0.00  0.00    -0.467 OA
ATOM     22  C   UNL     1      32.339 -24.780 -13.504  0.00  0.00    +0.253 C 
ENDBRANCH  17  21
BRANCH  18  23
ATOM     23  O   UNL     1      35.542 -25.165 -11.985  0.00  0.00    -0.468 OA
ATOM     24  C   UNL     1      35.960 -24.368 -10.896  0.00  0.00    +0.253 C 
ENDBRANCH  18  23
ENDBRANCH  14  16
ENDBRANCH  12  14
ENDBRANCH   4  12
BRANCH   8  25
ATOM     25  O   UNL     1      34.632 -18.101 -22.431  0.00  0.00    -0.424 OA
BRANCH  25  28
ATOM     26  F   UNL     1      35.450 -16.129 -23.113  0.00  0.00    -0.155 F 
ATOM     27  F   UNL     1      33.777 -16.129 -21.723  0.00  0.00    -0.155 F 
ATOM     28  C   UNL     1      34.931 -16.770 -22.034  0.00  0.00    +0.509 C 
ENDBRANCH  25  28
ENDBRANCH   8  25
TORSDOF 7
ENDMDL
