MODEL 1
REMARK VINA RESULT:      -9.1      0.000      0.000
REMARK  Name = 208902
REMARK  4 active torsions:
REMARK  status: ('A' for Active; 'I' for Inactive)
REMARK    1  A    between atoms: C_2  and  C_13
REMARK    2  A    between atoms: C_13  and  C_14
REMARK    3  A    between atoms: C_14  and  N_16
REMARK    4  A    between atoms: C_17  and  C_19
REMARK                            x       y       z     vdW  Elec       q    Type
REMARK                         _______ _______ _______ _____ _____    ______ ____
ROOT
ATOM      1  O   UNL     1      32.545 -14.191 -25.548  0.00  0.00    -0.475 OA
ATOM      2  C   UNL     1      35.181 -16.790 -22.299  0.00  0.00    +0.024 C 
ATOM      3  C   UNL     1      34.259 -15.712 -22.791  0.00  0.00    -0.027 C 
ATOM      4  C   UNL     1      34.916 -16.728 -20.778  0.00  0.00    +0.009 C 
ATOM      5  C   UNL     1      34.553 -15.272 -20.457  0.00  0.00    +0.026 C 
ATOM      6  C   UNL     1      33.899 -14.853 -21.736  0.00  0.00    -0.026 C 
ATOM      7  C   UNL     1      33.791 -15.437 -24.054  0.00  0.00    +0.011 C 
ATOM      8  C   UNL     1      33.963 -16.145 -25.339  0.00  0.00    +0.076 C 
ATOM      9  C   UNL     1      32.955 -14.341 -24.246  0.00  0.00    +0.134 C 
ATOM     10  C   UNL     1      33.069 -13.750 -21.931  0.00  0.00    -0.001 C 
ATOM     11  C   UNL     1      33.416 -15.079 -26.286  0.00  0.00    +0.210 C 
ATOM     12  C   UNL     1      32.575 -13.495 -23.212  0.00  0.00    +0.036 C 
ENDROOT
BRANCH   2  13
ATOM     13  C   UNL     1      34.930 -18.185 -22.850  0.00  0.00    +0.026 C 
BRANCH  13  14
ATOM     14  C   UNL     1      33.918 -18.973 -22.025  0.00  0.00    +0.090 C 
BRANCH  14  16
ATOM     15  O   UNL     1      32.772 -20.524 -19.867  0.00  0.00    -0.275 OA
ATOM     16  N   UNL     1      34.612 -19.952 -21.160  0.00  0.00    -0.304 N 
ATOM     17  C   UNL     1      33.959 -20.628 -20.165  0.00  0.00    +0.222 C 
ATOM     18  H   UNL     1      35.571 -20.121 -21.304  0.00  0.00    +0.149 HD
BRANCH  17  19
ATOM     19  C   UNL     1      34.916 -21.561 -19.446  0.00  0.00    +0.085 C 
ATOM     20  C   UNL     1      36.372 -21.219 -19.706  0.00  0.00    +0.010 C 
ENDBRANCH  17  19
ENDBRANCH  14  16
ENDBRANCH  13  14
ENDBRANCH   2  13
TORSDOF 4
ENDMDL
MODEL 2
REMARK VINA RESULT:      -9.1      2.839      6.605
REMARK  Name = 208902
REMARK  4 active torsions:
REMARK  status: ('A' for Active; 'I' for Inactive)
REMARK    1  A    between atoms: C_2  and  C_13
REMARK    2  A    between atoms: C_13  and  C_14
REMARK    3  A    between atoms: C_14  and  N_16
REMARK    4  A    between atoms: C_17  and  C_19
REMARK                            x       y       z     vdW  Elec       q    Type
REMARK                         _______ _______ _______ _____ _____    ______ ____
ROOT
ATOM      1  O   UNL     1      35.290 -19.747 -22.135  0.00  0.00    -0.475 OA
ATOM      2  C   UNL     1      34.416 -14.985 -23.041  0.00  0.00    +0.024 C 
ATOM      3  C   UNL     1      34.519 -16.455 -23.328  0.00  0.00    -0.027 C 
ATOM      4  C   UNL     1      33.570 -14.512 -24.244  0.00  0.00    +0.009 C 
ATOM      5  C   UNL     1      33.910 -15.448 -25.412  0.00  0.00    +0.026 C 
ATOM      6  C   UNL     1      34.224 -16.715 -24.679  0.00  0.00    -0.026 C 
ATOM      7  C   UNL     1      34.887 -17.505 -22.520  0.00  0.00    +0.011 C 
ATOM      8  C   UNL     1      35.226 -17.564 -21.084  0.00  0.00    +0.076 C 
ATOM      9  C   UNL     1      34.926 -18.791 -23.051  0.00  0.00    +0.134 C 
ATOM     10  C   UNL     1      34.272 -18.002 -25.212  0.00  0.00    -0.001 C 
ATOM     11  C   UNL     1      35.801 -18.978 -21.022  0.00  0.00    +0.210 C 
ATOM     12  C   UNL     1      34.618 -19.066 -24.378  0.00  0.00    +0.036 C 
ENDROOT
BRANCH   2  13
ATOM     13  C   UNL     1      33.763 -14.608 -21.720  0.00  0.00    +0.026 C 
BRANCH  13  14
ATOM     14  C   UNL     1      32.434 -13.883 -21.903  0.00  0.00    +0.090 C 
BRANCH  14  16
ATOM     15  O   UNL     1      31.057 -11.338 -21.924  0.00  0.00    -0.275 OA
ATOM     16  N   UNL     1      32.167 -13.001 -20.746  0.00  0.00    -0.304 N 
ATOM     17  C   UNL     1      31.501 -11.812 -20.881  0.00  0.00    +0.222 C 
ATOM     18  H   UNL     1      32.477 -13.277 -19.854  0.00  0.00    +0.149 HD
BRANCH  17  19
ATOM     19  C   UNL     1      31.370 -11.125 -19.535  0.00  0.00    +0.085 C 
ATOM     20  C   UNL     1      31.926  -9.713 -19.543  0.00  0.00    +0.010 C 
ENDBRANCH  17  19
ENDBRANCH  14  16
ENDBRANCH  13  14
ENDBRANCH   2  13
TORSDOF 4
ENDMDL
MODEL 3
REMARK VINA RESULT:      -9.0      2.043      3.589
REMARK  Name = 208902
REMARK  4 active torsions:
REMARK  status: ('A' for Active; 'I' for Inactive)
REMARK    1  A    between atoms: C_2  and  C_13
REMARK    2  A    between atoms: C_13  and  C_14
REMARK    3  A    between atoms: C_14  and  N_16
REMARK    4  A    between atoms: C_17  and  C_19
REMARK                            x       y       z     vdW  Elec       q    Type
REMARK                         _______ _______ _______ _____ _____    ______ ____
ROOT
ATOM      1  O   UNL     1      34.366 -14.136 -21.991  0.00  0.00    -0.475 OA
ATOM      2  C   UNL     1      34.781 -19.035 -22.301  0.00  0.00    +0.024 C 
ATOM      3  C   UNL     1      34.648 -17.620 -22.788  0.00  0.00    -0.027 C 
ATOM      4  C   UNL     1      35.225 -19.748 -23.598  0.00  0.00    +0.009 C 
ATOM      5  C   UNL     1      34.594 -18.973 -24.762  0.00  0.00    +0.026 C 
ATOM      6  C   UNL     1      34.548 -17.590 -24.191  0.00  0.00    -0.026 C 
ATOM      7  C   UNL     1      34.565 -16.435 -22.096  0.00  0.00    +0.011 C 
ATOM      8  C   UNL     1      34.659 -16.135 -20.652  0.00  0.00    +0.076 C 
ATOM      9  C   UNL     1      34.417 -15.245 -22.800  0.00  0.00    +0.134 C 
ATOM     10  C   UNL     1      34.390 -16.397 -24.896  0.00  0.00    -0.001 C 
ATOM     11  C   UNL     1      34.174 -14.687 -20.668  0.00  0.00    +0.210 C 
ATOM     12  C   UNL     1      34.336 -15.196 -24.187  0.00  0.00    +0.036 C 
ENDROOT
BRANCH   2  13
ATOM     13  C   UNL     1      35.775 -19.261 -21.173  0.00  0.00    +0.026 C 
BRANCH  13  14
ATOM     14  C   UNL     1      35.649 -20.644 -20.543  0.00  0.00    +0.090 C 
BRANCH  14  16
ATOM     15  O   UNL     1      35.274 -22.476 -18.334  0.00  0.00    -0.275 OA
ATOM     16  N   UNL     1      36.436 -20.711 -19.292  0.00  0.00    -0.304 N 
ATOM     17  C   UNL     1      36.162 -21.628 -18.313  0.00  0.00    +0.222 C 
ATOM     18  H   UNL     1      37.179 -20.078 -19.160  0.00  0.00    +0.149 HD
BRANCH  17  19
ATOM     19  C   UNL     1      37.127 -21.466 -17.153  0.00  0.00    +0.085 C 
ATOM     20  C   UNL     1      37.111 -22.655 -16.210  0.00  0.00    +0.010 C 
ENDBRANCH  17  19
ENDBRANCH  14  16
ENDBRANCH  13  14
ENDBRANCH   2  13
TORSDOF 4
ENDMDL
MODEL 4
REMARK VINA RESULT:      -9.0      1.605      3.020
REMARK  Name = 208902
REMARK  4 active torsions:
REMARK  status: ('A' for Active; 'I' for Inactive)
REMARK    1  A    between atoms: C_2  and  C_13
REMARK    2  A    between atoms: C_13  and  C_14
REMARK    3  A    between atoms: C_14  and  N_16
REMARK    4  A    between atoms: C_17  and  C_19
REMARK                            x       y       z     vdW  Elec       q    Type
REMARK                         _______ _______ _______ _____ _____    ______ ____
ROOT
ATOM      1  O   UNL     1      32.495 -12.999 -22.050  0.00  0.00    -0.475 OA
ATOM      2  C   UNL     1      34.527 -17.452 -22.596  0.00  0.00    +0.024 C 
ATOM      3  C   UNL     1      33.971 -16.121 -23.012  0.00  0.00    -0.027 C 
ATOM      4  C   UNL     1      35.278 -17.868 -23.881  0.00  0.00    +0.009 C 
ATOM      5  C   UNL     1      34.514 -17.243 -25.055  0.00  0.00    +0.026 C 
ATOM      6  C   UNL     1      33.971 -16.004 -24.414  0.00  0.00    -0.026 C 
ATOM      7  C   UNL     1      33.450 -15.091 -22.265  0.00  0.00    +0.011 C 
ATOM      8  C   UNL     1      33.332 -14.902 -20.805  0.00  0.00    +0.076 C 
ATOM      9  C   UNL     1      32.969 -13.957 -22.912  0.00  0.00    +0.134 C 
ATOM     10  C   UNL     1      33.481 -14.871 -25.062  0.00  0.00    -0.001 C 
ATOM     11  C   UNL     1      32.397 -13.694 -20.786  0.00  0.00    +0.210 C 
ATOM     12  C   UNL     1      32.981 -13.818 -24.294  0.00  0.00    +0.036 C 
ENDROOT
BRANCH   2  13
ATOM     13  C   UNL     1      35.453 -17.440 -21.390  0.00  0.00    +0.026 C 
BRANCH  13  14
ATOM     14  C   UNL     1      36.150 -18.778 -21.166  0.00  0.00    +0.090 C 
BRANCH  14  16
ATOM     15  O   UNL     1      36.817 -21.240 -19.799  0.00  0.00    -0.275 OA
ATOM     16  N   UNL     1      35.211 -19.752 -20.567  0.00  0.00    -0.304 N 
ATOM     17  C   UNL     1      35.649 -20.889 -19.943  0.00  0.00    +0.222 C 
ATOM     18  H   UNL     1      34.244 -19.578 -20.620  0.00  0.00    +0.149 HD
BRANCH  17  19
ATOM     19  C   UNL     1      34.471 -21.694 -19.426  0.00  0.00    +0.085 C 
ATOM     20  C   UNL     1      33.137 -21.032 -19.722  0.00  0.00    +0.010 C 
ENDBRANCH  17  19
ENDBRANCH  14  16
ENDBRANCH  13  14
ENDBRANCH   2  13
TORSDOF 4
ENDMDL
MODEL 5
REMARK VINA RESULT:      -8.9      3.869      6.990
REMARK  Name = 208902
REMARK  4 active torsions:
REMARK  status: ('A' for Active; 'I' for Inactive)
REMARK    1  A    between atoms: C_2  and  C_13
REMARK    2  A    between atoms: C_13  and  C_14
REMARK    3  A    between atoms: C_14  and  N_16
REMARK    4  A    between atoms: C_17  and  C_19
REMARK                            x       y       z     vdW  Elec       q    Type
REMARK                         _______ _______ _______ _____ _____    ______ ____
ROOT
ATOM      1  O   UNL     1      34.168 -15.760 -26.060  0.00  0.00    -0.475 OA
ATOM      2  C   UNL     1      32.269 -13.790 -21.963  0.00  0.00    +0.024 C 
ATOM      3  C   UNL     1      33.116 -14.709 -22.797  0.00  0.00    -0.027 C 
ATOM      4  C   UNL     1      32.927 -13.969 -20.577  0.00  0.00    +0.009 C 
ATOM      5  C   UNL     1      33.478 -15.400 -20.535  0.00  0.00    +0.026 C 
ATOM      6  C   UNL     1      33.807 -15.620 -21.979  0.00  0.00    -0.026 C 
ATOM      7  C   UNL     1      33.259 -14.808 -24.161  0.00  0.00    +0.011 C 
ATOM      8  C   UNL     1      32.700 -14.002 -25.266  0.00  0.00    +0.076 C 
ATOM      9  C   UNL     1      34.102 -15.782 -24.688  0.00  0.00    +0.134 C 
ATOM     10  C   UNL     1      34.644 -16.602 -22.507  0.00  0.00    -0.001 C 
ATOM     11  C   UNL     1      33.066 -14.906 -26.442  0.00  0.00    +0.210 C 
ATOM     12  C   UNL     1      34.806 -16.676 -23.892  0.00  0.00    +0.036 C 
ENDROOT
BRANCH   2  13
ATOM     13  C   UNL     1      32.254 -12.330 -22.387  0.00  0.00    +0.026 C 
BRANCH  13  14
ATOM     14  C   UNL     1      31.435 -11.450 -21.449  0.00  0.00    +0.090 C 
BRANCH  14  16
ATOM     15  O   UNL     1      32.197  -9.642 -19.321  0.00  0.00    -0.275 OA
ATOM     16  N   UNL     1      31.846 -10.036 -21.581  0.00  0.00    -0.304 N 
ATOM     17  C   UNL     1      32.186  -9.276 -20.494  0.00  0.00    +0.222 C 
ATOM     18  H   UNL     1      31.876  -9.629 -22.477  0.00  0.00    +0.149 HD
BRANCH  17  19
ATOM     19  C   UNL     1      32.565  -7.873 -20.929  0.00  0.00    +0.085 C 
ATOM     20  C   UNL     1      33.248  -7.845 -22.284  0.00  0.00    +0.010 C 
ENDBRANCH  17  19
ENDBRANCH  14  16
ENDBRANCH  13  14
ENDBRANCH   2  13
TORSDOF 4
ENDMDL
MODEL 6
REMARK VINA RESULT:      -8.8      3.078      7.189
REMARK  Name = 208902
REMARK  4 active torsions:
REMARK  status: ('A' for Active; 'I' for Inactive)
REMARK    1  A    between atoms: C_2  and  C_13
REMARK    2  A    between atoms: C_13  and  C_14
REMARK    3  A    between atoms: C_14  and  N_16
REMARK    4  A    between atoms: C_17  and  C_19
REMARK                            x       y       z     vdW  Elec       q    Type
REMARK                         _______ _______ _______ _____ _____    ______ ____
ROOT
ATOM      1  O   UNL     1      35.191 -18.446 -21.925  0.00  0.00    -0.475 OA
ATOM      2  C   UNL     1      33.587 -14.237 -23.921  0.00  0.00    +0.024 C 
ATOM      3  C   UNL     1      34.002 -15.680 -23.872  0.00  0.00    -0.027 C 
ATOM      4  C   UNL     1      32.853 -14.192 -25.279  0.00  0.00    +0.009 C 
ATOM      5  C   UNL     1      33.527 -15.238 -26.176  0.00  0.00    +0.026 C 
ATOM      6  C   UNL     1      33.961 -16.247 -25.159  0.00  0.00    -0.026 C 
ATOM      7  C   UNL     1      34.437 -16.455 -22.824  0.00  0.00    +0.011 C 
ATOM      8  C   UNL     1      34.569 -16.167 -21.380  0.00  0.00    +0.076 C 
ATOM      9  C   UNL     1      34.793 -17.780 -23.059  0.00  0.00    +0.134 C 
ATOM     10  C   UNL     1      34.325 -17.572 -25.395  0.00  0.00    -0.001 C 
ATOM     11  C   UNL     1      35.382 -17.389 -20.957  0.00  0.00    +0.210 C 
ATOM     12  C   UNL     1      34.738 -18.361 -24.320  0.00  0.00    +0.036 C 
ENDROOT
BRANCH   2  13
ATOM     13  C   UNL     1      32.690 -13.764 -22.787  0.00  0.00    +0.026 C 
BRANCH  13  14
ATOM     14  C   UNL     1      32.427 -12.262 -22.830  0.00  0.00    +0.090 C 
BRANCH  14  16
ATOM     15  O   UNL     1      32.501  -9.544 -23.821  0.00  0.00    -0.275 OA
ATOM     16  N   UNL     1      33.587 -11.554 -23.413  0.00  0.00    -0.304 N 
ATOM     17  C   UNL     1      33.499 -10.260 -23.851  0.00  0.00    +0.222 C 
ATOM     18  H   UNL     1      34.447 -12.027 -23.489  0.00  0.00    +0.149 HD
BRANCH  17  19
ATOM     19  C   UNL     1      34.837  -9.795 -24.395  0.00  0.00    +0.085 C 
ATOM     20  C   UNL     1      35.220 -10.501 -25.683  0.00  0.00    +0.010 C 
ENDBRANCH  17  19
ENDBRANCH  14  16
ENDBRANCH  13  14
ENDBRANCH   2  13
TORSDOF 4
ENDMDL
MODEL 7
REMARK VINA RESULT:      -8.7      3.268      6.131
REMARK  Name = 208902
REMARK  4 active torsions:
REMARK  status: ('A' for Active; 'I' for Inactive)
REMARK    1  A    between atoms: C_2  and  C_13
REMARK    2  A    between atoms: C_13  and  C_14
REMARK    3  A    between atoms: C_14  and  N_16
REMARK    4  A    between atoms: C_17  and  C_19
REMARK                            x       y       z     vdW  Elec       q    Type
REMARK                         _______ _______ _______ _____ _____    ______ ____
ROOT
ATOM      1  O   UNL     1      33.754 -15.577 -26.467  0.00  0.00    -0.475 OA
ATOM      2  C   UNL     1      33.558 -15.493 -21.546  0.00  0.00    +0.024 C 
ATOM      3  C   UNL     1      33.950 -15.983 -22.910  0.00  0.00    -0.027 C 
ATOM      4  C   UNL     1      34.582 -16.241 -20.664  0.00  0.00    +0.009 C 
ATOM      5  C   UNL     1      34.894 -17.562 -21.379  0.00  0.00    +0.026 C 
ATOM      6  C   UNL     1      34.716 -17.159 -22.810  0.00  0.00    -0.026 C 
ATOM      7  C   UNL     1      33.641 -15.502 -24.161  0.00  0.00    +0.011 C 
ATOM      8  C   UNL     1      32.894 -14.304 -24.593  0.00  0.00    +0.076 C 
ATOM      9  C   UNL     1      34.119 -16.171 -25.284  0.00  0.00    +0.134 C 
ATOM     10  C   UNL     1      35.186 -17.834 -23.936  0.00  0.00    -0.001 C 
ATOM     11  C   UNL     1      32.730 -14.634 -26.076  0.00  0.00    +0.210 C 
ATOM     12  C   UNL     1      34.893 -17.322 -25.201  0.00  0.00    +0.036 C 
ENDROOT
BRANCH   2  13
ATOM     13  C   UNL     1      33.632 -13.989 -21.331  0.00  0.00    +0.026 C 
BRANCH  13  14
ATOM     14  C   UNL     1      32.260 -13.350 -21.145  0.00  0.00    +0.090 C 
BRANCH  14  16
ATOM     15  O   UNL     1      30.553 -11.082 -20.584  0.00  0.00    -0.275 OA
ATOM     16  N   UNL     1      32.176 -12.084 -21.905  0.00  0.00    -0.304 N 
ATOM     17  C   UNL     1      31.324 -11.077 -21.540  0.00  0.00    +0.222 C 
ATOM     18  H   UNL     1      32.749 -11.963 -22.696  0.00  0.00    +0.149 HD
BRANCH  17  19
ATOM     19  C   UNL     1      31.453  -9.905 -22.496  0.00  0.00    +0.085 C 
ATOM     20  C   UNL     1      32.778  -9.898 -23.236  0.00  0.00    +0.010 C 
ENDBRANCH  17  19
ENDBRANCH  14  16
ENDBRANCH  13  14
ENDBRANCH   2  13
TORSDOF 4
ENDMDL
MODEL 8
REMARK VINA RESULT:      -8.5      5.116     10.128
REMARK  Name = 208902
REMARK  4 active torsions:
REMARK  status: ('A' for Active; 'I' for Inactive)
REMARK    1  A    between atoms: C_2  and  C_13
REMARK    2  A    between atoms: C_13  and  C_14
REMARK    3  A    between atoms: C_14  and  N_16
REMARK    4  A    between atoms: C_17  and  C_19
REMARK                            x       y       z     vdW  Elec       q    Type
REMARK                         _______ _______ _______ _____ _____    ______ ____
ROOT
ATOM      1  O   UNL     1      28.774 -23.828 -15.254  0.00  0.00    -0.475 OA
ATOM      2  C   UNL     1      33.561 -23.101 -16.161  0.00  0.00    +0.024 C 
ATOM      3  C   UNL     1      32.348 -23.639 -15.457  0.00  0.00    -0.027 C 
ATOM      4  C   UNL     1      34.661 -24.025 -15.593  0.00  0.00    +0.009 C 
ATOM      5  C   UNL     1      34.216 -24.417 -14.178  0.00  0.00    +0.026 C 
ATOM      6  C   UNL     1      32.727 -24.394 -14.331  0.00  0.00    -0.026 C 
ATOM      7  C   UNL     1      31.009 -23.466 -15.714  0.00  0.00    +0.011 C 
ATOM      8  C   UNL     1      30.303 -22.766 -16.806  0.00  0.00    +0.076 C 
ATOM      9  C   UNL     1      30.073 -24.064 -14.875  0.00  0.00    +0.134 C 
ATOM     10  C   UNL     1      31.788 -24.985 -13.487  0.00  0.00    -0.001 C 
ATOM     11  C   UNL     1      28.889 -22.765 -16.228  0.00  0.00    +0.210 C 
ATOM     12  C   UNL     1      30.431 -24.828 -13.772  0.00  0.00    +0.036 C 
ENDROOT
BRANCH   2  13
ATOM     13  C   UNL     1      33.524 -23.147 -17.680  0.00  0.00    +0.026 C 
BRANCH  13  14
ATOM     14  C   UNL     1      34.694 -22.409 -18.322  0.00  0.00    +0.090 C 
BRANCH  14  16
ATOM     15  O   UNL     1      36.236 -20.439 -19.778  0.00  0.00    -0.275 OA
ATOM     16  N   UNL     1      34.207 -21.489 -19.373  0.00  0.00    -0.304 N 
ATOM     17  C   UNL     1      35.037 -20.595 -19.993  0.00  0.00    +0.222 C 
ATOM     18  H   UNL     1      33.258 -21.521 -19.633  0.00  0.00    +0.149 HD
BRANCH  17  19
ATOM     19  C   UNL     1      34.268 -19.788 -21.023  0.00  0.00    +0.085 C 
ATOM     20  C   UNL     1      32.765 -19.872 -20.827  0.00  0.00    +0.010 C 
ENDBRANCH  17  19
ENDBRANCH  14  16
ENDBRANCH  13  14
ENDBRANCH   2  13
TORSDOF 4
ENDMDL
MODEL 9
REMARK VINA RESULT:      -8.5      3.674      7.193
REMARK  Name = 208902
REMARK  4 active torsions:
REMARK  status: ('A' for Active; 'I' for Inactive)
REMARK    1  A    between atoms: C_2  and  C_13
REMARK    2  A    between atoms: C_13  and  C_14
REMARK    3  A    between atoms: C_14  and  N_16
REMARK    4  A    between atoms: C_17  and  C_19
REMARK                            x       y       z     vdW  Elec       q    Type
REMARK                         _______ _______ _______ _____ _____    ______ ____
ROOT
ATOM      1  O   UNL     1      35.328 -17.697 -24.379  0.00  0.00    -0.475 OA
ATOM      2  C   UNL     1      32.463 -14.131 -22.553  0.00  0.00    +0.024 C 
ATOM      3  C   UNL     1      33.417 -15.290 -22.533  0.00  0.00    -0.027 C 
ATOM      4  C   UNL     1      32.616 -13.604 -21.108  0.00  0.00    +0.009 C 
ATOM      5  C   UNL     1      32.951 -14.819 -20.233  0.00  0.00    +0.026 C 
ATOM      6  C   UNL     1      33.697 -15.675 -21.209  0.00  0.00    -0.026 C 
ATOM      7  C   UNL     1      33.977 -16.011 -23.561  0.00  0.00    +0.011 C 
ATOM      8  C   UNL     1      33.901 -15.848 -25.027  0.00  0.00    +0.076 C 
ATOM      9  C   UNL     1      34.823 -17.075 -23.263  0.00  0.00    +0.134 C 
ATOM     10  C   UNL     1      34.538 -16.747 -20.912  0.00  0.00    -0.001 C 
ATOM     11  C   UNL     1      34.515 -17.179 -25.457  0.00  0.00    +0.210 C 
ATOM     12  C   UNL     1      35.125 -17.455 -21.961  0.00  0.00    +0.036 C 
ENDROOT
BRANCH   2  13
ATOM     13  C   UNL     1      32.757 -13.044 -23.575  0.00  0.00    +0.026 C 
BRANCH  13  14
ATOM     14  C   UNL     1      32.595 -11.638 -23.006  0.00  0.00    +0.090 C 
BRANCH  14  16
ATOM     15  O   UNL     1      32.707  -8.758 -22.746  0.00  0.00    -0.275 OA
ATOM     16  N   UNL     1      33.592 -10.724 -23.604  0.00  0.00    -0.304 N 
ATOM     17  C   UNL     1      33.541  -9.370 -23.409  0.00  0.00    +0.222 C 
ATOM     18  H   UNL     1      34.313 -11.100 -24.159  0.00  0.00    +0.149 HD
BRANCH  17  19
ATOM     19  C   UNL     1      34.685  -8.689 -24.136  0.00  0.00    +0.085 C 
ATOM     20  C   UNL     1      34.565  -7.176 -24.127  0.00  0.00    +0.010 C 
ENDBRANCH  17  19
ENDBRANCH  14  16
ENDBRANCH  13  14
ENDBRANCH   2  13
TORSDOF 4
ENDMDL
