MODEL 1
REMARK VINA RESULT:      -5.8      0.000      0.000
REMARK  Name = 244
REMARK  2 active torsions:
REMARK  status: ('A' for Active; 'I' for Inactive)
REMARK    1  A    between atoms: C_1  and  C_7
REMARK    2  A    between atoms: C_7  and  O_8
REMARK                            x       y       z     vdW  Elec       q    Type
REMARK                         _______ _______ _______ _____ _____    ______ ____
ROOT
ATOM      1  C   UNL     1      34.094 -21.467 -19.495  0.00  0.00    +0.007 C 
ATOM      2  C   UNL     1      35.398 -21.134 -19.861  0.00  0.00    -0.002 C 
ATOM      3  C   UNL     1      33.021 -20.720 -19.980  0.00  0.00    -0.002 C 
ATOM      4  C   UNL     1      35.629 -20.053 -20.712  0.00  0.00    -0.000 C 
ATOM      5  C   UNL     1      33.252 -19.639 -20.832  0.00  0.00    -0.000 C 
ATOM      6  C   UNL     1      34.556 -19.306 -21.197  0.00  0.00    -0.000 C 
ENDROOT
BRANCH   1   7
ATOM      7  C   UNL     1      33.847 -22.623 -18.585  0.00  0.00    +0.164 C 
BRANCH   7   8
ATOM      8  O   UNL     1      33.916 -23.833 -19.329  0.00  0.00    -0.377 OA
ATOM      9  H   UNL     1      33.188 -24.417 -19.066  0.00  0.00    +0.211 HD
ENDBRANCH   7   8
ENDBRANCH   1   7
TORSDOF 2
ENDMDL
MODEL 2
REMARK VINA RESULT:      -5.8      0.046      1.709
REMARK  Name = 244
REMARK  2 active torsions:
REMARK  status: ('A' for Active; 'I' for Inactive)
REMARK    1  A    between atoms: C_1  and  C_7
REMARK    2  A    between atoms: C_7  and  O_8
REMARK                            x       y       z     vdW  Elec       q    Type
REMARK                         _______ _______ _______ _____ _____    ______ ____
ROOT
ATOM      1  C   UNL     1      34.080 -21.455 -19.533  0.00  0.00    +0.007 C 
ATOM      2  C   UNL     1      33.010 -20.706 -20.022  0.00  0.00    -0.002 C 
ATOM      3  C   UNL     1      35.387 -21.111 -19.876  0.00  0.00    -0.002 C 
ATOM      4  C   UNL     1      33.247 -19.613 -20.856  0.00  0.00    -0.000 C 
ATOM      5  C   UNL     1      35.624 -20.017 -20.710  0.00  0.00    -0.000 C 
ATOM      6  C   UNL     1      34.554 -19.269 -21.199  0.00  0.00    -0.000 C 
ENDROOT
BRANCH   1   7
ATOM      7  C   UNL     1      33.826 -22.624 -18.641  0.00  0.00    +0.164 C 
BRANCH   7   8
ATOM      8  O   UNL     1      33.924 -23.824 -19.397  0.00  0.00    -0.377 OA
ATOM      9  H   UNL     1      33.202 -23.860 -20.043  0.00  0.00    +0.211 HD
ENDBRANCH   7   8
ENDBRANCH   1   7
TORSDOF 2
ENDMDL
MODEL 3
REMARK VINA RESULT:      -5.6      2.464      3.492
REMARK  Name = 244
REMARK  2 active torsions:
REMARK  status: ('A' for Active; 'I' for Inactive)
REMARK    1  A    between atoms: C_1  and  C_7
REMARK    2  A    between atoms: C_7  and  O_8
REMARK                            x       y       z     vdW  Elec       q    Type
REMARK                         _______ _______ _______ _____ _____    ______ ____
ROOT
ATOM      1  C   UNL     1      35.039 -19.815 -20.717  0.00  0.00    +0.007 C 
ATOM      2  C   UNL     1      35.895 -20.730 -20.105  0.00  0.00    -0.002 C 
ATOM      3  C   UNL     1      33.657 -19.986 -20.628  0.00  0.00    -0.002 C 
ATOM      4  C   UNL     1      35.370 -21.816 -19.403  0.00  0.00    -0.000 C 
ATOM      5  C   UNL     1      33.132 -21.071 -19.926  0.00  0.00    -0.000 C 
ATOM      6  C   UNL     1      33.989 -21.985 -19.314  0.00  0.00    -0.000 C 
ENDROOT
BRANCH   1   7
ATOM      7  C   UNL     1      35.600 -18.654 -21.467  0.00  0.00    +0.164 C 
BRANCH   7   8
ATOM      8  O   UNL     1      35.423 -17.468 -20.703  0.00  0.00    -0.377 OA
ATOM      9  H   UNL     1      35.208 -16.731 -21.295  0.00  0.00    +0.211 HD
ENDBRANCH   7   8
ENDBRANCH   1   7
TORSDOF 2
ENDMDL
MODEL 4
REMARK VINA RESULT:      -5.6      2.424      3.846
REMARK  Name = 244
REMARK  2 active torsions:
REMARK  status: ('A' for Active; 'I' for Inactive)
REMARK    1  A    between atoms: C_1  and  C_7
REMARK    2  A    between atoms: C_7  and  O_8
REMARK                            x       y       z     vdW  Elec       q    Type
REMARK                         _______ _______ _______ _____ _____    ______ ____
ROOT
ATOM      1  C   UNL     1      34.622 -19.875 -20.642  0.00  0.00    +0.007 C 
ATOM      2  C   UNL     1      33.388 -20.401 -20.259  0.00  0.00    -0.002 C 
ATOM      3  C   UNL     1      35.802 -20.509 -20.252  0.00  0.00    -0.002 C 
ATOM      4  C   UNL     1      33.334 -21.560 -19.485  0.00  0.00    -0.000 C 
ATOM      5  C   UNL     1      35.747 -21.669 -19.479  0.00  0.00    -0.000 C 
ATOM      6  C   UNL     1      34.514 -22.194 -19.096  0.00  0.00    -0.000 C 
ENDROOT
BRANCH   1   7
ATOM      7  C   UNL     1      34.680 -18.635 -21.469  0.00  0.00    +0.164 C 
BRANCH   7   8
ATOM      8  O   UNL     1      35.380 -17.623 -20.755  0.00  0.00    -0.377 OA
ATOM      9  H   UNL     1      36.279 -17.928 -20.561  0.00  0.00    +0.211 HD
ENDBRANCH   7   8
ENDBRANCH   1   7
TORSDOF 2
ENDMDL
MODEL 5
REMARK VINA RESULT:      -5.5      1.163      1.780
REMARK  Name = 244
REMARK  2 active torsions:
REMARK  status: ('A' for Active; 'I' for Inactive)
REMARK    1  A    between atoms: C_1  and  C_7
REMARK    2  A    between atoms: C_7  and  O_8
REMARK                            x       y       z     vdW  Elec       q    Type
REMARK                         _______ _______ _______ _____ _____    ______ ____
ROOT
ATOM      1  C   UNL     1      35.332 -20.956 -19.728  0.00  0.00    +0.007 C 
ATOM      2  C   UNL     1      35.686 -19.972 -20.652  0.00  0.00    -0.002 C 
ATOM      3  C   UNL     1      33.989 -21.278 -19.532  0.00  0.00    -0.002 C 
ATOM      4  C   UNL     1      34.697 -19.310 -21.379  0.00  0.00    -0.000 C 
ATOM      5  C   UNL     1      33.000 -20.616 -20.260  0.00  0.00    -0.000 C 
ATOM      6  C   UNL     1      33.354 -19.633 -21.183  0.00  0.00    -0.000 C 
ENDROOT
BRANCH   1   7
ATOM      7  C   UNL     1      36.390 -21.664 -18.950  0.00  0.00    +0.164 C 
BRANCH   7   8
ATOM      8  O   UNL     1      35.788 -22.384 -17.882  0.00  0.00    -0.377 OA
ATOM      9  H   UNL     1      35.895 -23.336 -18.033  0.00  0.00    +0.211 HD
ENDBRANCH   7   8
ENDBRANCH   1   7
TORSDOF 2
ENDMDL
MODEL 6
REMARK VINA RESULT:      -5.2      3.653      4.873
REMARK  Name = 244
REMARK  2 active torsions:
REMARK  status: ('A' for Active; 'I' for Inactive)
REMARK    1  A    between atoms: C_1  and  C_7
REMARK    2  A    between atoms: C_7  and  O_8
REMARK                            x       y       z     vdW  Elec       q    Type
REMARK                         _______ _______ _______ _____ _____    ______ ____
ROOT
ATOM      1  C   UNL     1      35.047 -18.414 -22.765  0.00  0.00    +0.007 C 
ATOM      2  C   UNL     1      35.199 -17.033 -22.639  0.00  0.00    -0.002 C 
ATOM      3  C   UNL     1      34.691 -18.967 -23.995  0.00  0.00    -0.002 C 
ATOM      4  C   UNL     1      34.996 -16.205 -23.744  0.00  0.00    -0.000 C 
ATOM      5  C   UNL     1      34.489 -18.139 -25.100  0.00  0.00    -0.000 C 
ATOM      6  C   UNL     1      34.641 -16.759 -24.973  0.00  0.00    -0.000 C 
ENDROOT
BRANCH   1   7
ATOM      7  C   UNL     1      35.264 -19.299 -21.584  0.00  0.00    +0.164 C 
BRANCH   7   8
ATOM      8  O   UNL     1      35.949 -18.575 -20.570  0.00  0.00    -0.377 OA
ATOM      9  H   UNL     1      35.594 -17.674 -20.522  0.00  0.00    +0.211 HD
ENDBRANCH   7   8
ENDBRANCH   1   7
TORSDOF 2
ENDMDL
MODEL 7
REMARK VINA RESULT:      -5.2      3.636      4.878
REMARK  Name = 244
REMARK  2 active torsions:
REMARK  status: ('A' for Active; 'I' for Inactive)
REMARK    1  A    between atoms: C_1  and  C_7
REMARK    2  A    between atoms: C_7  and  O_8
REMARK                            x       y       z     vdW  Elec       q    Type
REMARK                         _______ _______ _______ _____ _____    ______ ____
ROOT
ATOM      1  C   UNL     1      35.055 -18.437 -22.741  0.00  0.00    +0.007 C 
ATOM      2  C   UNL     1      34.705 -19.011 -23.963  0.00  0.00    -0.002 C 
ATOM      3  C   UNL     1      35.194 -17.053 -22.635  0.00  0.00    -0.002 C 
ATOM      4  C   UNL     1      34.495 -18.201 -25.080  0.00  0.00    -0.000 C 
ATOM      5  C   UNL     1      34.983 -16.243 -23.751  0.00  0.00    -0.000 C 
ATOM      6  C   UNL     1      34.634 -16.817 -24.973  0.00  0.00    -0.000 C 
ENDROOT
BRANCH   1   7
ATOM      7  C   UNL     1      35.279 -19.303 -21.547  0.00  0.00    +0.164 C 
BRANCH   7   8
ATOM      8  O   UNL     1      35.995 -18.570 -20.561  0.00  0.00    -0.377 OA
ATOM      9  H   UNL     1      35.698 -18.840 -19.679  0.00  0.00    +0.211 HD
ENDBRANCH   7   8
ENDBRANCH   1   7
TORSDOF 2
ENDMDL
MODEL 8
REMARK VINA RESULT:      -5.2     11.034     12.281
REMARK  Name = 244
REMARK  2 active torsions:
REMARK  status: ('A' for Active; 'I' for Inactive)
REMARK    1  A    between atoms: C_1  and  C_7
REMARK    2  A    between atoms: C_7  and  O_8
REMARK                            x       y       z     vdW  Elec       q    Type
REMARK                         _______ _______ _______ _____ _____    ______ ____
ROOT
ATOM      1  C   UNL     1      32.140  -8.950 -20.734  0.00  0.00    +0.007 C 
ATOM      2  C   UNL     1      31.902  -9.560 -19.503  0.00  0.00    -0.002 C 
ATOM      3  C   UNL     1      31.804  -9.609 -21.917  0.00  0.00    -0.002 C 
ATOM      4  C   UNL     1      31.327 -10.831 -19.454  0.00  0.00    -0.000 C 
ATOM      5  C   UNL     1      31.229 -10.879 -21.868  0.00  0.00    -0.000 C 
ATOM      6  C   UNL     1      30.990 -11.489 -20.637  0.00  0.00    -0.000 C 
ENDROOT
BRANCH   1   7
ATOM      7  C   UNL     1      32.755  -7.591 -20.787  0.00  0.00    +0.164 C 
BRANCH   7   8
ATOM      8  O   UNL     1      33.203  -7.226 -19.488  0.00  0.00    -0.377 OA
ATOM      9  H   UNL     1      34.067  -7.632 -19.317  0.00  0.00    +0.211 HD
ENDBRANCH   7   8
ENDBRANCH   1   7
TORSDOF 2
ENDMDL
MODEL 9
REMARK VINA RESULT:      -5.1      4.244      5.634
REMARK  Name = 244
REMARK  2 active torsions:
REMARK  status: ('A' for Active; 'I' for Inactive)
REMARK    1  A    between atoms: C_1  and  C_7
REMARK    2  A    between atoms: C_7  and  O_8
REMARK                            x       y       z     vdW  Elec       q    Type
REMARK                         _______ _______ _______ _____ _____    ______ ____
ROOT
ATOM      1  C   UNL     1      34.884 -17.492 -23.725  0.00  0.00    +0.007 C 
ATOM      2  C   UNL     1      34.779 -18.875 -23.577  0.00  0.00    -0.002 C 
ATOM      3  C   UNL     1      35.025 -16.679 -22.600  0.00  0.00    -0.002 C 
ATOM      4  C   UNL     1      34.815 -19.445 -22.304  0.00  0.00    -0.000 C 
ATOM      5  C   UNL     1      35.062 -17.249 -21.327  0.00  0.00    -0.000 C 
ATOM      6  C   UNL     1      34.957 -18.632 -21.180  0.00  0.00    -0.000 C 
ENDROOT
BRANCH   1   7
ATOM      7  C   UNL     1      34.845 -16.882 -25.086  0.00  0.00    +0.164 C 
BRANCH   7   8
ATOM      8  O   UNL     1      33.719 -17.382 -25.795  0.00  0.00    -0.377 OA
ATOM      9  H   UNL     1      33.009 -17.593 -25.169  0.00  0.00    +0.211 HD
ENDBRANCH   7   8
ENDBRANCH   1   7
TORSDOF 2
ENDMDL
