MODEL 1
REMARK VINA RESULT:      -9.0      0.000      0.000
REMARK  Name = 5379
REMARK  5 active torsions:
REMARK  status: ('A' for Active; 'I' for Inactive)
REMARK    1  A    between atoms: N_3  and  C_22
REMARK    2  A    between atoms: C_6  and  O_25
REMARK    3  A    between atoms: C_8  and  N_13
REMARK    4  A    between atoms: C_9  and  C_28
REMARK    5  A    between atoms: C_28  and  O_29
REMARK                            x       y       z     vdW  Elec       q    Type
REMARK                         _______ _______ _______ _____ _____    ______ ____
ROOT
ATOM      1  F   UNL     1      31.072 -10.243 -20.157  0.00  0.00    -0.203 F 
ATOM      2  O   UNL     1      32.172 -14.552 -22.514  0.00  0.00    -0.286 OA
ATOM      3  N   UNL     1      33.790 -11.619 -24.839  0.00  0.00    -0.285 N 
ATOM      4  C   UNL     1      33.104 -11.238 -23.651  0.00  0.00    +0.090 C 
ATOM      5  C   UNL     1      33.890 -12.957 -25.170  0.00  0.00    +0.075 C 
ATOM      6  C   UNL     1      32.965  -9.898 -23.254  0.00  0.00    +0.168 C 
ATOM      7  C   UNL     1      32.533 -12.233 -22.828  0.00  0.00    +0.058 C 
ATOM      8  C   UNL     1      32.283  -9.562 -22.082  0.00  0.00    +0.111 C 
ATOM      9  C   UNL     1      33.387 -13.976 -24.462  0.00  0.00    +0.129 C 
ATOM     10  C   UNL     1      32.655 -13.665 -23.208  0.00  0.00    +0.204 C 
ATOM     11  C   UNL     1      31.850 -11.896 -21.653  0.00  0.00    +0.036 C 
ATOM     12  C   UNL     1      31.727 -10.558 -21.284  0.00  0.00    +0.156 C 
ENDROOT
BRANCH   8  13
ATOM     13  N   UNL     1      32.148  -8.225 -21.692  0.00  0.00    -0.308 N 
ATOM     14  N   UNL     1      31.639  -5.546 -20.856  0.00  0.00    +0.387 N 
ATOM     15  C   UNL     1      31.306  -7.346 -22.517  0.00  0.00    +0.070 C 
ATOM     16  C   UNL     1      31.681  -5.875 -22.286  0.00  0.00    -0.042 C 
ATOM     17  C   UNL     1      32.238  -7.870 -20.272  0.00  0.00    +0.068 C 
ATOM     18  C   UNL     1      32.573  -6.388 -20.113  0.00  0.00    -0.060 C 
ATOM     19  C   UNL     1      30.724  -4.952 -23.040  0.00  0.00    -0.022 C 
ATOM     20  H   UNL     1      30.694  -5.700 -20.504  0.00  0.00    -0.084 HD
ATOM     21  H   UNL     1      31.904  -4.569 -20.734  0.00  0.00    -0.084 HD
ENDBRANCH   8  13
BRANCH   3  22
ATOM     22  C   UNL     1      34.424 -10.655 -25.770  0.00  0.00    +0.077 C 
ATOM     23  C   UNL     1      35.895 -10.418 -25.734  0.00  0.00    +0.022 C 
ATOM     24  C   UNL     1      35.274 -11.133 -26.898  0.00  0.00    +0.022 C 
ENDBRANCH   3  22
BRANCH   6  25
ATOM     25  O   UNL     1      33.480  -8.861 -23.981  0.00  0.00    -0.469 OA
ATOM     26  C   UNL     1      34.597  -8.176 -23.422  0.00  0.00    +0.253 C 
ENDBRANCH   6  25
BRANCH   9  28
ATOM     27  O   UNL     1      33.360 -15.695 -26.103  0.00  0.00    -0.245 OA
ATOM     28  C   UNL     1      33.588 -15.337 -24.962  0.00  0.00    +0.342 C 
BRANCH  28  29
ATOM     29  O   UNL     1      34.059 -16.121 -23.967  0.00  0.00    -0.477 OA
ATOM     30  H   UNL     1      34.433 -15.732 -23.202  0.00  0.00    +0.295 HD
ENDBRANCH  28  29
ENDBRANCH   9  28
TORSDOF 5
ENDMDL
MODEL 2
REMARK VINA RESULT:      -8.7      2.486      7.643
REMARK  Name = 5379
REMARK  5 active torsions:
REMARK  status: ('A' for Active; 'I' for Inactive)
REMARK    1  A    between atoms: N_3  and  C_22
REMARK    2  A    between atoms: C_6  and  O_25
REMARK    3  A    between atoms: C_8  and  N_13
REMARK    4  A    between atoms: C_9  and  C_28
REMARK    5  A    between atoms: C_28  and  O_29
REMARK                            x       y       z     vdW  Elec       q    Type
REMARK                         _______ _______ _______ _____ _____    ______ ____
ROOT
ATOM      1  F   UNL     1      34.970 -11.626 -25.999  0.00  0.00    -0.203 F 
ATOM      2  O   UNL     1      33.910  -7.316 -23.626  0.00  0.00    -0.286 OA
ATOM      3  N   UNL     1      31.908 -10.198 -21.550  0.00  0.00    -0.285 N 
ATOM      4  C   UNL     1      32.681 -10.593 -22.679  0.00  0.00    +0.090 C 
ATOM      5  C   UNL     1      31.857  -8.865 -21.190  0.00  0.00    +0.075 C 
ATOM      6  C   UNL     1      32.778 -11.929 -23.100  0.00  0.00    +0.168 C 
ATOM      7  C   UNL     1      33.384  -9.615 -23.417  0.00  0.00    +0.058 C 
ATOM      8  C   UNL     1      33.546 -12.278 -24.214  0.00  0.00    +0.111 C 
ATOM      9  C   UNL     1      32.483  -7.862 -21.818  0.00  0.00    +0.129 C 
ATOM     10  C   UNL     1      33.311  -8.187 -23.008  0.00  0.00    +0.204 C 
ATOM     11  C   UNL     1      34.153  -9.965 -24.533  0.00  0.00    +0.036 C 
ATOM     12  C   UNL     1      34.231 -11.298 -24.929  0.00  0.00    +0.156 C 
ENDROOT
BRANCH   8  13
ATOM     13  N   UNL     1      33.638 -13.611 -24.629  0.00  0.00    -0.308 N 
ATOM     14  N   UNL     1      33.669 -16.383 -25.299  0.00  0.00    +0.387 N 
ATOM     15  C   UNL     1      34.232 -14.584 -23.701  0.00  0.00    +0.070 C 
ATOM     16  C   UNL     1      34.736 -15.816 -24.467  0.00  0.00    -0.042 C 
ATOM     17  C   UNL     1      32.649 -14.149 -25.569  0.00  0.00    +0.068 C 
ATOM     18  C   UNL     1      33.198 -15.393 -26.265  0.00  0.00    -0.060 C 
ATOM     19  C   UNL     1      35.234 -16.885 -23.495  0.00  0.00    -0.022 C 
ATOM     20  H   UNL     1      32.893 -16.667 -24.702  0.00  0.00    -0.084 HD
ATOM     21  H   UNL     1      34.037 -17.189 -25.803  0.00  0.00    -0.084 HD
ENDBRANCH   8  13
BRANCH   3  22
ATOM     22  C   UNL     1      31.135 -11.143 -20.710  0.00  0.00    +0.077 C 
ATOM     23  C   UNL     1      31.586 -11.478 -19.329  0.00  0.00    +0.022 C 
ATOM     24  C   UNL     1      30.348 -10.655 -19.541  0.00  0.00    +0.022 C 
ENDBRANCH   3  22
BRANCH   6  25
ATOM     25  O   UNL     1      32.136 -12.949 -22.456  0.00  0.00    -0.469 OA
ATOM     26  C   UNL     1      32.873 -13.639 -21.451  0.00  0.00    +0.253 C 
ENDBRANCH   6  25
BRANCH   9  28
ATOM     27  O   UNL     1      32.481  -6.184 -20.135  0.00  0.00    -0.245 OA
ATOM     28  C   UNL     1      32.318  -6.504 -21.298  0.00  0.00    +0.342 C 
BRANCH  28  29
ATOM     29  O   UNL     1      31.961  -5.674 -22.303  0.00  0.00    -0.477 OA
ATOM     30  H   UNL     1      31.139  -5.224 -22.268  0.00  0.00    +0.295 HD
ENDBRANCH  28  29
ENDBRANCH   9  28
TORSDOF 5
ENDMDL
MODEL 3
REMARK VINA RESULT:      -8.5      5.003      9.024
REMARK  Name = 5379
REMARK  5 active torsions:
REMARK  status: ('A' for Active; 'I' for Inactive)
REMARK    1  A    between atoms: N_3  and  C_22
REMARK    2  A    between atoms: C_6  and  O_25
REMARK    3  A    between atoms: C_8  and  N_13
REMARK    4  A    between atoms: C_9  and  C_28
REMARK    5  A    between atoms: C_28  and  O_29
REMARK                            x       y       z     vdW  Elec       q    Type
REMARK                         _______ _______ _______ _____ _____    ______ ____
ROOT
ATOM      1  F   UNL     1      35.191 -19.592 -24.270  0.00  0.00    -0.203 F 
ATOM      2  O   UNL     1      33.970 -15.434 -26.830  0.00  0.00    -0.286 OA
ATOM      3  N   UNL     1      33.452 -14.462 -22.904  0.00  0.00    -0.285 N 
ATOM      4  C   UNL     1      33.897 -15.777 -23.221  0.00  0.00    +0.090 C 
ATOM      5  C   UNL     1      33.211 -13.559 -23.922  0.00  0.00    +0.075 C 
ATOM      6  C   UNL     1      34.162 -16.744 -22.239  0.00  0.00    +0.168 C 
ATOM      7  C   UNL     1      34.084 -16.141 -24.573  0.00  0.00    +0.058 C 
ATOM      8  C   UNL     1      34.596 -18.025 -22.589  0.00  0.00    +0.111 C 
ATOM      9  C   UNL     1      33.356 -13.801 -25.231  0.00  0.00    +0.129 C 
ATOM     10  C   UNL     1      33.816 -15.150 -25.649  0.00  0.00    +0.204 C 
ATOM     11  C   UNL     1      34.519 -17.425 -24.923  0.00  0.00    +0.036 C 
ATOM     12  C   UNL     1      34.773 -18.364 -23.927  0.00  0.00    +0.156 C 
ENDROOT
BRANCH   8  13
ATOM     13  N   UNL     1      34.858 -18.985 -21.604  0.00  0.00    -0.308 N 
ATOM     14  N   UNL     1      35.374 -21.108 -19.771  0.00  0.00    +0.387 N 
ATOM     15  C   UNL     1      33.793 -19.943 -21.272  0.00  0.00    +0.070 C 
ATOM     16  C   UNL     1      34.026 -20.538 -19.875  0.00  0.00    -0.042 C 
ATOM     17  C   UNL     1      36.229 -19.463 -21.403  0.00  0.00    +0.068 C 
ATOM     18  C   UNL     1      36.381 -20.078 -20.013  0.00  0.00    -0.060 C 
ATOM     19  C   UNL     1      32.997 -21.629 -19.579  0.00  0.00    -0.022 C 
ATOM     20  H   UNL     1      35.479 -21.850 -20.463  0.00  0.00    -0.084 HD
ATOM     21  H   UNL     1      35.502 -21.483 -18.832  0.00  0.00    -0.084 HD
ENDBRANCH   8  13
BRANCH   3  22
ATOM     22  C   UNL     1      33.226 -13.980 -21.521  0.00  0.00    +0.077 C 
ATOM     23  C   UNL     1      32.291 -12.851 -21.252  0.00  0.00    +0.022 C 
ATOM     24  C   UNL     1      31.933 -14.244 -20.825  0.00  0.00    +0.022 C 
ENDBRANCH   3  22
BRANCH   6  25
ATOM     25  O   UNL     1      34.011 -16.493 -20.904  0.00  0.00    -0.469 OA
ATOM     26  C   UNL     1      35.147 -15.980 -20.213  0.00  0.00    +0.253 C 
ENDBRANCH   6  25
BRANCH   9  28
ATOM     27  O   UNL     1      33.442 -11.575 -26.061  0.00  0.00    -0.245 OA
ATOM     28  C   UNL     1      33.055 -12.724 -26.175  0.00  0.00    +0.342 C 
BRANCH  28  29
ATOM     29  O   UNL     1      32.287 -13.202 -27.179  0.00  0.00    -0.477 OA
ATOM     30  H   UNL     1      32.330 -14.109 -27.409  0.00  0.00    +0.295 HD
ENDBRANCH  28  29
ENDBRANCH   9  28
TORSDOF 5
ENDMDL
MODEL 4
REMARK VINA RESULT:      -8.1      3.387      7.381
REMARK  Name = 5379
REMARK  5 active torsions:
REMARK  status: ('A' for Active; 'I' for Inactive)
REMARK    1  A    between atoms: N_3  and  C_22
REMARK    2  A    between atoms: C_6  and  O_25
REMARK    3  A    between atoms: C_8  and  N_13
REMARK    4  A    between atoms: C_9  and  C_28
REMARK    5  A    between atoms: C_28  and  O_29
REMARK                            x       y       z     vdW  Elec       q    Type
REMARK                         _______ _______ _______ _____ _____    ______ ____
ROOT
ATOM      1  F   UNL     1      32.449 -15.495 -19.464  0.00  0.00    -0.203 F 
ATOM      2  O   UNL     1      31.087 -10.763 -20.509  0.00  0.00    -0.286 OA
ATOM      3  N   UNL     1      33.324 -11.960 -23.701  0.00  0.00    -0.285 N 
ATOM      4  C   UNL     1      33.118 -12.884 -22.636  0.00  0.00    +0.090 C 
ATOM      5  C   UNL     1      32.768 -10.698 -23.627  0.00  0.00    +0.075 C 
ATOM      6  C   UNL     1      33.652 -14.182 -22.646  0.00  0.00    +0.168 C 
ATOM      7  C   UNL     1      32.348 -12.495 -21.518  0.00  0.00    +0.058 C 
ATOM      8  C   UNL     1      33.429 -15.060 -21.582  0.00  0.00    +0.111 C 
ATOM      9  C   UNL     1      32.025 -10.230 -22.616  0.00  0.00    +0.129 C 
ATOM     10  C   UNL     1      31.761 -11.130 -21.464  0.00  0.00    +0.204 C 
ATOM     11  C   UNL     1      32.124 -13.375 -20.452  0.00  0.00    +0.036 C 
ATOM     12  C   UNL     1      32.668 -14.657 -20.488  0.00  0.00    +0.156 C 
ENDROOT
BRANCH   8  13
ATOM     13  N   UNL     1      33.965 -16.352 -21.597  0.00  0.00    -0.308 N 
ATOM     14  N   UNL     1      34.932 -19.025 -21.833  0.00  0.00    +0.387 N 
ATOM     15  C   UNL     1      33.043 -17.485 -21.424  0.00  0.00    +0.070 C 
ATOM     16  C   UNL     1      33.806 -18.727 -20.941  0.00  0.00    -0.042 C 
ATOM     17  C   UNL     1      35.171 -16.629 -22.383  0.00  0.00    +0.068 C 
ATOM     18  C   UNL     1      35.858 -17.897 -21.877  0.00  0.00    -0.060 C 
ATOM     19  C   UNL     1      32.877 -19.939 -20.885  0.00  0.00    -0.022 C 
ATOM     20  H   UNL     1      34.577 -19.206 -22.772  0.00  0.00    -0.084 HD
ATOM     21  H   UNL     1      35.425 -19.845 -21.480  0.00  0.00    -0.084 HD
ENDBRANCH   8  13
BRANCH   3  22
ATOM     22  C   UNL     1      34.114 -12.269 -24.916  0.00  0.00    +0.077 C 
ATOM     23  C   UNL     1      33.560 -11.997 -26.273  0.00  0.00    +0.022 C 
ATOM     24  C   UNL     1      34.697 -11.173 -25.744  0.00  0.00    +0.022 C 
ENDBRANCH   3  22
BRANCH   6  25
ATOM     25  O   UNL     1      34.411 -14.655 -23.679  0.00  0.00    -0.469 OA
ATOM     26  C   UNL     1      33.723 -15.337 -24.724  0.00  0.00    +0.253 C 
ENDBRANCH   6  25
BRANCH   9  28
ATOM     27  O   UNL     1      30.938  -8.399 -23.672  0.00  0.00    -0.245 OA
ATOM     28  C   UNL     1      31.513  -8.862 -22.703  0.00  0.00    +0.342 C 
BRANCH  28  29
ATOM     29  O   UNL     1      31.779  -8.204 -21.554  0.00  0.00    -0.477 OA
ATOM     30  H   UNL     1      31.174  -8.246 -20.840  0.00  0.00    +0.295 HD
ENDBRANCH  28  29
ENDBRANCH   9  28
TORSDOF 5
ENDMDL
MODEL 5
REMARK VINA RESULT:      -8.0      2.648      7.006
REMARK  Name = 5379
REMARK  5 active torsions:
REMARK  status: ('A' for Active; 'I' for Inactive)
REMARK    1  A    between atoms: N_3  and  C_22
REMARK    2  A    between atoms: C_6  and  O_25
REMARK    3  A    between atoms: C_8  and  N_13
REMARK    4  A    between atoms: C_9  and  C_28
REMARK    5  A    between atoms: C_28  and  O_29
REMARK                            x       y       z     vdW  Elec       q    Type
REMARK                         _______ _______ _______ _____ _____    ______ ____
ROOT
ATOM      1  F   UNL     1      31.977 -14.926 -21.554  0.00  0.00    -0.203 F 
ATOM      2  O   UNL     1      31.082 -10.292 -19.806  0.00  0.00    -0.286 OA
ATOM      3  N   UNL     1      33.252  -9.746 -23.214  0.00  0.00    -0.285 N 
ATOM      4  C   UNL     1      32.943 -11.078 -22.817  0.00  0.00    +0.090 C 
ATOM      5  C   UNL     1      32.815  -8.685 -22.445  0.00  0.00    +0.075 C 
ATOM      6  C   UNL     1      33.353 -12.202 -23.551  0.00  0.00    +0.168 C 
ATOM      7  C   UNL     1      32.192 -11.296 -21.640  0.00  0.00    +0.058 C 
ATOM      8  C   UNL     1      33.031 -13.495 -23.128  0.00  0.00    +0.111 C 
ATOM      9  C   UNL     1      32.101  -8.781 -21.316  0.00  0.00    +0.129 C 
ATOM     10  C   UNL     1      31.735 -10.136 -20.830  0.00  0.00    +0.204 C 
ATOM     11  C   UNL     1      31.869 -12.591 -21.217  0.00  0.00    +0.036 C 
ATOM     12  C   UNL     1      32.291 -13.688 -21.965  0.00  0.00    +0.156 C 
ENDROOT
BRANCH   8  13
ATOM     13  N   UNL     1      33.444 -14.611 -23.864  0.00  0.00    -0.308 N 
ATOM     14  N   UNL     1      34.114 -17.012 -25.249  0.00  0.00    +0.387 N 
ATOM     15  C   UNL     1      34.045 -15.737 -23.134  0.00  0.00    +0.070 C 
ATOM     16  C   UNL     1      34.896 -16.595 -24.080  0.00  0.00    -0.042 C 
ATOM     17  C   UNL     1      32.749 -14.958 -25.108  0.00  0.00    +0.068 C 
ATOM     18  C   UNL     1      33.634 -15.844 -25.983  0.00  0.00    -0.060 C 
ATOM     19  C   UNL     1      35.416 -17.837 -23.357  0.00  0.00    -0.022 C 
ATOM     20  H   UNL     1      33.315 -17.565 -24.939  0.00  0.00    -0.084 HD
ATOM     21  H   UNL     1      34.708 -17.569 -25.863  0.00  0.00    -0.084 HD
ENDBRANCH   8  13
BRANCH   3  22
ATOM     22  C   UNL     1      34.031  -9.410 -24.429  0.00  0.00    +0.077 C 
ATOM     23  C   UNL     1      34.673  -8.072 -24.576  0.00  0.00    +0.022 C 
ATOM     24  C   UNL     1      35.517  -9.297 -24.374  0.00  0.00    +0.022 C 
ENDBRANCH   3  22
BRANCH   6  25
ATOM     25  O   UNL     1      34.083 -12.100 -24.702  0.00  0.00    -0.469 OA
ATOM     26  C   UNL     1      33.352 -12.011 -25.921  0.00  0.00    +0.253 C 
ENDBRANCH   6  25
BRANCH   9  28
ATOM     27  O   UNL     1      31.299  -6.548 -21.178  0.00  0.00    -0.245 OA
ATOM     28  C   UNL     1      31.721  -7.548 -20.626  0.00  0.00    +0.342 C 
BRANCH  28  29
ATOM     29  O   UNL     1      31.912  -7.694 -19.296  0.00  0.00    -0.477 OA
ATOM     30  H   UNL     1      32.690  -8.107 -18.978  0.00  0.00    +0.295 HD
ENDBRANCH  28  29
ENDBRANCH   9  28
TORSDOF 5
ENDMDL
MODEL 6
REMARK VINA RESULT:      -7.7      1.930      3.471
REMARK  Name = 5379
REMARK  5 active torsions:
REMARK  status: ('A' for Active; 'I' for Inactive)
REMARK    1  A    between atoms: N_3  and  C_22
REMARK    2  A    between atoms: C_6  and  O_25
REMARK    3  A    between atoms: C_8  and  N_13
REMARK    4  A    between atoms: C_9  and  C_28
REMARK    5  A    between atoms: C_28  and  O_29
REMARK                            x       y       z     vdW  Elec       q    Type
REMARK                         _______ _______ _______ _____ _____    ______ ____
ROOT
ATOM      1  F   UNL     1      33.551  -8.278 -24.555  0.00  0.00    -0.203 F 
ATOM      2  O   UNL     1      34.205 -12.876 -26.495  0.00  0.00    -0.286 OA
ATOM      3  N   UNL     1      32.662 -13.497 -22.772  0.00  0.00    -0.285 N 
ATOM      4  C   UNL     1      32.877 -12.155 -23.199  0.00  0.00    +0.090 C 
ATOM      5  C   UNL     1      32.977 -14.541 -23.620  0.00  0.00    +0.075 C 
ATOM      6  C   UNL     1      32.579 -11.047 -22.391  0.00  0.00    +0.168 C 
ATOM      7  C   UNL     1      33.411 -11.911 -24.483  0.00  0.00    +0.058 C 
ATOM      8  C   UNL     1      32.805  -9.744 -22.844  0.00  0.00    +0.111 C 
ATOM      9  C   UNL     1      33.486 -14.421 -24.853  0.00  0.00    +0.129 C 
ATOM     10  C   UNL     1      33.742 -13.054 -25.375  0.00  0.00    +0.204 C 
ATOM     11  C   UNL     1      33.637 -10.606 -24.937  0.00  0.00    +0.036 C 
ATOM     12  C   UNL     1      33.333  -9.525 -24.113  0.00  0.00    +0.156 C 
ENDROOT
BRANCH   8  13
ATOM     13  N   UNL     1      32.506  -8.644 -22.033  0.00  0.00    -0.308 N 
ATOM     14  N   UNL     1      31.679  -6.500 -20.343  0.00  0.00    +0.387 N 
ATOM     15  C   UNL     1      31.443  -7.729 -22.474  0.00  0.00    +0.070 C 
ATOM     16  C   UNL     1      31.604  -6.358 -21.801  0.00  0.00    -0.042 C 
ATOM     17  C   UNL     1      32.706  -8.734 -20.583  0.00  0.00    +0.068 C 
ATOM     18  C   UNL     1      32.818  -7.338 -19.973  0.00  0.00    -0.060 C 
ATOM     19  C   UNL     1      30.429  -5.446 -22.154  0.00  0.00    -0.022 C 
ATOM     20  H   UNL     1      30.820  -6.931 -20.002  0.00  0.00    -0.084 HD
ATOM     21  H   UNL     1      31.798  -5.577 -19.926  0.00  0.00    -0.084 HD
ENDBRANCH   8  13
BRANCH   3  22
ATOM     22  C   UNL     1      32.107 -13.860 -21.447  0.00  0.00    +0.077 C 
ATOM     23  C   UNL     1      32.166 -15.267 -20.957  0.00  0.00    +0.022 C 
ATOM     24  C   UNL     1      33.011 -14.208 -20.313  0.00  0.00    +0.022 C 
ENDBRANCH   3  22
BRANCH   6  25
ATOM     25  O   UNL     1      32.060 -11.175 -21.133  0.00  0.00    -0.469 OA
ATOM     26  C   UNL     1      30.641 -11.235 -21.025  0.00  0.00    +0.253 C 
ENDBRANCH   6  25
BRANCH   9  28
ATOM     27  O   UNL     1      34.501 -16.534 -25.246  0.00  0.00    -0.245 OA
ATOM     28  C   UNL     1      33.761 -15.640 -25.615  0.00  0.00    +0.342 C 
BRANCH  28  29
ATOM     29  O   UNL     1      33.071 -15.613 -26.776  0.00  0.00    -0.477 OA
ATOM     30  H   UNL     1      32.640 -14.827 -27.047  0.00  0.00    +0.295 HD
ENDBRANCH  28  29
ENDBRANCH   9  28
TORSDOF 5
ENDMDL
MODEL 7
REMARK VINA RESULT:      -7.5     12.509     15.600
REMARK  Name = 5379
REMARK  5 active torsions:
REMARK  status: ('A' for Active; 'I' for Inactive)
REMARK    1  A    between atoms: N_3  and  C_22
REMARK    2  A    between atoms: C_6  and  O_25
REMARK    3  A    between atoms: C_8  and  N_13
REMARK    4  A    between atoms: C_9  and  C_28
REMARK    5  A    between atoms: C_28  and  O_29
REMARK                            x       y       z     vdW  Elec       q    Type
REMARK                         _______ _______ _______ _____ _____    ______ ____
ROOT
ATOM      1  F   UNL     1      38.839 -22.684 -15.885  0.00  0.00    -0.203 F 
ATOM      2  O   UNL     1      36.236 -20.708 -19.713  0.00  0.00    -0.286 OA
ATOM      3  N   UNL     1      33.479 -22.694 -17.459  0.00  0.00    -0.285 N 
ATOM      4  C   UNL     1      34.838 -22.709 -17.032  0.00  0.00    +0.090 C 
ATOM      5  C   UNL     1      33.134 -22.015 -18.611  0.00  0.00    +0.075 C 
ATOM      6  C   UNL     1      35.260 -23.377 -15.872  0.00  0.00    +0.168 C 
ATOM      7  C   UNL     1      35.814 -22.030 -17.794  0.00  0.00    +0.058 C 
ATOM      8  C   UNL     1      36.602 -23.370 -15.485  0.00  0.00    +0.111 C 
ATOM      9  C   UNL     1      33.977 -21.342 -19.404  0.00  0.00    +0.129 C 
ATOM     10  C   UNL     1      35.414 -21.308 -19.031  0.00  0.00    +0.204 C 
ATOM     11  C   UNL     1      37.159 -22.023 -17.407  0.00  0.00    +0.036 C 
ATOM     12  C   UNL     1      37.549 -22.695 -16.251  0.00  0.00    +0.156 C 
ENDROOT
BRANCH   8  13
ATOM     13  N   UNL     1      37.016 -24.038 -14.327  0.00  0.00    -0.308 N 
ATOM     14  N   UNL     1      37.639 -25.501 -11.959  0.00  0.00    +0.387 N 
ATOM     15  C   UNL     1      36.352 -23.701 -13.060  0.00  0.00    +0.070 C 
ATOM     16  C   UNL     1      37.240 -24.092 -11.869  0.00  0.00    -0.042 C 
ATOM     17  C   UNL     1      37.543 -25.403 -14.425  0.00  0.00    +0.068 C 
ATOM     18  C   UNL     1      38.382 -25.741 -13.194  0.00  0.00    -0.060 C 
ATOM     19  C   UNL     1      36.501 -23.865 -10.551  0.00  0.00    -0.022 C 
ATOM     20  H   UNL     1      36.805 -26.088 -11.949  0.00  0.00    -0.084 HD
ATOM     21  H   UNL     1      38.236 -25.726 -11.164  0.00  0.00    -0.084 HD
ENDBRANCH   8  13
BRANCH   3  22
ATOM     22  C   UNL     1      32.381 -23.373 -16.732  0.00  0.00    +0.077 C 
ATOM     23  C   UNL     1      31.787 -22.764 -15.508  0.00  0.00    +0.022 C 
ATOM     24  C   UNL     1      30.991 -22.834 -16.778  0.00  0.00    +0.022 C 
ENDBRANCH   3  22
BRANCH   6  25
ATOM     25  O   UNL     1      34.395 -24.064 -15.066  0.00  0.00    -0.469 OA
ATOM     26  C   UNL     1      34.342 -25.477 -15.235  0.00  0.00    +0.253 C 
ENDBRANCH   6  25
BRANCH   9  28
ATOM     27  O   UNL     1      32.250 -20.577 -20.847  0.00  0.00    -0.245 OA
ATOM     28  C   UNL     1      33.437 -20.678 -20.591  0.00  0.00    +0.342 C 
BRANCH  28  29
ATOM     29  O   UNL     1      34.451 -20.203 -21.347  0.00  0.00    -0.477 OA
ATOM     30  H   UNL     1      35.195 -19.808 -20.937  0.00  0.00    +0.295 HD
ENDBRANCH  28  29
ENDBRANCH   9  28
TORSDOF 5
ENDMDL
MODEL 8
REMARK VINA RESULT:      -7.4      2.074      2.969
REMARK  Name = 5379
REMARK  5 active torsions:
REMARK  status: ('A' for Active; 'I' for Inactive)
REMARK    1  A    between atoms: N_3  and  C_22
REMARK    2  A    between atoms: C_6  and  O_25
REMARK    3  A    between atoms: C_8  and  N_13
REMARK    4  A    between atoms: C_9  and  C_28
REMARK    5  A    between atoms: C_28  and  O_29
REMARK                            x       y       z     vdW  Elec       q    Type
REMARK                         _______ _______ _______ _____ _____    ______ ____
ROOT
ATOM      1  F   UNL     1      31.988  -8.969 -20.657  0.00  0.00    -0.203 F 
ATOM      2  O   UNL     1      32.007 -13.898 -19.636  0.00  0.00    -0.286 OA
ATOM      3  N   UNL     1      33.133 -13.612 -23.545  0.00  0.00    -0.285 N 
ATOM      4  C   UNL     1      32.848 -12.411 -22.835  0.00  0.00    +0.090 C 
ATOM      5  C   UNL     1      33.022 -14.829 -22.900  0.00  0.00    +0.075 C 
ATOM      6  C   UNL     1      32.941 -11.141 -23.427  0.00  0.00    +0.168 C 
ATOM      7  C   UNL     1      32.455 -12.481 -21.480  0.00  0.00    +0.058 C 
ATOM      8  C   UNL     1      32.652  -9.985 -22.698  0.00  0.00    +0.111 C 
ATOM      9  C   UNL     1      32.659 -15.006 -21.623  0.00  0.00    +0.129 C 
ATOM     10  C   UNL     1      32.343 -13.804 -20.810  0.00  0.00    +0.204 C 
ATOM     11  C   UNL     1      32.166 -11.322 -20.750  0.00  0.00    +0.036 C 
ATOM     12  C   UNL     1      32.266 -10.075 -21.363  0.00  0.00    +0.156 C 
ENDROOT
BRANCH   8  13
ATOM     13  N   UNL     1      32.747  -8.723 -23.293  0.00  0.00    -0.308 N 
ATOM     14  N   UNL     1      32.878  -6.055 -24.294  0.00  0.00    +0.387 N 
ATOM     15  C   UNL     1      31.519  -7.923 -23.417  0.00  0.00    +0.070 C 
ATOM     16  C   UNL     1      31.677  -6.866 -24.520  0.00  0.00    -0.042 C 
ATOM     17  C   UNL     1      33.994  -7.959 -23.185  0.00  0.00    +0.068 C 
ATOM     18  C   UNL     1      34.069  -6.901 -24.284  0.00  0.00    -0.060 C 
ATOM     19  C   UNL     1      30.455  -5.949 -24.564  0.00  0.00    -0.022 C 
ATOM     20  H   UNL     1      32.797  -5.578 -23.396  0.00  0.00    -0.084 HD
ATOM     21  H   UNL     1      32.963  -5.372 -25.047  0.00  0.00    -0.084 HD
ENDBRANCH   8  13
BRANCH   3  22
ATOM     22  C   UNL     1      33.553 -13.649 -24.965  0.00  0.00    +0.077 C 
ATOM     23  C   UNL     1      33.731 -14.949 -25.673  0.00  0.00    +0.022 C 
ATOM     24  C   UNL     1      32.590 -14.043 -26.034  0.00  0.00    +0.022 C 
ENDBRANCH   3  22
BRANCH   6  25
ATOM     25  O   UNL     1      33.312 -10.966 -24.730  0.00  0.00    -0.469 OA
ATOM     26  C   UNL     1      34.696 -10.740 -24.981  0.00  0.00    +0.253 C 
ENDBRANCH   6  25
BRANCH   9  28
ATOM     27  O   UNL     1      33.507 -17.176 -21.153  0.00  0.00    -0.245 OA
ATOM     28  C   UNL     1      32.594 -16.372 -21.101  0.00  0.00    +0.342 C 
BRANCH  28  29
ATOM     29  O   UNL     1      31.376 -16.593 -20.560  0.00  0.00    -0.477 OA
ATOM     30  H   UNL     1      30.605 -16.483 -21.082  0.00  0.00    +0.295 HD
ENDBRANCH  28  29
ENDBRANCH   9  28
TORSDOF 5
ENDMDL
MODEL 9
REMARK VINA RESULT:      -7.4      1.456      1.801
REMARK  Name = 5379
REMARK  5 active torsions:
REMARK  status: ('A' for Active; 'I' for Inactive)
REMARK    1  A    between atoms: N_3  and  C_22
REMARK    2  A    between atoms: C_6  and  O_25
REMARK    3  A    between atoms: C_8  and  N_13
REMARK    4  A    between atoms: C_9  and  C_28
REMARK    5  A    between atoms: C_28  and  O_29
REMARK                            x       y       z     vdW  Elec       q    Type
REMARK                         _______ _______ _______ _____ _____    ______ ____
ROOT
ATOM      1  F   UNL     1      31.808 -11.582 -19.869  0.00  0.00    -0.203 F 
ATOM      2  O   UNL     1      33.078 -16.022 -21.872  0.00  0.00    -0.286 OA
ATOM      3  N   UNL     1      33.659 -13.301 -24.852  0.00  0.00    -0.285 N 
ATOM      4  C   UNL     1      33.187 -12.832 -23.592  0.00  0.00    +0.090 C 
ATOM      5  C   UNL     1      33.905 -14.648 -25.030  0.00  0.00    +0.075 C 
ATOM      6  C   UNL     1      32.916 -11.478 -23.341  0.00  0.00    +0.168 C 
ATOM      7  C   UNL     1      32.976 -13.753 -22.543  0.00  0.00    +0.058 C 
ATOM      8  C   UNL     1      32.453 -11.056 -22.092  0.00  0.00    +0.111 C 
ATOM      9  C   UNL     1      33.739 -15.602 -24.105  0.00  0.00    +0.129 C 
ATOM     10  C   UNL     1      33.249 -15.198 -22.762  0.00  0.00    +0.204 C 
ATOM     11  C   UNL     1      32.512 -13.330 -21.291  0.00  0.00    +0.036 C 
ATOM     12  C   UNL     1      32.252 -11.980 -21.070  0.00  0.00    +0.156 C 
ENDROOT
BRANCH   8  13
ATOM     13  N   UNL     1      32.186  -9.704 -21.848  0.00  0.00    -0.308 N 
ATOM     14  N   UNL     1      31.409  -7.013 -21.313  0.00  0.00    +0.387 N 
ATOM     15  C   UNL     1      31.303  -8.994 -22.786  0.00  0.00    +0.070 C 
ATOM     16  C   UNL     1      31.538  -7.479 -22.699  0.00  0.00    -0.042 C 
ATOM     17  C   UNL     1      32.187  -9.201 -20.471  0.00  0.00    +0.068 C 
ATOM     18  C   UNL     1      32.384  -7.686 -20.458  0.00  0.00    -0.060 C 
ATOM     19  C   UNL     1      30.534  -6.729 -23.574  0.00  0.00    -0.022 C 
ATOM     20  H   UNL     1      30.469  -7.216 -20.976  0.00  0.00    -0.084 HD
ATOM     21  H   UNL     1      31.582  -6.008 -21.286  0.00  0.00    -0.084 HD
ENDBRANCH   8  13
BRANCH   3  22
ATOM     22  C   UNL     1      33.912 -12.419 -26.016  0.00  0.00    +0.077 C 
ATOM     23  C   UNL     1      34.360 -12.988 -27.319  0.00  0.00    +0.022 C 
ATOM     24  C   UNL     1      32.982 -12.411 -27.181  0.00  0.00    +0.022 C 
ENDBRANCH   3  22
BRANCH   6  25
ATOM     25  O   UNL     1      33.087 -10.508 -24.289  0.00  0.00    -0.469 OA
ATOM     26  C   UNL     1      34.328  -9.809 -24.279  0.00  0.00    +0.253 C 
ENDBRANCH   6  25
BRANCH   9  28
ATOM     27  O   UNL     1      33.821 -17.484 -25.554  0.00  0.00    -0.245 OA
ATOM     28  C   UNL     1      34.051 -16.985 -24.467  0.00  0.00    +0.342 C 
BRANCH  28  29
ATOM     29  O   UNL     1      34.626 -17.610 -23.417  0.00  0.00    -0.477 OA
ATOM     30  H   UNL     1      34.091 -18.011 -22.760  0.00  0.00    +0.295 HD
ENDBRANCH  28  29
ENDBRANCH   9  28
TORSDOF 5
ENDMDL
