MODEL 1
REMARK VINA RESULT:      -6.0      0.000      0.000
REMARK  Name = 69602
REMARK  3 active torsions:
REMARK  status: ('A' for Active; 'I' for Inactive)
REMARK    1  A    between atoms: C_1  and  C_4
REMARK    2  A    between atoms: C_1  and  C_9
REMARK    3  A    between atoms: C_9  and  N_11
REMARK                            x       y       z     vdW  Elec       q    Type
REMARK                         _______ _______ _______ _____ _____    ______ ____
ROOT
ATOM      1  C   UNL     1      33.193 -20.561 -20.217  0.00  0.00    +0.063 C 
ENDROOT
BRANCH   1   4
ATOM      2  N   UNL     1      35.589 -19.883 -20.308  0.00  0.00    -0.319 N 
ATOM      3  N   UNL     1      35.654 -18.378 -21.940  0.00  0.00    -0.315 N 
ATOM      4  C   UNL     1      34.337 -19.757 -20.786  0.00  0.00    +0.039 C 
ATOM      5  C   UNL     1      34.373 -18.842 -21.777  0.00  0.00    +0.069 C 
ATOM      6  C   UNL     1      36.361 -19.024 -21.039  0.00  0.00    +0.182 C 
ATOM      7  H   UNL     1      35.887 -20.474 -19.580  0.00  0.00    +0.148 HD
ATOM      8  H   UNL     1      35.973 -17.708 -22.587  0.00  0.00    +0.148 HD
ENDBRANCH   1   4
BRANCH   1   9
ATOM      9  C   UNL     1      33.646 -21.859 -19.550  0.00  0.00    +0.095 C 
BRANCH   9  11
ATOM     10  O   UNL     1      34.193 -23.582 -17.280  0.00  0.00    -0.275 OA
ATOM     11  N   UNL     1      32.729 -22.248 -18.502  0.00  0.00    -0.304 N 
ATOM     12  C   UNL     1      33.086 -23.079 -17.454  0.00  0.00    +0.223 C 
ATOM     13  C   UNL     1      31.951 -23.302 -16.492  0.00  0.00    +0.095 C 
ATOM     14  H   UNL     1      31.808 -21.905 -18.535  0.00  0.00    +0.149 HD
ENDBRANCH   9  11
ENDBRANCH   1   9
TORSDOF 3
ENDMDL
MODEL 2
REMARK VINA RESULT:      -5.9      3.666      5.409
REMARK  Name = 69602
REMARK  3 active torsions:
REMARK  status: ('A' for Active; 'I' for Inactive)
REMARK    1  A    between atoms: C_1  and  C_4
REMARK    2  A    between atoms: C_1  and  C_9
REMARK    3  A    between atoms: C_9  and  N_11
REMARK                            x       y       z     vdW  Elec       q    Type
REMARK                         _______ _______ _______ _____ _____    ______ ____
ROOT
ATOM      1  C   UNL     1      34.661 -17.700 -24.622  0.00  0.00    +0.063 C 
ENDROOT
BRANCH   1   4
ATOM      2  N   UNL     1      34.895 -15.820 -23.005  0.00  0.00    -0.319 N 
ATOM      3  N   UNL     1      33.676 -14.193 -23.901  0.00  0.00    -0.315 N 
ATOM      4  C   UNL     1      34.377 -16.294 -24.153  0.00  0.00    +0.039 C 
ATOM      5  C   UNL     1      33.635 -15.308 -24.700  0.00  0.00    +0.069 C 
ATOM      6  C   UNL     1      34.442 -14.535 -22.888  0.00  0.00    +0.182 C 
ATOM      7  H   UNL     1      35.481 -16.300 -22.377  0.00  0.00    +0.148 HD
ATOM      8  H   UNL     1      33.229 -13.329 -24.052  0.00  0.00    +0.148 HD
ENDBRANCH   1   4
BRANCH   1   9
ATOM      9  C   UNL     1      35.467 -18.517 -23.613  0.00  0.00    +0.095 C 
BRANCH   9  11
ATOM     10  O   UNL     1      35.030 -18.086 -20.777  0.00  0.00    -0.275 OA
ATOM     11  N   UNL     1      34.592 -19.263 -22.737  0.00  0.00    -0.304 N 
ATOM     12  C   UNL     1      34.450 -18.980 -21.389  0.00  0.00    +0.223 C 
ATOM     13  C   UNL     1      33.459 -19.891 -20.717  0.00  0.00    +0.095 C 
ATOM     14  H   UNL     1      34.072 -20.007 -23.116  0.00  0.00    +0.149 HD
ENDBRANCH   9  11
ENDBRANCH   1   9
TORSDOF 3
ENDMDL
MODEL 3
REMARK VINA RESULT:      -5.9      3.459      5.780
REMARK  Name = 69602
REMARK  3 active torsions:
REMARK  status: ('A' for Active; 'I' for Inactive)
REMARK    1  A    between atoms: C_1  and  C_4
REMARK    2  A    between atoms: C_1  and  C_9
REMARK    3  A    between atoms: C_9  and  N_11
REMARK                            x       y       z     vdW  Elec       q    Type
REMARK                         _______ _______ _______ _____ _____    ______ ____
ROOT
ATOM      1  C   UNL     1      34.759 -18.940 -21.970  0.00  0.00    +0.063 C 
ENDROOT
BRANCH   1   4
ATOM      2  N   UNL     1      34.824 -20.746 -20.255  0.00  0.00    -0.319 N 
ATOM      3  N   UNL     1      32.694 -21.009 -19.680  0.00  0.00    -0.315 N 
ATOM      4  C   UNL     1      34.102 -19.872 -20.981  0.00  0.00    +0.039 C 
ATOM      5  C   UNL     1      32.808 -20.030 -20.634  0.00  0.00    +0.069 C 
ATOM      6  C   UNL     1      33.926 -21.421 -19.474  0.00  0.00    +0.182 C 
ATOM      7  H   UNL     1      35.799 -20.873 -20.281  0.00  0.00    +0.148 HD
ATOM      8  H   UNL     1      31.872 -21.333 -19.246  0.00  0.00    +0.148 HD
ENDBRANCH   1   4
BRANCH   1   9
ATOM      9  C   UNL     1      35.119 -17.583 -21.368  0.00  0.00    +0.095 C 
BRANCH   9  11
ATOM     10  O   UNL     1      34.944 -14.910 -20.250  0.00  0.00    -0.275 OA
ATOM     11  N   UNL     1      33.999 -16.672 -21.442  0.00  0.00    -0.304 N 
ATOM     12  C   UNL     1      34.011 -15.410 -20.874  0.00  0.00    +0.223 C 
ATOM     13  C   UNL     1      32.728 -14.662 -21.121  0.00  0.00    +0.095 C 
ATOM     14  H   UNL     1      33.189 -16.963 -21.920  0.00  0.00    +0.149 HD
ENDBRANCH   9  11
ENDBRANCH   1   9
TORSDOF 3
ENDMDL
MODEL 4
REMARK VINA RESULT:      -5.8      2.390      3.538
REMARK  Name = 69602
REMARK  3 active torsions:
REMARK  status: ('A' for Active; 'I' for Inactive)
REMARK    1  A    between atoms: C_1  and  C_4
REMARK    2  A    between atoms: C_1  and  C_9
REMARK    3  A    between atoms: C_9  and  N_11
REMARK                            x       y       z     vdW  Elec       q    Type
REMARK                         _______ _______ _______ _____ _____    ______ ____
ROOT
ATOM      1  C   UNL     1      34.727 -19.486 -22.488  0.00  0.00    +0.063 C 
ENDROOT
BRANCH   1   4
ATOM      2  N   UNL     1      34.578 -18.159 -24.591  0.00  0.00    -0.319 N 
ATOM      3  N   UNL     1      35.238 -16.126 -23.985  0.00  0.00    -0.315 N 
ATOM      4  C   UNL     1      34.870 -18.208 -23.278  0.00  0.00    +0.039 C 
ATOM      5  C   UNL     1      35.272 -16.974 -22.908  0.00  0.00    +0.069 C 
ATOM      6  C   UNL     1      34.816 -16.871 -24.984  0.00  0.00    +0.182 C 
ATOM      7  H   UNL     1      34.257 -18.900 -25.154  0.00  0.00    +0.148 HD
ATOM      8  H   UNL     1      35.477 -15.172 -24.007  0.00  0.00    +0.148 HD
ENDBRANCH   1   4
BRANCH   1   9
ATOM      9  C   UNL     1      34.913 -19.286 -20.985  0.00  0.00    +0.095 C 
BRANCH   9  11
ATOM     10  O   UNL     1      32.563 -20.505 -19.797  0.00  0.00    -0.275 OA
ATOM     11  N   UNL     1      34.838 -20.547 -20.283  0.00  0.00    -0.304 N 
ATOM     12  C   UNL     1      33.664 -21.048 -19.749  0.00  0.00    +0.223 C 
ATOM     13  C   UNL     1      33.861 -22.389 -19.094  0.00  0.00    +0.095 C 
ATOM     14  H   UNL     1      35.662 -21.076 -20.180  0.00  0.00    +0.149 HD
ENDBRANCH   9  11
ENDBRANCH   1   9
TORSDOF 3
ENDMDL
MODEL 5
REMARK VINA RESULT:      -5.8      4.760      6.891
REMARK  Name = 69602
REMARK  3 active torsions:
REMARK  status: ('A' for Active; 'I' for Inactive)
REMARK    1  A    between atoms: C_1  and  C_4
REMARK    2  A    between atoms: C_1  and  C_9
REMARK    3  A    between atoms: C_9  and  N_11
REMARK                            x       y       z     vdW  Elec       q    Type
REMARK                         _______ _______ _______ _____ _____    ______ ____
ROOT
ATOM      1  C   UNL     1      34.453 -18.434 -24.725  0.00  0.00    +0.063 C 
ENDROOT
BRANCH   1   4
ATOM      2  N   UNL     1      36.151 -18.166 -22.923  0.00  0.00    -0.319 N 
ATOM      3  N   UNL     1      35.282 -19.273 -21.204  0.00  0.00    -0.315 N 
ATOM      4  C   UNL     1      34.968 -18.666 -23.326  0.00  0.00    +0.039 C 
ATOM      5  C   UNL     1      34.438 -19.339 -22.283  0.00  0.00    +0.069 C 
ATOM      6  C   UNL     1      36.305 -18.560 -21.622  0.00  0.00    +0.182 C 
ATOM      7  H   UNL     1      36.779 -17.627 -23.456  0.00  0.00    +0.148 HD
ATOM      8  H   UNL     1      35.151 -19.671 -20.313  0.00  0.00    +0.148 HD
ENDBRANCH   1   4
BRANCH   1   9
ATOM      9  C   UNL     1      34.808 -17.053 -25.274  0.00  0.00    +0.095 C 
BRANCH   9  11
ATOM     10  O   UNL     1      35.113 -15.211 -23.052  0.00  0.00    -0.275 OA
ATOM     11  N   UNL     1      33.861 -16.058 -24.822  0.00  0.00    -0.304 N 
ATOM     12  C   UNL     1      34.099 -15.221 -23.746  0.00  0.00    +0.223 C 
ATOM     13  C   UNL     1      32.962 -14.265 -23.505  0.00  0.00    +0.095 C 
ATOM     14  H   UNL     1      33.007 -15.972 -25.302  0.00  0.00    +0.149 HD
ENDBRANCH   9  11
ENDBRANCH   1   9
TORSDOF 3
ENDMDL
MODEL 6
REMARK VINA RESULT:      -5.8      3.343      6.073
REMARK  Name = 69602
REMARK  3 active torsions:
REMARK  status: ('A' for Active; 'I' for Inactive)
REMARK    1  A    between atoms: C_1  and  C_4
REMARK    2  A    between atoms: C_1  and  C_9
REMARK    3  A    between atoms: C_9  and  N_11
REMARK                            x       y       z     vdW  Elec       q    Type
REMARK                         _______ _______ _______ _____ _____    ______ ____
ROOT
ATOM      1  C   UNL     1      35.585 -19.601 -20.972  0.00  0.00    +0.063 C 
ENDROOT
BRANCH   1   4
ATOM      2  N   UNL     1      35.016 -21.567 -19.552  0.00  0.00    -0.319 N 
ATOM      3  N   UNL     1      32.795 -21.560 -19.499  0.00  0.00    -0.315 N 
ATOM      4  C   UNL     1      34.601 -20.520 -20.290  0.00  0.00    +0.039 C 
ATOM      5  C   UNL     1      33.253 -20.514 -20.260  0.00  0.00    +0.069 C 
ATOM      6  C   UNL     1      33.882 -22.175 -19.088  0.00  0.00    +0.182 C 
ATOM      7  H   UNL     1      35.946 -21.839 -19.380  0.00  0.00    +0.148 HD
ATOM      8  H   UNL     1      31.860 -21.798 -19.305  0.00  0.00    +0.148 HD
ENDBRANCH   1   4
BRANCH   1   9
ATOM      9  C   UNL     1      34.972 -18.262 -21.379  0.00  0.00    +0.095 C 
BRANCH   9  11
ATOM     10  O   UNL     1      35.376 -15.998 -23.150  0.00  0.00    -0.275 OA
ATOM     11  N   UNL     1      34.743 -18.211 -22.805  0.00  0.00    -0.304 N 
ATOM     12  C   UNL     1      34.966 -17.078 -23.568  0.00  0.00    +0.223 C 
ATOM     13  C   UNL     1      34.672 -17.306 -25.026  0.00  0.00    +0.095 C 
ATOM     14  H   UNL     1      34.412 -19.021 -23.256  0.00  0.00    +0.149 HD
ENDBRANCH   9  11
ENDBRANCH   1   9
TORSDOF 3
ENDMDL
MODEL 7
REMARK VINA RESULT:      -5.8      2.707      3.566
REMARK  Name = 69602
REMARK  3 active torsions:
REMARK  status: ('A' for Active; 'I' for Inactive)
REMARK    1  A    between atoms: C_1  and  C_4
REMARK    2  A    between atoms: C_1  and  C_9
REMARK    3  A    between atoms: C_9  and  N_11
REMARK                            x       y       z     vdW  Elec       q    Type
REMARK                         _______ _______ _______ _____ _____    ______ ____
ROOT
ATOM      1  C   UNL     1      35.855 -18.640 -21.416  0.00  0.00    +0.063 C 
ENDROOT
BRANCH   1   4
ATOM      2  N   UNL     1      35.488 -17.071 -23.315  0.00  0.00    -0.319 N 
ATOM      3  N   UNL     1      34.490 -18.324 -24.854  0.00  0.00    -0.315 N 
ATOM      4  C   UNL     1      35.360 -18.309 -22.803  0.00  0.00    +0.039 C 
ATOM      5  C   UNL     1      34.754 -19.072 -23.735  0.00  0.00    +0.069 C 
ATOM      6  C   UNL     1      34.943 -17.123 -24.569  0.00  0.00    +0.182 C 
ATOM      7  H   UNL     1      35.891 -16.287 -22.877  0.00  0.00    +0.148 HD
ATOM      8  H   UNL     1      34.055 -18.619 -25.687  0.00  0.00    +0.148 HD
ENDBRANCH   1   4
BRANCH   1   9
ATOM      9  C   UNL     1      35.417 -20.024 -20.937  0.00  0.00    +0.095 C 
BRANCH   9  11
ATOM     10  O   UNL     1      35.134 -22.485 -19.425  0.00  0.00    -0.275 OA
ATOM     11  N   UNL     1      36.101 -20.388 -19.717  0.00  0.00    -0.304 N 
ATOM     12  C   UNL     1      35.898 -21.592 -19.066  0.00  0.00    +0.223 C 
ATOM     13  C   UNL     1      36.754 -21.727 -17.835  0.00  0.00    +0.095 C 
ATOM     14  H   UNL     1      36.742 -19.749 -19.330  0.00  0.00    +0.149 HD
ENDBRANCH   9  11
ENDBRANCH   1   9
TORSDOF 3
ENDMDL
MODEL 8
REMARK VINA RESULT:      -5.7      6.008      8.474
REMARK  Name = 69602
REMARK  3 active torsions:
REMARK  status: ('A' for Active; 'I' for Inactive)
REMARK    1  A    between atoms: C_1  and  C_4
REMARK    2  A    between atoms: C_1  and  C_9
REMARK    3  A    between atoms: C_9  and  N_11
REMARK                            x       y       z     vdW  Elec       q    Type
REMARK                         _______ _______ _______ _____ _____    ______ ____
ROOT
ATOM      1  C   UNL     1      34.539 -14.859 -23.172  0.00  0.00    +0.063 C 
ENDROOT
BRANCH   1   4
ATOM      2  N   UNL     1      35.172 -17.068 -24.132  0.00  0.00    -0.319 N 
ATOM      3  N   UNL     1      35.434 -18.367 -22.349  0.00  0.00    -0.315 N 
ATOM      4  C   UNL     1      34.920 -16.313 -23.046  0.00  0.00    +0.039 C 
ATOM      5  C   UNL     1      35.077 -17.100 -21.961  0.00  0.00    +0.069 C 
ATOM      6  C   UNL     1      35.482 -18.315 -23.662  0.00  0.00    +0.182 C 
ATOM      7  H   UNL     1      35.141 -16.781 -25.073  0.00  0.00    +0.148 HD
ATOM      8  H   UNL     1      35.613 -19.144 -21.772  0.00  0.00    +0.148 HD
ENDBRANCH   1   4
BRANCH   1   9
ATOM      9  C   UNL     1      33.121 -14.653 -23.705  0.00  0.00    +0.095 C 
BRANCH   9  11
ATOM     10  O   UNL     1      33.499 -15.626 -26.413  0.00  0.00    -0.275 OA
ATOM     11  N   UNL     1      33.136 -13.875 -24.923  0.00  0.00    -0.304 N 
ATOM     12  C   UNL     1      33.324 -14.433 -26.176  0.00  0.00    +0.223 C 
ATOM     13  C   UNL     1      33.268 -13.404 -27.272  0.00  0.00    +0.095 C 
ATOM     14  H   UNL     1      33.004 -12.902 -24.859  0.00  0.00    +0.149 HD
ENDBRANCH   9  11
ENDBRANCH   1   9
TORSDOF 3
ENDMDL
MODEL 9
REMARK VINA RESULT:      -5.7      2.953      5.277
REMARK  Name = 69602
REMARK  3 active torsions:
REMARK  status: ('A' for Active; 'I' for Inactive)
REMARK    1  A    between atoms: C_1  and  C_4
REMARK    2  A    between atoms: C_1  and  C_9
REMARK    3  A    between atoms: C_9  and  N_11
REMARK                            x       y       z     vdW  Elec       q    Type
REMARK                         _______ _______ _______ _____ _____    ______ ____
ROOT
ATOM      1  C   UNL     1      33.786 -19.777 -21.241  0.00  0.00    +0.063 C 
ENDROOT
BRANCH   1   4
ATOM      2  N   UNL     1      35.928 -20.284 -20.076  0.00  0.00    -0.319 N 
ATOM      3  N   UNL     1      35.426 -22.004 -18.763  0.00  0.00    -0.315 N 
ATOM      4  C   UNL     1      34.628 -20.570 -20.272  0.00  0.00    +0.039 C 
ATOM      5  C   UNL     1      34.319 -21.615 -19.476  0.00  0.00    +0.069 C 
ATOM      6  C   UNL     1      36.378 -21.183 -19.149  0.00  0.00    +0.182 C 
ATOM      7  H   UNL     1      36.450 -19.573 -20.512  0.00  0.00    +0.148 HD
ATOM      8  H   UNL     1      35.492 -22.737 -18.109  0.00  0.00    +0.148 HD
ENDBRANCH   1   4
BRANCH   1   9
ATOM      9  C   UNL     1      34.615 -19.028 -22.283  0.00  0.00    +0.095 C 
BRANCH   9  11
ATOM     10  O   UNL     1      35.545 -17.122 -20.303  0.00  0.00    -0.275 OA
ATOM     11  N   UNL     1      34.346 -17.609 -22.237  0.00  0.00    -0.304 N 
ATOM     12  C   UNL     1      34.837 -16.777 -21.246  0.00  0.00    +0.223 C 
ATOM     13  C   UNL     1      34.427 -15.344 -21.449  0.00  0.00    +0.095 C 
ATOM     14  H   UNL     1      33.786 -17.215 -22.943  0.00  0.00    +0.149 HD
ENDBRANCH   9  11
ENDBRANCH   1   9
TORSDOF 3
ENDMDL
