MODEL 1
REMARK VINA RESULT:      -7.0      0.000      0.000
REMARK  Name = 17754065
REMARK  13 active torsions:
REMARK  status: ('A' for Active; 'I' for Inactive)
REMARK    1  A    between atoms: CE_1  and  N_2
REMARK    2  A    between atoms: CE_1  and  CD_14
REMARK    3  A    between atoms: N_2  and  CA_5
REMARK    4  A    between atoms: CA_5  and  C_7
REMARK    5  A    between atoms: CA_5  and  C_11
REMARK    6  A    between atoms: C_7  and  O_8
REMARK    7  A    between atoms: C_11  and  O_12
REMARK    8  A    between atoms: CD_14  and  CG_15
REMARK    9  A    between atoms: CG_15  and  CB_16
REMARK   10  A    between atoms: CB_16  and  CA_17
REMARK   11  A    between atoms: CA_17  and  N_18
REMARK   12  A    between atoms: CA_17  and  C_23
REMARK   13  A    between atoms: C_23  and  O_24
REMARK                            x       y       z     vdW  Elec       q    Type
REMARK                         _______ _______ _______ _____ _____    ______ ____
ROOT
ATOM      1  CE  UNL     1      37.174 -23.122 -15.256  0.00  0.00    -0.080 C 
ENDROOT
BRANCH   1   2
ATOM      2  N   UNL     1      38.176 -24.073 -15.721  0.00  0.00    +0.399 N 
ATOM      3  H1  UNL     1      38.974 -23.560 -16.098  0.00  0.00    -0.083 HD
ATOM      4  H2  UNL     1      37.758 -24.661 -16.443  0.00  0.00    -0.083 HD
BRANCH   2   5
ATOM      5  CA  UNL     1      38.630 -24.925 -14.632  0.00  0.00    +0.140 C 
BRANCH   5   7
ATOM      6  O   UNL     1      41.024 -24.875 -14.153  0.00  0.00    -0.252 OA
ATOM      7  C   UNL     1      40.094 -25.228 -14.865  0.00  0.00    +0.304 C 
BRANCH   7   8
ATOM      8  O   UNL     1      40.268 -25.922 -16.020  0.00  0.00    -0.481 OA
ATOM      9  H   UNL     1      39.839 -25.642 -16.805  0.00  0.00    +0.295 HD
ENDBRANCH   7   8
ENDBRANCH   5   7
BRANCH   5  11
ATOM     10  OXT UNL     1      37.262 -26.662 -13.604  0.00  0.00    -0.252 OA
ATOM     11  C   UNL     1      37.713 -26.130 -14.610  0.00  0.00    +0.304 C 
BRANCH  11  12
ATOM     12  O   UNL     1      37.440 -26.584 -15.863  0.00  0.00    -0.481 OA
ATOM     13  H   UNL     1      36.936 -27.366 -15.980  0.00  0.00    +0.295 HD
ENDBRANCH  11  12
ENDBRANCH   5  11
ENDBRANCH   2   5
ENDBRANCH   1   2
BRANCH   1  14
ATOM     14  CD  UNL     1      37.059 -21.951 -16.231  0.00  0.00    -0.023 C 
BRANCH  14  15
ATOM     15  CG  UNL     1      36.016 -22.237 -17.314  0.00  0.00    -0.004 C 
BRANCH  15  16
ATOM     16  CB  UNL     1      36.285 -21.507 -18.636  0.00  0.00    -0.011 C 
BRANCH  16  17
ATOM     17  CA  UNL     1      35.233 -21.742 -19.726  0.00  0.00    +0.036 C 
BRANCH  17  18
ATOM     18  N   UNL     1      34.793 -20.481 -20.323  0.00  0.00    +0.389 N 
ATOM     19  H1  UNL     1      33.912 -20.627 -20.817  0.00  0.00    -0.088 HD
ATOM     20  H2  UNL     1      35.500 -20.150 -20.979  0.00  0.00    -0.088 HD
ATOM     21  H3  UNL     1      34.659 -19.785 -19.588  0.00  0.00    -0.088 HD
ENDBRANCH  17  18
BRANCH  17  23
ATOM     22  OXT UNL     1      33.040 -21.882 -18.726  0.00  0.00    -0.253 OA
ATOM     23  C   UNL     1      34.001 -22.463 -19.215  0.00  0.00    +0.293 C 
BRANCH  23  24
ATOM     24  O   UNL     1      34.061 -23.813 -19.329  0.00  0.00    -0.482 OA
ATOM     25  H   UNL     1      34.271 -24.205 -20.153  0.00  0.00    +0.295 HD
ENDBRANCH  23  24
ENDBRANCH  17  23
ENDBRANCH  16  17
ENDBRANCH  15  16
ENDBRANCH  14  15
ENDBRANCH   1  14
TORSDOF 13
ENDMDL
MODEL 2
REMARK VINA RESULT:      -7.0      2.969      3.901
REMARK  Name = 17754065
REMARK  13 active torsions:
REMARK  status: ('A' for Active; 'I' for Inactive)
REMARK    1  A    between atoms: CE_1  and  N_2
REMARK    2  A    between atoms: CE_1  and  CD_14
REMARK    3  A    between atoms: N_2  and  CA_5
REMARK    4  A    between atoms: CA_5  and  C_7
REMARK    5  A    between atoms: CA_5  and  C_11
REMARK    6  A    between atoms: C_7  and  O_8
REMARK    7  A    between atoms: C_11  and  O_12
REMARK    8  A    between atoms: CD_14  and  CG_15
REMARK    9  A    between atoms: CG_15  and  CB_16
REMARK   10  A    between atoms: CB_16  and  CA_17
REMARK   11  A    between atoms: CA_17  and  N_18
REMARK   12  A    between atoms: CA_17  and  C_23
REMARK   13  A    between atoms: C_23  and  O_24
REMARK                            x       y       z     vdW  Elec       q    Type
REMARK                         _______ _______ _______ _____ _____    ______ ____
ROOT
ATOM      1  CE  UNL     1      37.388 -23.280 -15.017  0.00  0.00    -0.080 C 
ENDROOT
BRANCH   1   2
ATOM      2  N   UNL     1      38.375 -24.254 -15.470  0.00  0.00    +0.399 N 
ATOM      3  H1  UNL     1      39.221 -23.761 -15.760  0.00  0.00    -0.083 HD
ATOM      4  H2  UNL     1      37.982 -24.777 -16.253  0.00  0.00    -0.083 HD
BRANCH   2   5
ATOM      5  CA  UNL     1      38.709 -25.189 -14.405  0.00  0.00    +0.140 C 
BRANCH   5   7
ATOM      6  O   UNL     1      41.100 -24.736 -14.613  0.00  0.00    -0.252 OA
ATOM      7  C   UNL     1      40.176 -25.535 -14.543  0.00  0.00    +0.304 C 
BRANCH   7   8
ATOM      8  O   UNL     1      40.352 -26.880 -14.626  0.00  0.00    -0.481 OA
ATOM      9  H   UNL     1      41.159 -27.228 -14.951  0.00  0.00    +0.295 HD
ENDBRANCH   7   8
ENDBRANCH   5   7
BRANCH   5  11
ATOM     10  OXT UNL     1      37.265 -26.982 -13.602  0.00  0.00    -0.252 OA
ATOM     11  C   UNL     1      37.752 -26.356 -14.534  0.00  0.00    +0.304 C 
BRANCH  11  12
ATOM     12  O   UNL     1      37.486 -26.655 -15.835  0.00  0.00    -0.481 OA
ATOM     13  H   UNL     1      36.644 -26.988 -16.077  0.00  0.00    +0.295 HD
ENDBRANCH  11  12
ENDBRANCH   5  11
ENDBRANCH   2   5
ENDBRANCH   1   2
BRANCH   1  14
ATOM     14  CD  UNL     1      36.586 -22.746 -16.202  0.00  0.00    -0.023 C 
BRANCH  14  15
ATOM     15  CG  UNL     1      35.094 -23.044 -16.036  0.00  0.00    -0.004 C 
BRANCH  15  16
ATOM     16  CB  UNL     1      34.806 -24.269 -15.158  0.00  0.00    -0.011 C 
BRANCH  16  17
ATOM     17  CA  UNL     1      34.348 -23.943 -13.731  0.00  0.00    +0.036 C 
BRANCH  17  18
ATOM     18  N   UNL     1      34.923 -24.876 -12.761  0.00  0.00    +0.389 N 
ATOM     19  H1  UNL     1      35.010 -25.799 -13.187  0.00  0.00    -0.088 HD
ATOM     20  H2  UNL     1      34.316 -24.934 -11.943  0.00  0.00    -0.088 HD
ATOM     21  H3  UNL     1      35.845 -24.544 -12.476  0.00  0.00    -0.088 HD
ENDBRANCH  17  18
BRANCH  17  23
ATOM     22  OXT UNL     1      32.222 -25.007 -13.314  0.00  0.00    -0.253 OA
ATOM     23  C   UNL     1      32.842 -23.982 -13.569  0.00  0.00    +0.293 C 
BRANCH  23  24
ATOM     24  O   UNL     1      32.234 -22.783 -13.747  0.00  0.00    -0.482 OA
ATOM     25  H   UNL     1      32.602 -22.010 -13.367  0.00  0.00    +0.295 HD
ENDBRANCH  23  24
ENDBRANCH  17  23
ENDBRANCH  16  17
ENDBRANCH  15  16
ENDBRANCH  14  15
ENDBRANCH   1  14
TORSDOF 13
ENDMDL
MODEL 3
REMARK VINA RESULT:      -7.0      4.216      6.214
REMARK  Name = 17754065
REMARK  13 active torsions:
REMARK  status: ('A' for Active; 'I' for Inactive)
REMARK    1  A    between atoms: CE_1  and  N_2
REMARK    2  A    between atoms: CE_1  and  CD_14
REMARK    3  A    between atoms: N_2  and  CA_5
REMARK    4  A    between atoms: CA_5  and  C_7
REMARK    5  A    between atoms: CA_5  and  C_11
REMARK    6  A    between atoms: C_7  and  O_8
REMARK    7  A    between atoms: C_11  and  O_12
REMARK    8  A    between atoms: CD_14  and  CG_15
REMARK    9  A    between atoms: CG_15  and  CB_16
REMARK   10  A    between atoms: CB_16  and  CA_17
REMARK   11  A    between atoms: CA_17  and  N_18
REMARK   12  A    between atoms: CA_17  and  C_23
REMARK   13  A    between atoms: C_23  and  O_24
REMARK                            x       y       z     vdW  Elec       q    Type
REMARK                         _______ _______ _______ _____ _____    ______ ____
ROOT
ATOM      1  CE  UNL     1      35.551 -23.753 -14.100  0.00  0.00    -0.080 C 
ENDROOT
BRANCH   1   2
ATOM      2  N   UNL     1      35.702 -23.206 -12.757  0.00  0.00    +0.399 N 
ATOM      3  H1  UNL     1      34.793 -23.201 -12.294  0.00  0.00    -0.083 HD
ATOM      4  H2  UNL     1      36.069 -22.257 -12.830  0.00  0.00    -0.083 HD
BRANCH   2   5
ATOM      5  CA  UNL     1      36.632 -24.005 -11.972  0.00  0.00    +0.140 C 
BRANCH   5   7
ATOM      6  O   UNL     1      35.026 -25.230 -10.600  0.00  0.00    -0.252 OA
ATOM      7  C   UNL     1      35.926 -24.407 -10.696  0.00  0.00    +0.304 C 
BRANCH   7   8
ATOM      8  O   UNL     1      36.392 -23.693  -9.637  0.00  0.00    -0.481 OA
ATOM      9  H   UNL     1      37.291 -23.428  -9.609  0.00  0.00    +0.295 HD
ENDBRANCH   7   8
ENDBRANCH   5   7
BRANCH   5  11
ATOM     10  OXT UNL     1      39.012 -23.602 -11.627  0.00  0.00    -0.252 OA
ATOM     11  C   UNL     1      37.880 -23.165 -11.788  0.00  0.00    +0.304 C 
BRANCH  11  12
ATOM     12  O   UNL     1      37.604 -21.833 -11.809  0.00  0.00    -0.481 OA
ATOM     13  H   UNL     1      37.136 -21.463 -12.531  0.00  0.00    +0.295 HD
ENDBRANCH  11  12
ENDBRANCH   5  11
ENDBRANCH   2   5
ENDBRANCH   1   2
BRANCH   1  14
ATOM     14  CD  UNL     1      36.502 -23.051 -15.069  0.00  0.00    -0.023 C 
BRANCH  14  15
ATOM     15  CG  UNL     1      37.758 -23.893 -15.314  0.00  0.00    -0.004 C 
BRANCH  15  16
ATOM     16  CB  UNL     1      37.549 -25.393 -15.072  0.00  0.00    -0.011 C 
BRANCH  16  17
ATOM     17  CA  UNL     1      38.783 -26.137 -14.547  0.00  0.00    +0.036 C 
BRANCH  17  18
ATOM     18  N   UNL     1      38.803 -26.171 -13.084  0.00  0.00    +0.389 N 
ATOM     19  H1  UNL     1      39.664 -25.742 -12.745  0.00  0.00    -0.088 HD
ATOM     20  H2  UNL     1      38.757 -27.139 -12.765  0.00  0.00    -0.088 HD
ATOM     21  H3  UNL     1      38.000 -25.656 -12.721  0.00  0.00    -0.088 HD
ENDBRANCH  17  18
BRANCH  17  23
ATOM     22  OXT UNL     1      40.749 -24.753 -14.318  0.00  0.00    -0.253 OA
ATOM     23  C   UNL     1      40.088 -25.519 -15.009  0.00  0.00    +0.293 C 
BRANCH  23  24
ATOM     24  O   UNL     1      40.455 -25.874 -16.266  0.00  0.00    -0.482 OA
ATOM     25  H   UNL     1      40.250 -26.729 -16.590  0.00  0.00    +0.295 HD
ENDBRANCH  23  24
ENDBRANCH  17  23
ENDBRANCH  16  17
ENDBRANCH  15  16
ENDBRANCH  14  15
ENDBRANCH   1  14
TORSDOF 13
ENDMDL
MODEL 4
REMARK VINA RESULT:      -6.9      3.329      6.401
REMARK  Name = 17754065
REMARK  13 active torsions:
REMARK  status: ('A' for Active; 'I' for Inactive)
REMARK    1  A    between atoms: CE_1  and  N_2
REMARK    2  A    between atoms: CE_1  and  CD_14
REMARK    3  A    between atoms: N_2  and  CA_5
REMARK    4  A    between atoms: CA_5  and  C_7
REMARK    5  A    between atoms: CA_5  and  C_11
REMARK    6  A    between atoms: C_7  and  O_8
REMARK    7  A    between atoms: C_11  and  O_12
REMARK    8  A    between atoms: CD_14  and  CG_15
REMARK    9  A    between atoms: CG_15  and  CB_16
REMARK   10  A    between atoms: CB_16  and  CA_17
REMARK   11  A    between atoms: CA_17  and  N_18
REMARK   12  A    between atoms: CA_17  and  C_23
REMARK   13  A    between atoms: C_23  and  O_24
REMARK                            x       y       z     vdW  Elec       q    Type
REMARK                         _______ _______ _______ _____ _____    ______ ____
ROOT
ATOM      1  CE  UNL     1      35.792 -24.384 -12.302  0.00  0.00    -0.080 C 
ENDROOT
BRANCH   1   2
ATOM      2  N   UNL     1      35.020 -23.556 -13.221  0.00  0.00    +0.399 N 
ATOM      3  H1  UNL     1      35.653 -22.930 -13.720  0.00  0.00    -0.083 HD
ATOM      4  H2  UNL     1      34.340 -23.018 -12.683  0.00  0.00    -0.083 HD
BRANCH   2   5
ATOM      5  CA  UNL     1      34.304 -24.378 -14.185  0.00  0.00    +0.140 C 
BRANCH   5   7
ATOM      6  O   UNL     1      35.643 -23.751 -16.128  0.00  0.00    -0.252 OA
ATOM      7  C   UNL     1      34.561 -23.802 -15.560  0.00  0.00    +0.304 C 
BRANCH   7   8
ATOM      8  O   UNL     1      33.420 -23.288 -16.092  0.00  0.00    -0.481 OA
ATOM      9  H   UNL     1      32.880 -23.819 -16.645  0.00  0.00    +0.295 HD
ENDBRANCH   7   8
ENDBRANCH   5   7
BRANCH   5  11
ATOM     10  OXT UNL     1      32.059 -25.305 -13.962  0.00  0.00    -0.252 OA
ATOM     11  C   UNL     1      32.853 -24.397 -13.749  0.00  0.00    +0.304 C 
BRANCH  11  12
ATOM     12  O   UNL     1      32.506 -23.262 -13.085  0.00  0.00    -0.481 OA
ATOM     13  H   UNL     1      32.627 -22.426 -13.490  0.00  0.00    +0.295 HD
ENDBRANCH  11  12
ENDBRANCH   5  11
ENDBRANCH   2   5
ENDBRANCH   1   2
BRANCH   1  14
ATOM     14  CD  UNL     1      36.910 -23.563 -11.660  0.00  0.00    -0.023 C 
BRANCH  14  15
ATOM     15  CG  UNL     1      38.284 -24.025 -12.154  0.00  0.00    -0.004 C 
BRANCH  15  16
ATOM     16  CB  UNL     1      38.230 -25.279 -13.036  0.00  0.00    -0.011 C 
BRANCH  16  17
ATOM     17  CA  UNL     1      38.549 -25.037 -14.517  0.00  0.00    +0.036 C 
BRANCH  17  18
ATOM     18  N   UNL     1      37.756 -25.910 -15.382  0.00  0.00    +0.389 N 
ATOM     19  H1  UNL     1      38.225 -26.013 -16.283  0.00  0.00    -0.088 HD
ATOM     20  H2  UNL     1      36.832 -25.503 -15.524  0.00  0.00    -0.088 HD
ATOM     21  H3  UNL     1      37.659 -26.827 -14.943  0.00  0.00    -0.088 HD
ENDBRANCH  17  18
BRANCH  17  23
ATOM     22  OXT UNL     1      40.928 -24.893 -14.129  0.00  0.00    -0.253 OA
ATOM     23  C   UNL     1      40.010 -25.260 -14.852  0.00  0.00    +0.293 C 
BRANCH  23  24
ATOM     24  O   UNL     1      40.216 -25.890 -16.036  0.00  0.00    -0.482 OA
ATOM     25  H   UNL     1      40.134 -26.821 -16.092  0.00  0.00    +0.295 HD
ENDBRANCH  23  24
ENDBRANCH  17  23
ENDBRANCH  16  17
ENDBRANCH  15  16
ENDBRANCH  14  15
ENDBRANCH   1  14
TORSDOF 13
ENDMDL
MODEL 5
REMARK VINA RESULT:      -6.9      4.570      5.274
REMARK  Name = 17754065
REMARK  13 active torsions:
REMARK  status: ('A' for Active; 'I' for Inactive)
REMARK    1  A    between atoms: CE_1  and  N_2
REMARK    2  A    between atoms: CE_1  and  CD_14
REMARK    3  A    between atoms: N_2  and  CA_5
REMARK    4  A    between atoms: CA_5  and  C_7
REMARK    5  A    between atoms: CA_5  and  C_11
REMARK    6  A    between atoms: C_7  and  O_8
REMARK    7  A    between atoms: C_11  and  O_12
REMARK    8  A    between atoms: CD_14  and  CG_15
REMARK    9  A    between atoms: CG_15  and  CB_16
REMARK   10  A    between atoms: CB_16  and  CA_17
REMARK   11  A    between atoms: CA_17  and  N_18
REMARK   12  A    between atoms: CA_17  and  C_23
REMARK   13  A    between atoms: C_23  and  O_24
REMARK                            x       y       z     vdW  Elec       q    Type
REMARK                         _______ _______ _______ _____ _____    ______ ____
ROOT
ATOM      1  CE  UNL     1      33.790 -23.884 -14.275  0.00  0.00    -0.080 C 
ENDROOT
BRANCH   1   2
ATOM      2  N   UNL     1      34.531 -24.933 -13.586  0.00  0.00    +0.399 N 
ATOM      3  H1  UNL     1      34.282 -25.838 -13.988  0.00  0.00    -0.083 HD
ATOM      4  H2  UNL     1      34.291 -24.906 -12.594  0.00  0.00    -0.083 HD
BRANCH   2   5
ATOM      5  CA  UNL     1      35.967 -24.731 -13.722  0.00  0.00    +0.140 C 
BRANCH   5   7
ATOM      6  O   UNL     1      36.021 -26.394 -15.509  0.00  0.00    -0.252 OA
ATOM      7  C   UNL     1      36.389 -25.323 -15.049  0.00  0.00    +0.304 C 
BRANCH   7   8
ATOM      8  O   UNL     1      37.292 -24.521 -15.673  0.00  0.00    -0.481 OA
ATOM      9  H   UNL     1      37.525 -24.683 -16.566  0.00  0.00    +0.295 HD
ENDBRANCH   7   8
ENDBRANCH   5   7
BRANCH   5  11
ATOM     10  OXT UNL     1      36.902 -24.756 -11.470  0.00  0.00    -0.252 OA
ATOM     11  C   UNL     1      36.612 -25.351 -12.499  0.00  0.00    +0.304 C 
BRANCH  11  12
ATOM     12  O   UNL     1      36.854 -26.679 -12.670  0.00  0.00    -0.481 OA
ATOM     13  H   UNL     1      37.315 -27.160 -12.011  0.00  0.00    +0.295 HD
ENDBRANCH  11  12
ENDBRANCH   5  11
ENDBRANCH   2   5
ENDBRANCH   1   2
BRANCH   1  14
ATOM     14  CD  UNL     1      32.302 -23.976 -13.939  0.00  0.00    -0.023 C 
BRANCH  14  15
ATOM     15  CG  UNL     1      31.517 -22.842 -14.603  0.00  0.00    -0.004 C 
BRANCH  15  16
ATOM     16  CB  UNL     1      30.700 -23.292 -15.821  0.00  0.00    -0.011 C 
BRANCH  16  17
ATOM     17  CA  UNL     1      29.198 -23.458 -15.561  0.00  0.00    +0.036 C 
BRANCH  17  18
ATOM     18  N   UNL     1      28.887 -24.803 -15.074  0.00  0.00    +0.389 N 
ATOM     19  H1  UNL     1      29.719 -25.211 -14.647  0.00  0.00    -0.088 HD
ATOM     20  H2  UNL     1      28.584 -25.386 -15.854  0.00  0.00    -0.088 HD
ATOM     21  H3  UNL     1      28.140 -24.749 -14.381  0.00  0.00    -0.088 HD
ENDBRANCH  17  18
BRANCH  17  23
ATOM     22  OXT UNL     1      27.798 -24.107 -17.419  0.00  0.00    -0.253 OA
ATOM     23  C   UNL     1      28.352 -23.210 -16.794  0.00  0.00    +0.293 C 
BRANCH  23  24
ATOM     24  O   UNL     1      28.274 -21.906 -17.160  0.00  0.00    -0.482 OA
ATOM     25  H   UNL     1      27.870 -21.670 -17.971  0.00  0.00    +0.295 HD
ENDBRANCH  23  24
ENDBRANCH  17  23
ENDBRANCH  16  17
ENDBRANCH  15  16
ENDBRANCH  14  15
ENDBRANCH   1  14
TORSDOF 13
ENDMDL
MODEL 6
REMARK VINA RESULT:      -6.9      3.700      6.675
REMARK  Name = 17754065
REMARK  13 active torsions:
REMARK  status: ('A' for Active; 'I' for Inactive)
REMARK    1  A    between atoms: CE_1  and  N_2
REMARK    2  A    between atoms: CE_1  and  CD_14
REMARK    3  A    between atoms: N_2  and  CA_5
REMARK    4  A    between atoms: CA_5  and  C_7
REMARK    5  A    between atoms: CA_5  and  C_11
REMARK    6  A    between atoms: C_7  and  O_8
REMARK    7  A    between atoms: C_11  and  O_12
REMARK    8  A    between atoms: CD_14  and  CG_15
REMARK    9  A    between atoms: CG_15  and  CB_16
REMARK   10  A    between atoms: CB_16  and  CA_17
REMARK   11  A    between atoms: CA_17  and  N_18
REMARK   12  A    between atoms: CA_17  and  C_23
REMARK   13  A    between atoms: C_23  and  O_24
REMARK                            x       y       z     vdW  Elec       q    Type
REMARK                         _______ _______ _______ _____ _____    ______ ____
ROOT
ATOM      1  CE  UNL     1      35.429 -24.254 -11.687  0.00  0.00    -0.080 C 
ENDROOT
BRANCH   1   2
ATOM      2  N   UNL     1      35.121 -25.017 -12.891  0.00  0.00    +0.399 N 
ATOM      3  H1  UNL     1      34.430 -25.734 -12.664  0.00  0.00    -0.083 HD
ATOM      4  H2  UNL     1      35.980 -25.447 -13.235  0.00  0.00    -0.083 HD
BRANCH   2   5
ATOM      5  CA  UNL     1      34.585 -24.152 -13.931  0.00  0.00    +0.140 C 
BRANCH   5   7
ATOM      6  O   UNL     1      32.323 -23.257 -13.717  0.00  0.00    -0.252 OA
ATOM      7  C   UNL     1      33.075 -24.213 -13.847  0.00  0.00    +0.304 C 
BRANCH   7   8
ATOM      8  O   UNL     1      32.638 -25.499 -13.888  0.00  0.00    -0.481 OA
ATOM      9  H   UNL     1      32.383 -25.933 -13.097  0.00  0.00    +0.295 HD
ENDBRANCH   7   8
ENDBRANCH   5   7
BRANCH   5  11
ATOM     10  OXT UNL     1      35.474 -23.907 -16.189  0.00  0.00    -0.252 OA
ATOM     11  C   UNL     1      35.182 -24.625 -15.241  0.00  0.00    +0.304 C 
BRANCH  11  12
ATOM     12  O   UNL     1      35.356 -25.974 -15.264  0.00  0.00    -0.481 OA
ATOM     13  H   UNL     1      34.750 -26.517 -15.729  0.00  0.00    +0.295 HD
ENDBRANCH  11  12
ENDBRANCH   5  11
ENDBRANCH   2   5
ENDBRANCH   1   2
BRANCH   1  14
ATOM     14  CD  UNL     1      36.896 -23.825 -11.693  0.00  0.00    -0.023 C 
BRANCH  14  15
ATOM     15  CG  UNL     1      37.798 -24.952 -12.203  0.00  0.00    -0.004 C 
BRANCH  15  16
ATOM     16  CB  UNL     1      38.641 -24.559 -13.422  0.00  0.00    -0.011 C 
BRANCH  16  17
ATOM     17  CA  UNL     1      38.743 -25.638 -14.507  0.00  0.00    +0.036 C 
BRANCH  17  18
ATOM     18  N   UNL     1      37.994 -26.839 -14.136  0.00  0.00    +0.389 N 
ATOM     19  H1  UNL     1      37.981 -26.931 -13.120  0.00  0.00    -0.088 HD
ATOM     20  H2  UNL     1      38.440 -27.659 -14.547  0.00  0.00    -0.088 HD
ATOM     21  H3  UNL     1      37.037 -26.764 -14.484  0.00  0.00    -0.088 HD
ENDBRANCH  17  18
BRANCH  17  23
ATOM     22  OXT UNL     1      40.950 -26.423 -13.920  0.00  0.00    -0.253 OA
ATOM     23  C   UNL     1      40.171 -26.058 -14.793  0.00  0.00    +0.293 C 
BRANCH  23  24
ATOM     24  O   UNL     1      40.521 -25.979 -16.101  0.00  0.00    -0.482 OA
ATOM     25  H   UNL     1      40.834 -25.169 -16.455  0.00  0.00    +0.295 HD
ENDBRANCH  23  24
ENDBRANCH  17  23
ENDBRANCH  16  17
ENDBRANCH  15  16
ENDBRANCH  14  15
ENDBRANCH   1  14
TORSDOF 13
ENDMDL
MODEL 7
REMARK VINA RESULT:      -6.8      4.153      4.608
REMARK  Name = 17754065
REMARK  13 active torsions:
REMARK  status: ('A' for Active; 'I' for Inactive)
REMARK    1  A    between atoms: CE_1  and  N_2
REMARK    2  A    between atoms: CE_1  and  CD_14
REMARK    3  A    between atoms: N_2  and  CA_5
REMARK    4  A    between atoms: CA_5  and  C_7
REMARK    5  A    between atoms: CA_5  and  C_11
REMARK    6  A    between atoms: C_7  and  O_8
REMARK    7  A    between atoms: C_11  and  O_12
REMARK    8  A    between atoms: CD_14  and  CG_15
REMARK    9  A    between atoms: CG_15  and  CB_16
REMARK   10  A    between atoms: CB_16  and  CA_17
REMARK   11  A    between atoms: CA_17  and  N_18
REMARK   12  A    between atoms: CA_17  and  C_23
REMARK   13  A    between atoms: C_23  and  O_24
REMARK                            x       y       z     vdW  Elec       q    Type
REMARK                         _______ _______ _______ _____ _____    ______ ____
ROOT
ATOM      1  CE  UNL     1      34.359 -24.311 -14.629  0.00  0.00    -0.080 C 
ENDROOT
BRANCH   1   2
ATOM      2  N   UNL     1      35.516 -24.762 -15.394  0.00  0.00    +0.399 N 
ATOM      3  H1  UNL     1      35.828 -24.006 -16.005  0.00  0.00    -0.083 HD
ATOM      4  H2  UNL     1      35.246 -25.576 -15.946  0.00  0.00    -0.083 HD
BRANCH   2   5
ATOM      5  CA  UNL     1      36.609 -25.141 -14.510  0.00  0.00    +0.140 C 
BRANCH   5   7
ATOM      6  O   UNL     1      37.553 -23.088 -13.584  0.00  0.00    -0.252 OA
ATOM      7  C   UNL     1      37.564 -23.970 -14.432  0.00  0.00    +0.304 C 
BRANCH   7   8
ATOM      8  O   UNL     1      38.436 -23.985 -15.474  0.00  0.00    -0.481 OA
ATOM      9  H   UNL     1      38.802 -24.796 -15.767  0.00  0.00    +0.295 HD
ENDBRANCH   7   8
ENDBRANCH   5   7
BRANCH   5  11
ATOM     10  OXT UNL     1      38.214 -26.969 -14.666  0.00  0.00    -0.252 OA
ATOM     11  C   UNL     1      37.196 -26.422 -15.067  0.00  0.00    +0.304 C 
BRANCH  11  12
ATOM     12  O   UNL     1      36.457 -26.913 -16.098  0.00  0.00    -0.481 OA
ATOM     13  H   UNL     1      36.650 -26.654 -16.978  0.00  0.00    +0.295 HD
ENDBRANCH  11  12
ENDBRANCH   5  11
ENDBRANCH   2   5
ENDBRANCH   1   2
BRANCH   1  14
ATOM     14  CD  UNL     1      33.392 -23.547 -15.531  0.00  0.00    -0.023 C 
BRANCH  14  15
ATOM     15  CG  UNL     1      32.033 -23.365 -14.850  0.00  0.00    -0.004 C 
BRANCH  15  16
ATOM     16  CB  UNL     1      30.924 -22.902 -15.805  0.00  0.00    -0.011 C 
BRANCH  16  17
ATOM     17  CA  UNL     1      29.613 -23.692 -15.697  0.00  0.00    +0.036 C 
BRANCH  17  18
ATOM     18  N   UNL     1      29.850 -25.132 -15.794  0.00  0.00    +0.389 N 
ATOM     19  H1  UNL     1      30.416 -25.330 -16.619  0.00  0.00    -0.088 HD
ATOM     20  H2  UNL     1      28.958 -25.620 -15.869  0.00  0.00    -0.088 HD
ATOM     21  H3  UNL     1      30.343 -25.453 -14.959  0.00  0.00    -0.088 HD
ENDBRANCH  17  18
BRANCH  17  23
ATOM     22  OXT UNL     1      27.906 -24.142 -17.344  0.00  0.00    -0.253 OA
ATOM     23  C   UNL     1      28.608 -23.319 -16.768  0.00  0.00    +0.293 C 
BRANCH  23  24
ATOM     24  O   UNL     1      28.562 -21.992 -17.048  0.00  0.00    -0.482 OA
ATOM     25  H   UNL     1      27.810 -21.629 -17.471  0.00  0.00    +0.295 HD
ENDBRANCH  23  24
ENDBRANCH  17  23
ENDBRANCH  16  17
ENDBRANCH  15  16
ENDBRANCH  14  15
ENDBRANCH   1  14
TORSDOF 13
ENDMDL
MODEL 8
REMARK VINA RESULT:      -6.8      2.316      2.787
REMARK  Name = 17754065
REMARK  13 active torsions:
REMARK  status: ('A' for Active; 'I' for Inactive)
REMARK    1  A    between atoms: CE_1  and  N_2
REMARK    2  A    between atoms: CE_1  and  CD_14
REMARK    3  A    between atoms: N_2  and  CA_5
REMARK    4  A    between atoms: CA_5  and  C_7
REMARK    5  A    between atoms: CA_5  and  C_11
REMARK    6  A    between atoms: C_7  and  O_8
REMARK    7  A    between atoms: C_11  and  O_12
REMARK    8  A    between atoms: CD_14  and  CG_15
REMARK    9  A    between atoms: CG_15  and  CB_16
REMARK   10  A    between atoms: CB_16  and  CA_17
REMARK   11  A    between atoms: CA_17  and  N_18
REMARK   12  A    between atoms: CA_17  and  C_23
REMARK   13  A    between atoms: C_23  and  O_24
REMARK                            x       y       z     vdW  Elec       q    Type
REMARK                         _______ _______ _______ _____ _____    ______ ____
ROOT
ATOM      1  CE  UNL     1      37.227 -23.525 -14.786  0.00  0.00    -0.080 C 
ENDROOT
BRANCH   1   2
ATOM      2  N   UNL     1      38.265 -24.368 -15.365  0.00  0.00    +0.399 N 
ATOM      3  H1  UNL     1      39.111 -23.813 -15.499  0.00  0.00    -0.083 HD
ATOM      4  H2  UNL     1      37.932 -24.729 -16.259  0.00  0.00    -0.083 HD
BRANCH   2   5
ATOM      5  CA  UNL     1      38.568 -25.494 -14.493  0.00  0.00    +0.140 C 
BRANCH   5   7
ATOM      6  O   UNL     1      40.823 -26.259 -13.954  0.00  0.00    -0.252 OA
ATOM      7  C   UNL     1      39.986 -25.932 -14.784  0.00  0.00    +0.304 C 
BRANCH   7   8
ATOM      8  O   UNL     1      40.248 -25.877 -16.117  0.00  0.00    -0.481 OA
ATOM      9  H   UNL     1      39.548 -25.959 -16.736  0.00  0.00    +0.295 HD
ENDBRANCH   7   8
ENDBRANCH   5   7
BRANCH   5  11
ATOM     10  OXT UNL     1      37.172 -26.970 -15.842  0.00  0.00    -0.252 OA
ATOM     11  C   UNL     1      37.500 -26.539 -14.744  0.00  0.00    +0.304 C 
BRANCH  11  12
ATOM     12  O   UNL     1      36.915 -26.957 -13.589  0.00  0.00    -0.481 OA
ATOM     13  H   UNL     1      37.445 -27.212 -12.860  0.00  0.00    +0.295 HD
ENDBRANCH  11  12
ENDBRANCH   5  11
ENDBRANCH   2   5
ENDBRANCH   1   2
BRANCH   1  14
ATOM     14  CD  UNL     1      36.178 -23.173 -15.840  0.00  0.00    -0.023 C 
BRANCH  14  15
ATOM     15  CG  UNL     1      34.903 -23.997 -15.644  0.00  0.00    -0.004 C 
BRANCH  15  16
ATOM     16  CB  UNL     1      33.629 -23.146 -15.560  0.00  0.00    -0.011 C 
BRANCH  16  17
ATOM     17  CA  UNL     1      32.590 -23.437 -16.651  0.00  0.00    +0.036 C 
BRANCH  17  18
ATOM     18  N   UNL     1      33.004 -22.885 -17.942  0.00  0.00    +0.389 N 
ATOM     19  H1  UNL     1      34.003 -22.678 -17.919  0.00  0.00    -0.088 HD
ATOM     20  H2  UNL     1      32.483 -22.029 -18.129  0.00  0.00    -0.088 HD
ATOM     21  H3  UNL     1      32.815 -23.565 -18.679  0.00  0.00    -0.088 HD
ENDBRANCH  17  18
BRANCH  17  23
ATOM     22  OXT UNL     1      30.476 -22.398 -17.178  0.00  0.00    -0.253 OA
ATOM     23  C   UNL     1      31.220 -22.874 -16.330  0.00  0.00    +0.293 C 
BRANCH  23  24
ATOM     24  O   UNL     1      30.893 -22.929 -15.014  0.00  0.00    -0.482 OA
ATOM     25  H   UNL     1      31.228 -22.286 -14.421  0.00  0.00    +0.295 HD
ENDBRANCH  23  24
ENDBRANCH  17  23
ENDBRANCH  16  17
ENDBRANCH  15  16
ENDBRANCH  14  15
ENDBRANCH   1  14
TORSDOF 13
ENDMDL
MODEL 9
REMARK VINA RESULT:      -6.7      4.277      4.907
REMARK  Name = 17754065
REMARK  13 active torsions:
REMARK  status: ('A' for Active; 'I' for Inactive)
REMARK    1  A    between atoms: CE_1  and  N_2
REMARK    2  A    between atoms: CE_1  and  CD_14
REMARK    3  A    between atoms: N_2  and  CA_5
REMARK    4  A    between atoms: CA_5  and  C_7
REMARK    5  A    between atoms: CA_5  and  C_11
REMARK    6  A    between atoms: C_7  and  O_8
REMARK    7  A    between atoms: C_11  and  O_12
REMARK    8  A    between atoms: CD_14  and  CG_15
REMARK    9  A    between atoms: CG_15  and  CB_16
REMARK   10  A    between atoms: CB_16  and  CA_17
REMARK   11  A    between atoms: CA_17  and  N_18
REMARK   12  A    between atoms: CA_17  and  C_23
REMARK   13  A    between atoms: C_23  and  O_24
REMARK                            x       y       z     vdW  Elec       q    Type
REMARK                         _______ _______ _______ _____ _____    ______ ____
ROOT
ATOM      1  CE  UNL     1      36.281 -23.807 -14.972  0.00  0.00    -0.080 C 
ENDROOT
BRANCH   1   2
ATOM      2  N   UNL     1      36.424 -24.649 -13.790  0.00  0.00    +0.399 N 
ATOM      3  H1  UNL     1      37.273 -25.209 -13.879  0.00  0.00    -0.083 HD
ATOM      4  H2  UNL     1      35.605 -25.254 -13.719  0.00  0.00    -0.083 HD
BRANCH   2   5
ATOM      5  CA  UNL     1      36.511 -23.840 -12.583  0.00  0.00    +0.140 C 
BRANCH   5   7
ATOM      6  O   UNL     1      38.687 -23.214 -11.670  0.00  0.00    -0.252 OA
ATOM      7  C   UNL     1      37.873 -24.077 -11.969  0.00  0.00    +0.304 C 
BRANCH   7   8
ATOM      8  O   UNL     1      38.116 -25.406 -11.824  0.00  0.00    -0.481 OA
ATOM      9  H   UNL     1      38.965 -25.701 -11.555  0.00  0.00    +0.295 HD
ENDBRANCH   7   8
ENDBRANCH   5   7
BRANCH   5  11
ATOM     10  OXT UNL     1      35.355 -25.050 -10.809  0.00  0.00    -0.252 OA
ATOM     11  C   UNL     1      35.331 -24.226 -11.714  0.00  0.00    +0.304 C 
BRANCH  11  12
ATOM     12  O   UNL     1      34.202 -23.550 -12.059  0.00  0.00    -0.481 OA
ATOM     13  H   UNL     1      33.625 -23.902 -12.709  0.00  0.00    +0.295 HD
ENDBRANCH  11  12
ENDBRANCH   5  11
ENDBRANCH   2   5
ENDBRANCH   1   2
BRANCH   1  14
ATOM     14  CD  UNL     1      34.987 -24.143 -15.710  0.00  0.00    -0.023 C 
BRANCH  14  15
ATOM     15  CG  UNL     1      33.914 -23.081 -15.453  0.00  0.00    -0.004 C 
BRANCH  15  16
ATOM     16  CB  UNL     1      32.491 -23.554 -15.779  0.00  0.00    -0.011 C 
BRANCH  16  17
ATOM     17  CA  UNL     1      31.497 -23.446 -14.616  0.00  0.00    +0.036 C 
BRANCH  17  18
ATOM     18  N   UNL     1      31.936 -22.458 -13.629  0.00  0.00    +0.389 N 
ATOM     19  H1  UNL     1      32.676 -22.859 -13.052  0.00  0.00    -0.088 HD
ATOM     20  H2  UNL     1      31.149 -22.194 -13.038  0.00  0.00    -0.088 HD
ATOM     21  H3  UNL     1      32.292 -21.631 -14.111  0.00  0.00    -0.088 HD
ENDBRANCH  17  18
BRANCH  17  23
ATOM     22  OXT UNL     1      32.118 -25.238 -13.122  0.00  0.00    -0.253 OA
ATOM     23  C   UNL     1      31.291 -24.760 -13.889  0.00  0.00    +0.293 C 
BRANCH  23  24
ATOM     24  O   UNL     1      30.115 -25.372 -14.175  0.00  0.00    -0.482 OA
ATOM     25  H   UNL     1      29.324 -25.083 -13.764  0.00  0.00    +0.295 HD
ENDBRANCH  23  24
ENDBRANCH  17  23
ENDBRANCH  16  17
ENDBRANCH  15  16
ENDBRANCH  14  15
ENDBRANCH   1  14
TORSDOF 13
ENDMDL
