MODEL 1
REMARK VINA RESULT:      -9.5      0.000      0.000
REMARK  Name = 42627264
REMARK  11 active torsions:
REMARK  status: ('A' for Active; 'I' for Inactive)
REMARK    1  A    between atoms: C_3  and  C_21
REMARK    2  A    between atoms: C_4  and  C_30
REMARK    3  A    between atoms: C_6  and  O_17
REMARK    4  A    between atoms: C_13  and  O_19
REMARK    5  A    between atoms: C_21  and  O_22
REMARK    6  A    between atoms: C_21  and  C_24
REMARK    7  A    between atoms: C_24  and  C_25
REMARK    8  A    between atoms: C_25  and  O_26
REMARK    9  A    between atoms: C_25  and  C_28
REMARK   10  A    between atoms: C_30  and  C_32
REMARK   11  A    between atoms: C_32  and  O_33
REMARK                            x       y       z     vdW  Elec       q    Type
REMARK                         _______ _______ _______ _____ _____    ______ ____
ROOT
ATOM      1  O   UNL     1      37.143 -21.716 -17.899  0.00  0.00    -0.286 OA
ATOM      2  O   UNL     1      31.856 -22.467 -18.100  0.00  0.00    -0.287 OA
ATOM      3  C   UNL     1      35.341 -23.914 -14.820  0.00  0.00    +0.035 C 
ATOM      4  C   UNL     1      33.963 -24.110 -14.873  0.00  0.00    -0.010 C 
ATOM      5  C   UNL     1      35.243 -22.656 -16.885  0.00  0.00    +0.076 C 
ATOM      6  C   UNL     1      35.984 -23.188 -15.823  0.00  0.00    +0.135 C 
ATOM      7  C   UNL     1      33.861 -22.852 -16.938  0.00  0.00    +0.045 C 
ATOM      8  C   UNL     1      33.221 -23.581 -15.929  0.00  0.00    -0.000 C 
ATOM      9  C   UNL     1      35.932 -21.888 -17.942  0.00  0.00    +0.202 C 
ATOM     10  C   UNL     1      33.067 -22.295 -18.053  0.00  0.00    +0.196 C 
ATOM     11  C   UNL     1      35.138 -21.331 -19.057  0.00  0.00    +0.076 C 
ATOM     12  C   UNL     1      33.756 -21.528 -19.111  0.00  0.00    +0.045 C 
ATOM     13  C   UNL     1      35.779 -20.602 -20.066  0.00  0.00    +0.137 C 
ATOM     14  C   UNL     1      33.016 -20.994 -20.172  0.00  0.00    +0.003 C 
ATOM     15  C   UNL     1      35.038 -20.072 -21.122  0.00  0.00    +0.037 C 
ATOM     16  C   UNL     1      33.659 -20.269 -21.175  0.00  0.00    +0.003 C 
ENDROOT
BRANCH   6  17
ATOM     17  O   UNL     1      37.335 -23.025 -15.725  0.00  0.00    -0.506 OA
ATOM     18  H   UNL     1      37.913 -23.637 -16.135  0.00  0.00    +0.292 HD
ENDBRANCH   6  17
BRANCH  13  19
ATOM     19  O   UNL     1      37.123 -20.372 -20.078  0.00  0.00    -0.505 OA
ATOM     20  H   UNL     1      37.554 -20.075 -19.301  0.00  0.00    +0.292 HD
ENDBRANCH  13  19
BRANCH   3  21
ATOM     21  C   UNL     1      36.132 -24.483 -13.684  0.00  0.00    +0.138 C 
BRANCH  21  22
ATOM     22  O   UNL     1      36.604 -23.399 -12.872  0.00  0.00    -0.380 OA
ATOM     23  H   UNL     1      37.575 -23.387 -12.880  0.00  0.00    +0.211 HD
ENDBRANCH  21  22
BRANCH  21  24
ATOM     24  C   UNL     1      37.348 -25.325 -14.119  0.00  0.00    +0.063 C 
BRANCH  24  25
ATOM     25  C   UNL     1      38.579 -25.228 -13.205  0.00  0.00    +0.113 C 
BRANCH  25  26
ATOM     26  O   UNL     1      38.263 -25.878 -11.971  0.00  0.00    -0.384 OA
ATOM     27  H   UNL     1      38.732 -26.725 -11.922  0.00  0.00    +0.210 HD
ENDBRANCH  25  26
BRANCH  25  28
ATOM     28  C   UNL     1      39.822 -25.898 -13.798  0.00  0.00    +0.029 C 
ATOM     29  C   UNL     1      40.183 -25.338 -15.169  0.00  0.00    +0.003 C 
ENDBRANCH  25  28
ENDBRANCH  24  25
ENDBRANCH  21  24
ENDBRANCH   3  21
BRANCH   4  30
ATOM     30  C   UNL     1      33.253 -24.884 -13.809  0.00  0.00    +0.136 C 
BRANCH  30  32
ATOM     31  O   UNL     1      31.359 -23.502 -13.161  0.00  0.00    -0.250 OA
ATOM     32  C   UNL     1      31.788 -24.524 -13.680  0.00  0.00    +0.322 C 
BRANCH  32  33
ATOM     33  O   UNL     1      31.030 -25.518 -14.232  0.00  0.00    -0.444 OA
ATOM     34  C   UNL     1      29.857 -25.084 -14.930  0.00  0.00    +0.256 C 
ENDBRANCH  32  33
ENDBRANCH  30  32
ENDBRANCH   4  30
TORSDOF 11
ENDMDL
MODEL 2
REMARK VINA RESULT:      -9.2      1.716      5.489
REMARK  Name = 42627264
REMARK  11 active torsions:
REMARK  status: ('A' for Active; 'I' for Inactive)
REMARK    1  A    between atoms: C_3  and  C_21
REMARK    2  A    between atoms: C_4  and  C_30
REMARK    3  A    between atoms: C_6  and  O_17
REMARK    4  A    between atoms: C_13  and  O_19
REMARK    5  A    between atoms: C_21  and  O_22
REMARK    6  A    between atoms: C_21  and  C_24
REMARK    7  A    between atoms: C_24  and  C_25
REMARK    8  A    between atoms: C_25  and  O_26
REMARK    9  A    between atoms: C_25  and  C_28
REMARK   10  A    between atoms: C_30  and  C_32
REMARK   11  A    between atoms: C_32  and  O_33
REMARK                            x       y       z     vdW  Elec       q    Type
REMARK                         _______ _______ _______ _____ _____    ______ ____
ROOT
ATOM      1  O   UNL     1      31.916 -24.842 -13.027  0.00  0.00    -0.286 OA
ATOM      2  O   UNL     1      32.453 -22.618 -17.857  0.00  0.00    -0.287 OA
ATOM      3  C   UNL     1      35.749 -23.661 -14.245  0.00  0.00    +0.035 C 
ATOM      4  C   UNL     1      35.888 -23.081 -15.504  0.00  0.00    -0.010 C 
ATOM      5  C   UNL     1      33.369 -23.897 -14.615  0.00  0.00    +0.076 C 
ATOM      6  C   UNL     1      34.491 -24.071 -13.798  0.00  0.00    +0.135 C 
ATOM      7  C   UNL     1      33.508 -23.315 -15.877  0.00  0.00    +0.045 C 
ATOM      8  C   UNL     1      34.771 -22.907 -16.321  0.00  0.00    -0.000 C 
ATOM      9  C   UNL     1      32.042 -24.334 -14.134  0.00  0.00    +0.202 C 
ATOM     10  C   UNL     1      32.331 -23.127 -16.750  0.00  0.00    +0.196 C 
ATOM     11  C   UNL     1      30.865 -24.146 -15.007  0.00  0.00    +0.076 C 
ATOM     12  C   UNL     1      31.004 -23.564 -16.269  0.00  0.00    +0.045 C 
ATOM     13  C   UNL     1      29.602 -24.554 -14.563  0.00  0.00    +0.137 C 
ATOM     14  C   UNL     1      29.881 -23.392 -17.086  0.00  0.00    +0.003 C 
ATOM     15  C   UNL     1      28.484 -24.381 -15.381  0.00  0.00    +0.037 C 
ATOM     16  C   UNL     1      28.625 -23.800 -16.640  0.00  0.00    +0.003 C 
ENDROOT
BRANCH   6  17
ATOM     17  O   UNL     1      34.409 -24.633 -12.557  0.00  0.00    -0.506 OA
ATOM     18  H   UNL     1      34.725 -25.503 -12.414  0.00  0.00    +0.292 HD
ENDBRANCH   6  17
BRANCH  13  19
ATOM     19  O   UNL     1      29.392 -25.129 -13.344  0.00  0.00    -0.505 OA
ATOM     20  H   UNL     1      30.091 -25.173 -12.721  0.00  0.00    +0.292 HD
ENDBRANCH  13  19
BRANCH   3  21
ATOM     21  C   UNL     1      36.949 -23.847 -13.371  0.00  0.00    +0.138 C 
BRANCH  21  22
ATOM     22  O   UNL     1      37.700 -22.625 -13.366  0.00  0.00    -0.380 OA
ATOM     23  H   UNL     1      37.204 -21.942 -12.887  0.00  0.00    +0.211 HD
ENDBRANCH  21  22
BRANCH  21  24
ATOM     24  C   UNL     1      37.886 -24.988 -13.815  0.00  0.00    +0.063 C 
BRANCH  24  25
ATOM     25  C   UNL     1      37.603 -26.358 -13.180  0.00  0.00    +0.113 C 
BRANCH  25  26
ATOM     26  O   UNL     1      36.803 -26.145 -12.015  0.00  0.00    -0.384 OA
ATOM     27  H   UNL     1      36.134 -26.844 -11.949  0.00  0.00    +0.210 HD
ENDBRANCH  25  26
BRANCH  25  28
ATOM     28  C   UNL     1      36.850 -27.309 -14.115  0.00  0.00    +0.029 C 
ATOM     29  C   UNL     1      36.845 -26.819 -15.558  0.00  0.00    +0.003 C 
ENDBRANCH  25  28
ENDBRANCH  24  25
ENDBRANCH  21  24
ENDBRANCH   3  21
BRANCH   4  30
ATOM     30  C   UNL     1      37.225 -22.636 -16.003  0.00  0.00    +0.136 C 
BRANCH  30  32
ATOM     31  O   UNL     1      37.436 -20.429 -17.003  0.00  0.00    -0.250 OA
ATOM     32  C   UNL     1      37.141 -21.611 -17.114  0.00  0.00    +0.322 C 
BRANCH  32  33
ATOM     33  O   UNL     1      36.686 -22.217 -18.252  0.00  0.00    -0.444 OA
ATOM     34  C   UNL     1      36.371 -21.337 -19.336  0.00  0.00    +0.256 C 
ENDBRANCH  32  33
ENDBRANCH  30  32
ENDBRANCH   4  30
TORSDOF 11
ENDMDL
MODEL 3
REMARK VINA RESULT:      -9.1      1.971      7.680
REMARK  Name = 42627264
REMARK  11 active torsions:
REMARK  status: ('A' for Active; 'I' for Inactive)
REMARK    1  A    between atoms: C_3  and  C_21
REMARK    2  A    between atoms: C_4  and  C_30
REMARK    3  A    between atoms: C_6  and  O_17
REMARK    4  A    between atoms: C_13  and  O_19
REMARK    5  A    between atoms: C_21  and  O_22
REMARK    6  A    between atoms: C_21  and  C_24
REMARK    7  A    between atoms: C_24  and  C_25
REMARK    8  A    between atoms: C_25  and  O_26
REMARK    9  A    between atoms: C_25  and  C_28
REMARK   10  A    between atoms: C_30  and  C_32
REMARK   11  A    between atoms: C_32  and  O_33
REMARK                            x       y       z     vdW  Elec       q    Type
REMARK                         _______ _______ _______ _____ _____    ______ ____
ROOT
ATOM      1  O   UNL     1      33.941 -24.715 -12.400  0.00  0.00    -0.286 OA
ATOM      2  O   UNL     1      37.286 -23.333 -16.332  0.00  0.00    -0.287 OA
ATOM      3  C   UNL     1      32.303 -23.199 -15.946  0.00  0.00    +0.035 C 
ATOM      4  C   UNL     1      33.175 -22.839 -16.971  0.00  0.00    -0.010 C 
ATOM      5  C   UNL     1      34.184 -23.857 -14.574  0.00  0.00    +0.076 C 
ATOM      6  C   UNL     1      32.804 -23.707 -14.747  0.00  0.00    +0.135 C 
ATOM      7  C   UNL     1      35.059 -23.497 -15.602  0.00  0.00    +0.045 C 
ATOM      8  C   UNL     1      34.552 -22.987 -16.803  0.00  0.00    -0.000 C 
ATOM      9  C   UNL     1      34.706 -24.397 -13.301  0.00  0.00    +0.202 C 
ATOM     10  C   UNL     1      36.519 -23.650 -15.432  0.00  0.00    +0.196 C 
ATOM     11  C   UNL     1      36.165 -24.549 -13.131  0.00  0.00    +0.076 C 
ATOM     12  C   UNL     1      37.040 -24.189 -14.159  0.00  0.00    +0.045 C 
ATOM     13  C   UNL     1      36.673 -25.059 -11.930  0.00  0.00    +0.137 C 
ATOM     14  C   UNL     1      38.421 -24.338 -13.985  0.00  0.00    +0.003 C 
ATOM     15  C   UNL     1      38.050 -25.207 -11.761  0.00  0.00    +0.037 C 
ATOM     16  C   UNL     1      38.922 -24.847 -12.787  0.00  0.00    +0.003 C 
ENDROOT
BRANCH   6  17
ATOM     17  O   UNL     1      31.908 -24.045 -13.775  0.00  0.00    -0.506 OA
ATOM     18  H   UNL     1      31.703 -24.945 -13.617  0.00  0.00    +0.292 HD
ENDBRANCH   6  17
BRANCH  13  19
ATOM     19  O   UNL     1      35.878 -25.431 -10.886  0.00  0.00    -0.505 OA
ATOM     20  H   UNL     1      36.231 -25.952 -10.191  0.00  0.00    +0.292 HD
ENDBRANCH  13  19
BRANCH   3  21
ATOM     21  C   UNL     1      30.827 -23.038 -16.131  0.00  0.00    +0.138 C 
BRANCH  21  22
ATOM     22  O   UNL     1      30.298 -22.349 -14.990  0.00  0.00    -0.380 OA
ATOM     23  H   UNL     1      30.606 -21.428 -14.997  0.00  0.00    +0.211 HD
ENDBRANCH  21  22
BRANCH  21  24
ATOM     24  C   UNL     1      30.060 -24.366 -16.292  0.00  0.00    +0.063 C 
BRANCH  24  25
ATOM     25  C   UNL     1      28.531 -24.239 -16.377  0.00  0.00    +0.113 C 
BRANCH  25  26
ATOM     26  O   UNL     1      28.042 -23.949 -15.065  0.00  0.00    -0.384 OA
ATOM     27  H   UNL     1      27.127 -23.634 -15.123  0.00  0.00    +0.210 HD
ENDBRANCH  25  26
BRANCH  25  28
ATOM     28  C   UNL     1      28.072 -23.123 -17.320  0.00  0.00    +0.029 C 
ATOM     29  C   UNL     1      27.124 -22.143 -16.640  0.00  0.00    +0.003 C 
ENDBRANCH  25  28
ENDBRANCH  24  25
ENDBRANCH  21  24
ENDBRANCH   3  21
BRANCH   4  30
ATOM     30  C   UNL     1      32.661 -22.291 -18.263  0.00  0.00    +0.136 C 
BRANCH  30  32
ATOM     31  O   UNL     1      34.056 -23.478 -19.865  0.00  0.00    -0.250 OA
ATOM     32  C   UNL     1      33.647 -22.420 -19.406  0.00  0.00    +0.322 C 
BRANCH  32  33
ATOM     33  O   UNL     1      34.001 -21.173 -19.837  0.00  0.00    -0.444 OA
ATOM     34  C   UNL     1      32.920 -20.335 -20.259  0.00  0.00    +0.256 C 
ENDBRANCH  32  33
ENDBRANCH  30  32
ENDBRANCH   4  30
TORSDOF 11
ENDMDL
MODEL 4
REMARK VINA RESULT:      -9.0      1.743      2.236
REMARK  Name = 42627264
REMARK  11 active torsions:
REMARK  status: ('A' for Active; 'I' for Inactive)
REMARK    1  A    between atoms: C_3  and  C_21
REMARK    2  A    between atoms: C_4  and  C_30
REMARK    3  A    between atoms: C_6  and  O_17
REMARK    4  A    between atoms: C_13  and  O_19
REMARK    5  A    between atoms: C_21  and  O_22
REMARK    6  A    between atoms: C_21  and  C_24
REMARK    7  A    between atoms: C_24  and  C_25
REMARK    8  A    between atoms: C_25  and  O_26
REMARK    9  A    between atoms: C_25  and  C_28
REMARK   10  A    between atoms: C_30  and  C_32
REMARK   11  A    between atoms: C_32  and  O_33
REMARK                            x       y       z     vdW  Elec       q    Type
REMARK                         _______ _______ _______ _____ _____    ______ ____
ROOT
ATOM      1  O   UNL     1      37.344 -20.759 -18.727  0.00  0.00    -0.286 OA
ATOM      2  O   UNL     1      32.281 -21.322 -20.341  0.00  0.00    -0.287 OA
ATOM      3  C   UNL     1      34.796 -23.173 -16.437  0.00  0.00    +0.035 C 
ATOM      4  C   UNL     1      33.476 -23.319 -16.858  0.00  0.00    -0.010 C 
ATOM      5  C   UNL     1      35.241 -21.727 -18.327  0.00  0.00    +0.076 C 
ATOM      6  C   UNL     1      35.680 -22.378 -17.168  0.00  0.00    +0.135 C 
ATOM      7  C   UNL     1      33.917 -21.875 -18.750  0.00  0.00    +0.045 C 
ATOM      8  C   UNL     1      33.034 -22.673 -18.013  0.00  0.00    -0.000 C 
ATOM      9  C   UNL     1      36.183 -20.888 -19.094  0.00  0.00    +0.202 C 
ATOM     10  C   UNL     1      33.440 -21.193 -19.971  0.00  0.00    +0.196 C 
ATOM     11  C   UNL     1      35.706 -20.206 -20.315  0.00  0.00    +0.076 C 
ATOM     12  C   UNL     1      34.383 -20.354 -20.738  0.00  0.00    +0.045 C 
ATOM     13  C   UNL     1      36.589 -19.408 -21.052  0.00  0.00    +0.137 C 
ATOM     14  C   UNL     1      33.944 -19.702 -21.897  0.00  0.00    +0.003 C 
ATOM     15  C   UNL     1      36.148 -18.761 -22.206  0.00  0.00    +0.037 C 
ATOM     16  C   UNL     1      34.827 -18.908 -22.627  0.00  0.00    +0.003 C 
ENDROOT
BRANCH   6  17
ATOM     17  O   UNL     1      36.961 -22.267 -16.713  0.00  0.00    -0.506 OA
ATOM     18  H   UNL     1      37.650 -22.028 -17.302  0.00  0.00    +0.292 HD
ENDBRANCH   6  17
BRANCH  13  19
ATOM     19  O   UNL     1      37.893 -19.220 -20.699  0.00  0.00    -0.505 OA
ATOM     20  H   UNL     1      38.372 -18.494 -21.046  0.00  0.00    +0.292 HD
ENDBRANCH  13  19
BRANCH   3  21
ATOM     21  C   UNL     1      35.265 -23.868 -15.198  0.00  0.00    +0.138 C 
BRANCH  21  22
ATOM     22  O   UNL     1      35.554 -22.876 -14.203  0.00  0.00    -0.380 OA
ATOM     23  H   UNL     1      36.181 -22.229 -14.563  0.00  0.00    +0.211 HD
ENDBRANCH  21  22
BRANCH  21  24
ATOM     24  C   UNL     1      36.525 -24.734 -15.396  0.00  0.00    +0.063 C 
BRANCH  24  25
ATOM     25  C   UNL     1      36.369 -26.218 -15.029  0.00  0.00    +0.113 C 
BRANCH  25  26
ATOM     26  O   UNL     1      36.666 -26.992 -16.194  0.00  0.00    -0.384 OA
ATOM     27  H   UNL     1      36.810 -26.400 -16.948  0.00  0.00    +0.210 HD
ENDBRANCH  25  26
BRANCH  25  28
ATOM     28  C   UNL     1      37.310 -26.660 -13.904  0.00  0.00    +0.029 C 
ATOM     29  C   UNL     1      37.532 -25.563 -12.870  0.00  0.00    +0.003 C 
ENDBRANCH  25  28
ENDBRANCH  24  25
ENDBRANCH  21  24
ENDBRANCH   3  21
BRANCH   4  30
ATOM     30  C   UNL     1      32.512 -24.165 -16.091  0.00  0.00    +0.136 C 
BRANCH  30  32
ATOM     31  O   UNL     1      31.495 -22.567 -14.564  0.00  0.00    -0.250 OA
ATOM     32  C   UNL     1      31.376 -23.374 -15.476  0.00  0.00    +0.322 C 
BRANCH  32  33
ATOM     33  O   UNL     1      30.207 -23.706 -16.100  0.00  0.00    -0.444 OA
ATOM     34  C   UNL     1      29.253 -24.405 -15.294  0.00  0.00    +0.256 C 
ENDBRANCH  32  33
ENDBRANCH  30  32
ENDBRANCH   4  30
TORSDOF 11
ENDMDL
MODEL 5
REMARK VINA RESULT:      -9.0      1.548      2.064
REMARK  Name = 42627264
REMARK  11 active torsions:
REMARK  status: ('A' for Active; 'I' for Inactive)
REMARK    1  A    between atoms: C_3  and  C_21
REMARK    2  A    between atoms: C_4  and  C_30
REMARK    3  A    between atoms: C_6  and  O_17
REMARK    4  A    between atoms: C_13  and  O_19
REMARK    5  A    between atoms: C_21  and  O_22
REMARK    6  A    between atoms: C_21  and  C_24
REMARK    7  A    between atoms: C_24  and  C_25
REMARK    8  A    between atoms: C_25  and  O_26
REMARK    9  A    between atoms: C_25  and  C_28
REMARK   10  A    between atoms: C_30  and  C_32
REMARK   11  A    between atoms: C_32  and  O_33
REMARK                            x       y       z     vdW  Elec       q    Type
REMARK                         _______ _______ _______ _____ _____    ______ ____
ROOT
ATOM      1  O   UNL     1      37.244 -20.878 -18.474  0.00  0.00    -0.286 OA
ATOM      2  O   UNL     1      32.217 -22.680 -18.283  0.00  0.00    -0.287 OA
ATOM      3  C   UNL     1      36.213 -23.538 -15.403  0.00  0.00    +0.035 C 
ATOM      4  C   UNL     1      34.902 -24.008 -15.355  0.00  0.00    -0.010 C 
ATOM      5  C   UNL     1      35.673 -22.231 -17.368  0.00  0.00    +0.076 C 
ATOM      6  C   UNL     1      36.601 -22.650 -16.408  0.00  0.00    +0.135 C 
ATOM      7  C   UNL     1      34.358 -22.703 -17.319  0.00  0.00    +0.045 C 
ATOM      8  C   UNL     1      33.974 -23.593 -16.309  0.00  0.00    -0.000 C 
ATOM      9  C   UNL     1      36.092 -21.291 -18.427  0.00  0.00    +0.202 C 
ATOM     10  C   UNL     1      33.368 -22.268 -18.326  0.00  0.00    +0.196 C 
ATOM     11  C   UNL     1      35.102 -20.856 -19.434  0.00  0.00    +0.076 C 
ATOM     12  C   UNL     1      33.788 -21.328 -19.385  0.00  0.00    +0.045 C 
ATOM     13  C   UNL     1      35.487 -19.966 -20.443  0.00  0.00    +0.137 C 
ATOM     14  C   UNL     1      32.860 -20.908 -20.345  0.00  0.00    +0.003 C 
ATOM     15  C   UNL     1      34.559 -19.550 -21.398  0.00  0.00    +0.037 C 
ATOM     16  C   UNL     1      33.248 -20.021 -21.349  0.00  0.00    +0.003 C 
ENDROOT
BRANCH   6  17
ATOM     17  O   UNL     1      37.896 -22.220 -16.411  0.00  0.00    -0.506 OA
ATOM     18  H   UNL     1      38.231 -21.733 -15.684  0.00  0.00    +0.292 HD
ENDBRANCH   6  17
BRANCH  13  19
ATOM     19  O   UNL     1      36.751 -19.467 -20.552  0.00  0.00    -0.505 OA
ATOM     20  H   UNL     1      36.938 -18.597 -20.256  0.00  0.00    +0.292 HD
ENDBRANCH  13  19
BRANCH   3  21
ATOM     21  C   UNL     1      37.205 -23.985 -14.377  0.00  0.00    +0.138 C 
BRANCH  21  22
ATOM     22  O   UNL     1      37.772 -22.823 -13.756  0.00  0.00    -0.380 OA
ATOM     23  H   UNL     1      38.558 -22.543 -14.252  0.00  0.00    +0.211 HD
ENDBRANCH  21  22
BRANCH  21  24
ATOM     24  C   UNL     1      38.356 -24.843 -14.939  0.00  0.00    +0.063 C 
BRANCH  24  25
ATOM     25  C   UNL     1      38.570 -26.197 -14.246  0.00  0.00    +0.113 C 
BRANCH  25  26
ATOM     26  O   UNL     1      38.845 -25.945 -12.866  0.00  0.00    -0.384 OA
ATOM     27  H   UNL     1      39.352 -26.684 -12.496  0.00  0.00    +0.210 HD
ENDBRANCH  25  26
BRANCH  25  28
ATOM     28  C   UNL     1      37.348 -27.117 -14.334  0.00  0.00    +0.029 C 
ATOM     29  C   UNL     1      36.780 -27.190 -15.746  0.00  0.00    +0.003 C 
ENDBRANCH  25  28
ENDBRANCH  24  25
ENDBRANCH  21  24
ENDBRANCH   3  21
BRANCH   4  30
ATOM     30  C   UNL     1      34.464 -24.958 -14.288  0.00  0.00    +0.136 C 
BRANCH  30  32
ATOM     31  O   UNL     1      33.468 -23.354 -12.754  0.00  0.00    -0.250 OA
ATOM     32  C   UNL     1      34.229 -24.292 -12.948  0.00  0.00    +0.322 C 
BRANCH  32  33
ATOM     33  O   UNL     1      34.999 -24.905 -11.999  0.00  0.00    -0.444 OA
ATOM     34  C   UNL     1      35.615 -24.033 -11.046  0.00  0.00    +0.256 C 
ENDBRANCH  32  33
ENDBRANCH  30  32
ENDBRANCH   4  30
TORSDOF 11
ENDMDL
MODEL 6
REMARK VINA RESULT:      -8.9      7.889     12.134
REMARK  Name = 42627264
REMARK  11 active torsions:
REMARK  status: ('A' for Active; 'I' for Inactive)
REMARK    1  A    between atoms: C_3  and  C_21
REMARK    2  A    between atoms: C_4  and  C_30
REMARK    3  A    between atoms: C_6  and  O_17
REMARK    4  A    between atoms: C_13  and  O_19
REMARK    5  A    between atoms: C_21  and  O_22
REMARK    6  A    between atoms: C_21  and  C_24
REMARK    7  A    between atoms: C_24  and  C_25
REMARK    8  A    between atoms: C_25  and  O_26
REMARK    9  A    between atoms: C_25  and  C_28
REMARK   10  A    between atoms: C_30  and  C_32
REMARK   11  A    between atoms: C_32  and  O_33
REMARK                            x       y       z     vdW  Elec       q    Type
REMARK                         _______ _______ _______ _____ _____    ______ ____
ROOT
ATOM      1  O   UNL     1      31.886 -12.108 -20.104  0.00  0.00    -0.286 OA
ATOM      2  O   UNL     1      33.821 -11.169 -24.996  0.00  0.00    -0.287 OA
ATOM      3  C   UNL     1      33.512 -15.327 -22.238  0.00  0.00    +0.035 C 
ATOM      4  C   UNL     1      34.016 -15.082 -23.513  0.00  0.00    -0.010 C 
ATOM      5  C   UNL     1      32.914 -12.992 -22.023  0.00  0.00    +0.076 C 
ATOM      6  C   UNL     1      32.960 -14.285 -21.491  0.00  0.00    +0.135 C 
ATOM      7  C   UNL     1      33.421 -12.746 -23.302  0.00  0.00    +0.045 C 
ATOM      8  C   UNL     1      33.973 -13.794 -24.047  0.00  0.00    -0.000 C 
ATOM      9  C   UNL     1      32.328 -11.895 -21.225  0.00  0.00    +0.202 C 
ATOM     10  C   UNL     1      33.378 -11.385 -23.876  0.00  0.00    +0.196 C 
ATOM     11  C   UNL     1      32.285 -10.534 -21.799  0.00  0.00    +0.076 C 
ATOM     12  C   UNL     1      32.792 -10.288 -23.078  0.00  0.00    +0.045 C 
ATOM     13  C   UNL     1      31.733  -9.486 -21.054  0.00  0.00    +0.137 C 
ATOM     14  C   UNL     1      32.744  -8.994 -23.609  0.00  0.00    +0.003 C 
ATOM     15  C   UNL     1      31.688  -8.198 -21.588  0.00  0.00    +0.037 C 
ATOM     16  C   UNL     1      32.193  -7.953 -22.863  0.00  0.00    +0.003 C 
ENDROOT
BRANCH   6  17
ATOM     17  O   UNL     1      32.480 -14.578 -20.248  0.00  0.00    -0.506 OA
ATOM     18  H   UNL     1      32.586 -13.966 -19.547  0.00  0.00    +0.292 HD
ENDBRANCH   6  17
BRANCH  13  19
ATOM     19  O   UNL     1      31.221  -9.654 -19.801  0.00  0.00    -0.505 OA
ATOM     20  H   UNL     1      31.717  -9.385 -19.053  0.00  0.00    +0.292 HD
ENDBRANCH  13  19
BRANCH   3  21
ATOM     21  C   UNL     1      33.560 -16.710 -21.669  0.00  0.00    +0.138 C 
BRANCH  21  22
ATOM     22  O   UNL     1      32.498 -16.847 -20.716  0.00  0.00    -0.380 OA
ATOM     23  H   UNL     1      32.451 -17.768 -20.413  0.00  0.00    +0.211 HD
ENDBRANCH  21  22
BRANCH  21  24
ATOM     24  C   UNL     1      34.887 -17.060 -20.967  0.00  0.00    +0.063 C 
BRANCH  24  25
ATOM     25  C   UNL     1      35.504 -18.412 -21.356  0.00  0.00    +0.113 C 
BRANCH  25  26
ATOM     26  O   UNL     1      36.301 -18.864 -20.259  0.00  0.00    -0.384 OA
ATOM     27  H   UNL     1      36.610 -18.100 -19.747  0.00  0.00    +0.210 HD
ENDBRANCH  25  26
BRANCH  25  28
ATOM     28  C   UNL     1      34.454 -19.485 -21.662  0.00  0.00    +0.029 C 
ATOM     29  C   UNL     1      33.990 -20.215 -20.408  0.00  0.00    +0.003 C 
ENDBRANCH  25  28
ENDBRANCH  24  25
ENDBRANCH  21  24
ENDBRANCH   3  21
BRANCH   4  30
ATOM     30  C   UNL     1      34.611 -16.182 -24.331  0.00  0.00    +0.136 C 
BRANCH  30  32
ATOM     31  O   UNL     1      33.616 -15.557 -26.461  0.00  0.00    -0.250 OA
ATOM     32  C   UNL     1      33.883 -16.421 -25.637  0.00  0.00    +0.322 C 
BRANCH  32  33
ATOM     33  O   UNL     1      33.577 -17.749 -25.745  0.00  0.00    -0.444 OA
ATOM     34  C   UNL     1      34.420 -18.639 -25.007  0.00  0.00    +0.256 C 
ENDBRANCH  32  33
ENDBRANCH  30  32
ENDBRANCH   4  30
TORSDOF 11
ENDMDL
MODEL 7
REMARK VINA RESULT:      -8.8      1.738      5.737
REMARK  Name = 42627264
REMARK  11 active torsions:
REMARK  status: ('A' for Active; 'I' for Inactive)
REMARK    1  A    between atoms: C_3  and  C_21
REMARK    2  A    between atoms: C_4  and  C_30
REMARK    3  A    between atoms: C_6  and  O_17
REMARK    4  A    between atoms: C_13  and  O_19
REMARK    5  A    between atoms: C_21  and  O_22
REMARK    6  A    between atoms: C_21  and  C_24
REMARK    7  A    between atoms: C_24  and  C_25
REMARK    8  A    between atoms: C_25  and  O_26
REMARK    9  A    between atoms: C_25  and  C_28
REMARK   10  A    between atoms: C_30  and  C_32
REMARK   11  A    between atoms: C_32  and  O_33
REMARK                            x       y       z     vdW  Elec       q    Type
REMARK                         _______ _______ _______ _____ _____    ______ ____
ROOT
ATOM      1  O   UNL     1      32.451 -25.117 -13.907  0.00  0.00    -0.286 OA
ATOM      2  O   UNL     1      31.645 -21.839 -18.050  0.00  0.00    -0.287 OA
ATOM      3  C   UNL     1      35.806 -23.530 -15.854  0.00  0.00    +0.035 C 
ATOM      4  C   UNL     1      35.595 -22.675 -16.934  0.00  0.00    -0.010 C 
ATOM      5  C   UNL     1      33.414 -23.778 -15.581  0.00  0.00    +0.076 C 
ATOM      6  C   UNL     1      34.718 -24.083 -15.176  0.00  0.00    +0.135 C 
ATOM      7  C   UNL     1      33.202 -22.920 -16.663  0.00  0.00    +0.045 C 
ATOM      8  C   UNL     1      34.296 -22.368 -17.340  0.00  0.00    -0.000 C 
ATOM      9  C   UNL     1      32.268 -24.367 -14.857  0.00  0.00    +0.202 C 
ATOM     10  C   UNL     1      31.831 -22.590 -17.101  0.00  0.00    +0.196 C 
ATOM     11  C   UNL     1      30.897 -24.037 -15.295  0.00  0.00    +0.076 C 
ATOM     12  C   UNL     1      30.685 -23.179 -16.378  0.00  0.00    +0.045 C 
ATOM     13  C   UNL     1      29.803 -24.589 -14.618  0.00  0.00    +0.137 C 
ATOM     14  C   UNL     1      29.380 -22.875 -16.782  0.00  0.00    +0.003 C 
ATOM     15  C   UNL     1      28.503 -24.283 -15.025  0.00  0.00    +0.037 C 
ATOM     16  C   UNL     1      28.293 -23.427 -16.105  0.00  0.00    +0.003 C 
ENDROOT
BRANCH   6  17
ATOM     17  O   UNL     1      34.978 -24.914 -14.126  0.00  0.00    -0.506 OA
ATOM     18  H   UNL     1      34.751 -25.822 -14.178  0.00  0.00    +0.292 HD
ENDBRANCH   6  17
BRANCH  13  19
ATOM     19  O   UNL     1      29.935 -25.432 -13.555  0.00  0.00    -0.505 OA
ATOM     20  H   UNL     1      29.639 -26.319 -13.621  0.00  0.00    +0.292 HD
ENDBRANCH  13  19
BRANCH   3  21
ATOM     21  C   UNL     1      37.200 -23.857 -15.422  0.00  0.00    +0.138 C 
BRANCH  21  22
ATOM     22  O   UNL     1      37.373 -25.280 -15.481  0.00  0.00    -0.380 OA
ATOM     23  H   UNL     1      38.292 -25.485 -15.717  0.00  0.00    +0.211 HD
ENDBRANCH  21  22
BRANCH  21  24
ATOM     24  C   UNL     1      37.548 -23.387 -13.996  0.00  0.00    +0.063 C 
BRANCH  24  25
ATOM     25  C   UNL     1      38.120 -24.468 -13.066  0.00  0.00    +0.113 C 
BRANCH  25  26
ATOM     26  O   UNL     1      39.511 -24.612 -13.362  0.00  0.00    -0.384 OA
ATOM     27  H   UNL     1      39.882 -25.335 -12.833  0.00  0.00    +0.210 HD
ENDBRANCH  25  26
BRANCH  25  28
ATOM     28  C   UNL     1      37.977 -24.120 -11.580  0.00  0.00    +0.029 C 
ATOM     29  C   UNL     1      36.841 -23.136 -11.324  0.00  0.00    +0.003 C 
ENDBRANCH  25  28
ENDBRANCH  24  25
ENDBRANCH  21  24
ENDBRANCH   3  21
BRANCH   4  30
ATOM     30  C   UNL     1      36.744 -22.073 -17.675  0.00  0.00    +0.136 C 
BRANCH  30  32
ATOM     31  O   UNL     1      35.830 -22.234 -19.923  0.00  0.00    -0.250 OA
ATOM     32  C   UNL     1      36.373 -21.567 -19.053  0.00  0.00    +0.322 C 
BRANCH  32  33
ATOM     33  O   UNL     1      36.739 -20.255 -19.165  0.00  0.00    -0.444 OA
ATOM     34  C   UNL     1      36.627 -19.692 -20.476  0.00  0.00    +0.256 C 
ENDBRANCH  32  33
ENDBRANCH  30  32
ENDBRANCH   4  30
TORSDOF 11
ENDMDL
MODEL 8
REMARK VINA RESULT:      -8.7      1.387      5.209
REMARK  Name = 42627264
REMARK  11 active torsions:
REMARK  status: ('A' for Active; 'I' for Inactive)
REMARK    1  A    between atoms: C_3  and  C_21
REMARK    2  A    between atoms: C_4  and  C_30
REMARK    3  A    between atoms: C_6  and  O_17
REMARK    4  A    between atoms: C_13  and  O_19
REMARK    5  A    between atoms: C_21  and  O_22
REMARK    6  A    between atoms: C_21  and  C_24
REMARK    7  A    between atoms: C_24  and  C_25
REMARK    8  A    between atoms: C_25  and  O_26
REMARK    9  A    between atoms: C_25  and  C_28
REMARK   10  A    between atoms: C_30  and  C_32
REMARK   11  A    between atoms: C_32  and  O_33
REMARK                            x       y       z     vdW  Elec       q    Type
REMARK                         _______ _______ _______ _____ _____    ______ ____
ROOT
ATOM      1  O   UNL     1      32.367 -22.265 -18.428  0.00  0.00    -0.286 OA
ATOM      2  O   UNL     1      37.626 -21.812 -17.595  0.00  0.00    -0.287 OA
ATOM      3  C   UNL     1      33.974 -23.979 -14.957  0.00  0.00    +0.035 C 
ATOM      4  C   UNL     1      35.345 -23.860 -14.740  0.00  0.00    -0.010 C 
ATOM      5  C   UNL     1      34.193 -22.747 -17.029  0.00  0.00    +0.076 C 
ATOM      6  C   UNL     1      33.395 -23.424 -16.100  0.00  0.00    +0.135 C 
ATOM      7  C   UNL     1      35.567 -22.628 -16.812  0.00  0.00    +0.045 C 
ATOM      8  C   UNL     1      36.143 -23.185 -15.664  0.00  0.00    -0.000 C 
ATOM      9  C   UNL     1      33.571 -22.164 -18.236  0.00  0.00    +0.202 C 
ATOM     10  C   UNL     1      36.421 -21.916 -17.785  0.00  0.00    +0.196 C 
ATOM     11  C   UNL     1      34.425 -21.452 -19.209  0.00  0.00    +0.076 C 
ATOM     12  C   UNL     1      35.800 -21.333 -18.992  0.00  0.00    +0.045 C 
ATOM     13  C   UNL     1      33.849 -20.894 -20.357  0.00  0.00    +0.137 C 
ATOM     14  C   UNL     1      36.597 -20.656 -19.923  0.00  0.00    +0.003 C 
ATOM     15  C   UNL     1      34.648 -20.221 -21.282  0.00  0.00    +0.037 C 
ATOM     16  C   UNL     1      36.019 -20.102 -21.064  0.00  0.00    +0.003 C 
ENDROOT
BRANCH   6  17
ATOM     17  O   UNL     1      32.048 -23.568 -16.265  0.00  0.00    -0.506 OA
ATOM     18  H   UNL     1      31.550 -24.066 -15.647  0.00  0.00    +0.292 HD
ENDBRANCH   6  17
BRANCH  13  19
ATOM     19  O   UNL     1      32.516 -20.973 -20.633  0.00  0.00    -0.505 OA
ATOM     20  H   UNL     1      32.116 -20.336 -21.191  0.00  0.00    +0.292 HD
ENDBRANCH  13  19
BRANCH   3  21
ATOM     21  C   UNL     1      33.121 -24.703 -13.964  0.00  0.00    +0.138 C 
BRANCH  21  22
ATOM     22  O   UNL     1      32.556 -25.855 -14.604  0.00  0.00    -0.380 OA
ATOM     23  H   UNL     1      33.248 -26.522 -14.739  0.00  0.00    +0.211 HD
ENDBRANCH  21  22
BRANCH  21  24
ATOM     24  C   UNL     1      31.969 -23.859 -13.383  0.00  0.00    +0.063 C 
BRANCH  24  25
ATOM     25  C   UNL     1      30.589 -24.535 -13.385  0.00  0.00    +0.113 C 
BRANCH  25  26
ATOM     26  O   UNL     1      30.092 -24.523 -12.045  0.00  0.00    -0.384 OA
ATOM     27  H   UNL     1      29.180 -24.194 -12.041  0.00  0.00    +0.210 HD
ENDBRANCH  25  26
BRANCH  25  28
ATOM     28  C   UNL     1      29.573 -23.824 -14.284  0.00  0.00    +0.029 C 
ATOM     29  C   UNL     1      28.950 -24.763 -15.310  0.00  0.00    +0.003 C 
ENDBRANCH  25  28
ENDBRANCH  24  25
ENDBRANCH  21  24
ENDBRANCH   3  21
BRANCH   4  30
ATOM     30  C   UNL     1      35.986 -24.446 -13.524  0.00  0.00    +0.136 C 
BRANCH  30  32
ATOM     31  O   UNL     1      36.724 -26.502 -14.594  0.00  0.00    -0.250 OA
ATOM     32  C   UNL     1      36.953 -25.569 -13.836  0.00  0.00    +0.322 C 
BRANCH  32  33
ATOM     33  O   UNL     1      38.112 -25.372 -13.140  0.00  0.00    -0.444 OA
ATOM     34  C   UNL     1      38.092 -24.292 -12.200  0.00  0.00    +0.256 C 
ENDBRANCH  32  33
ENDBRANCH  30  32
ENDBRANCH   4  30
TORSDOF 11
ENDMDL
MODEL 9
REMARK VINA RESULT:      -8.7      1.543      6.733
REMARK  Name = 42627264
REMARK  11 active torsions:
REMARK  status: ('A' for Active; 'I' for Inactive)
REMARK    1  A    between atoms: C_3  and  C_21
REMARK    2  A    between atoms: C_4  and  C_30
REMARK    3  A    between atoms: C_6  and  O_17
REMARK    4  A    between atoms: C_13  and  O_19
REMARK    5  A    between atoms: C_21  and  O_22
REMARK    6  A    between atoms: C_21  and  C_24
REMARK    7  A    between atoms: C_24  and  C_25
REMARK    8  A    between atoms: C_25  and  O_26
REMARK    9  A    between atoms: C_25  and  C_28
REMARK   10  A    between atoms: C_30  and  C_32
REMARK   11  A    between atoms: C_32  and  O_33
REMARK                            x       y       z     vdW  Elec       q    Type
REMARK                         _______ _______ _______ _____ _____    ______ ____
ROOT
ATOM      1  O   UNL     1      31.574 -22.455 -17.875  0.00  0.00    -0.286 OA
ATOM      2  O   UNL     1      33.420 -24.661 -13.371  0.00  0.00    -0.287 OA
ATOM      3  C   UNL     1      35.712 -22.425 -17.211  0.00  0.00    +0.035 C 
ATOM      4  C   UNL     1      36.192 -23.001 -16.037  0.00  0.00    -0.010 C 
ATOM      5  C   UNL     1      33.448 -22.977 -16.557  0.00  0.00    +0.076 C 
ATOM      6  C   UNL     1      34.341 -22.411 -17.474  0.00  0.00    +0.135 C 
ATOM      7  C   UNL     1      33.930 -23.555 -15.380  0.00  0.00    +0.045 C 
ATOM      8  C   UNL     1      35.306 -23.566 -15.121  0.00  0.00    -0.000 C 
ATOM      9  C   UNL     1      31.999 -22.958 -16.843  0.00  0.00    +0.202 C 
ATOM     10  C   UNL     1      32.998 -24.155 -14.403  0.00  0.00    +0.196 C 
ATOM     11  C   UNL     1      31.067 -23.558 -15.867  0.00  0.00    +0.076 C 
ATOM     12  C   UNL     1      31.549 -24.136 -14.689  0.00  0.00    +0.045 C 
ATOM     13  C   UNL     1      29.691 -23.547 -16.126  0.00  0.00    +0.137 C 
ATOM     14  C   UNL     1      30.655 -24.701 -13.773  0.00  0.00    +0.003 C 
ATOM     15  C   UNL     1      28.803 -24.111 -15.209  0.00  0.00    +0.037 C 
ATOM     16  C   UNL     1      29.285 -24.687 -14.035  0.00  0.00    +0.003 C 
ENDROOT
BRANCH   6  17
ATOM     17  O   UNL     1      33.922 -21.835 -18.638  0.00  0.00    -0.506 OA
ATOM     18  H   UNL     1      34.466 -21.210 -19.075  0.00  0.00    +0.292 HD
ENDBRANCH   6  17
BRANCH  13  19
ATOM     19  O   UNL     1      29.152 -23.002 -17.253  0.00  0.00    -0.505 OA
ATOM     20  H   UNL     1      28.340 -23.328 -17.589  0.00  0.00    +0.292 HD
ENDBRANCH  13  19
BRANCH   3  21
ATOM     21  C   UNL     1      36.667 -21.819 -18.191  0.00  0.00    +0.138 C 
BRANCH  21  22
ATOM     22  O   UNL     1      37.072 -20.536 -17.697  0.00  0.00    -0.380 OA
ATOM     23  H   UNL     1      36.684 -19.839 -18.251  0.00  0.00    +0.211 HD
ENDBRANCH  21  22
BRANCH  21  24
ATOM     24  C   UNL     1      36.087 -21.631 -19.607  0.00  0.00    +0.063 C 
BRANCH  24  25
ATOM     25  C   UNL     1      36.030 -20.180 -20.109  0.00  0.00    +0.113 C 
BRANCH  25  26
ATOM     26  O   UNL     1      37.359 -19.786 -20.462  0.00  0.00    -0.384 OA
ATOM     27  H   UNL     1      37.704 -20.382 -21.144  0.00  0.00    +0.210 HD
ENDBRANCH  25  26
BRANCH  25  28
ATOM     28  C   UNL     1      35.133 -20.005 -21.338  0.00  0.00    +0.029 C 
ATOM     29  C   UNL     1      33.819 -19.310 -21.000  0.00  0.00    +0.003 C 
ENDBRANCH  25  28
ENDBRANCH  24  25
ENDBRANCH  21  24
ENDBRANCH   3  21
BRANCH   4  30
ATOM     30  C   UNL     1      37.656 -23.026 -15.735  0.00  0.00    +0.136 C 
BRANCH  30  32
ATOM     31  O   UNL     1      38.280 -25.260 -15.001  0.00  0.00    -0.250 OA
ATOM     32  C   UNL     1      38.044 -24.090 -14.730  0.00  0.00    +0.322 C 
BRANCH  32  33
ATOM     33  O   UNL     1      38.088 -23.535 -13.481  0.00  0.00    -0.444 OA
ATOM     34  C   UNL     1      37.948 -24.454 -12.392  0.00  0.00    +0.256 C 
ENDBRANCH  32  33
ENDBRANCH  30  32
ENDBRANCH   4  30
TORSDOF 11
ENDMDL
