MODEL 1
REMARK VINA RESULT:      -9.0      0.000      0.000
REMARK  Name = 6918242
REMARK  9 active torsions:
REMARK  status: ('A' for Active; 'I' for Inactive)
REMARK    1  A    between atoms: S_1  and  C_8
REMARK    2  A    between atoms: S_1  and  C_19
REMARK    3  A    between atoms: C_5  and  C_14
REMARK    4  A    between atoms: C_9  and  C_13
REMARK    5  A    between atoms: C_14  and  O_16
REMARK    6  A    between atoms: C_20  and  C_25
REMARK    7  A    between atoms: C_25  and  N_26
REMARK    8  A    between atoms: N_26  and  S_28
REMARK    9  A    between atoms: S_28  and  N_31
REMARK                            x       y       z     vdW  Elec       q    Type
REMARK                         _______ _______ _______ _____ _____    ______ ____
ROOT
ATOM      1  S   UNL     1      33.373 -23.673 -12.528  0.00  0.00    -0.120 S 
ENDROOT
BRANCH   1   8
ATOM      2  O   UNL     1      38.468 -25.998 -11.891  0.00  0.00    -0.274 OA
ATOM      3  N   UNL     1      37.245 -24.095 -12.559  0.00  0.00    -0.254 N 
ATOM      4  C   UNL     1      37.147 -23.782 -13.997  0.00  0.00    +0.095 C 
ATOM      5  C   UNL     1      38.127 -24.979 -14.211  0.00  0.00    +0.123 C 
ATOM      6  C   UNL     1      35.628 -23.723 -14.256  0.00  0.00    +0.049 C 
ATOM      7  C   UNL     1      38.066 -25.174 -12.681  0.00  0.00    +0.233 C 
ATOM      8  C   UNL     1      35.053 -23.832 -12.855  0.00  0.00    +0.024 C 
ATOM      9  C   UNL     1      36.019 -24.073 -11.959  0.00  0.00    +0.136 C 
ATOM     10  C   UNL     1      35.119 -24.775 -15.227  0.00  0.00    +0.007 C 
BRANCH   9  13
ATOM     11  O   UNL     1      36.399 -23.509  -9.713  0.00  0.00    -0.239 OA
ATOM     12  O   UNL     1      35.151 -25.364 -10.201  0.00  0.00    -0.239 OA
ATOM     13  C   UNL     1      35.839 -24.342 -10.478  0.00  0.00    +0.401 C 
ENDBRANCH   9  13
BRANCH   5  14
ATOM     14  C   UNL     1      39.519 -24.798 -14.762  0.00  0.00    +0.121 C 
ATOM     15  C   UNL     1      40.217 -26.129 -15.028  0.00  0.00    +0.032 C 
BRANCH  14  16
ATOM     16  O   UNL     1      39.464 -24.061 -15.985  0.00  0.00    -0.384 OA
ATOM     17  H   UNL     1      39.427 -23.112 -15.790  0.00  0.00    +0.210 HD
ENDBRANCH  14  16
ENDBRANCH   5  14
ENDBRANCH   1   8
BRANCH   1  19
ATOM     18  N   UNL     1      31.137 -23.308 -15.825  0.00  0.00    +0.387 N 
ATOM     19  C   UNL     1      32.695 -24.020 -14.170  0.00  0.00    +0.028 C 
ATOM     20  C   UNL     1      30.884 -24.761 -15.512  0.00  0.00    -0.043 C 
ATOM     21  C   UNL     1      31.488 -24.945 -14.124  0.00  0.00    -0.011 C 
ATOM     22  C   UNL     1      32.141 -22.772 -14.838  0.00  0.00    -0.070 C 
ATOM     23  H   UNL     1      30.266 -22.784 -15.749  0.00  0.00    -0.084 HD
ATOM     24  H   UNL     1      31.497 -23.214 -16.774  0.00  0.00    -0.084 HD
BRANCH  20  25
ATOM     25  C   UNL     1      29.400 -25.061 -15.589  0.00  0.00    +0.071 C 
BRANCH  25  26
ATOM     26  N   UNL     1      28.614 -23.890 -15.321  0.00  0.00    -0.172 NA
ATOM     27  H   UNL     1      27.839 -24.182 -14.727  0.00  0.00    +0.150 HD
BRANCH  26  28
ATOM     28  S   UNL     1      27.931 -23.001 -16.645  0.00  0.00    +0.093 S 
ATOM     29  O   UNL     1      28.820 -21.908 -16.994  0.00  0.00    -0.142 OA
ATOM     30  O   UNL     1      27.493 -23.945 -17.657  0.00  0.00    -0.142 OA
BRANCH  28  31
ATOM     31  N   UNL     1      26.546 -22.338 -15.878  0.00  0.00    -0.193 NA
ATOM     32  H   UNL     1      26.150 -21.606 -16.467  0.00  0.00    +0.145 HD
ATOM     33  H   UNL     1      26.814 -21.942 -14.977  0.00  0.00    +0.145 HD
ENDBRANCH  28  31
ENDBRANCH  26  28
ENDBRANCH  25  26
ENDBRANCH  20  25
ENDBRANCH   1  19
TORSDOF 9
ENDMDL
MODEL 2
REMARK VINA RESULT:      -8.4     13.550     16.113
REMARK  Name = 6918242
REMARK  9 active torsions:
REMARK  status: ('A' for Active; 'I' for Inactive)
REMARK    1  A    between atoms: S_1  and  C_8
REMARK    2  A    between atoms: S_1  and  C_19
REMARK    3  A    between atoms: C_5  and  C_14
REMARK    4  A    between atoms: C_9  and  C_13
REMARK    5  A    between atoms: C_14  and  O_16
REMARK    6  A    between atoms: C_20  and  C_25
REMARK    7  A    between atoms: C_25  and  N_26
REMARK    8  A    between atoms: N_26  and  S_28
REMARK    9  A    between atoms: S_28  and  N_31
REMARK                            x       y       z     vdW  Elec       q    Type
REMARK                         _______ _______ _______ _____ _____    ______ ____
ROOT
ATOM      1  S   UNL     1      32.057 -12.809 -21.518  0.00  0.00    -0.120 S 
ENDROOT
BRANCH   1   8
ATOM      2  O   UNL     1      33.216  -7.365 -20.635  0.00  0.00    -0.274 OA
ATOM      3  N   UNL     1      31.901  -8.928 -21.813  0.00  0.00    -0.254 N 
ATOM      4  C   UNL     1      32.170  -9.148 -23.247  0.00  0.00    +0.095 C 
ATOM      5  C   UNL     1      33.206  -7.986 -23.116  0.00  0.00    +0.123 C 
ATOM      6  C   UNL     1      32.431 -10.664 -23.343  0.00  0.00    +0.049 C 
ATOM      7  C   UNL     1      32.816  -7.940 -21.623  0.00  0.00    +0.233 C 
ATOM      8  C   UNL     1      32.085 -11.145 -21.945  0.00  0.00    +0.024 C 
ATOM      9  C   UNL     1      31.829 -10.111 -21.133  0.00  0.00    +0.136 C 
ATOM     10  C   UNL     1      33.833 -11.028 -23.802  0.00  0.00    +0.007 C 
BRANCH   9  13
ATOM     11  O   UNL     1      30.362 -10.494 -19.343  0.00  0.00    -0.239 OA
ATOM     12  O   UNL     1      32.524  -9.890 -18.902  0.00  0.00    -0.239 OA
ATOM     13  C   UNL     1      31.543 -10.171 -19.646  0.00  0.00    +0.401 C 
ENDBRANCH   9  13
BRANCH   5  14
ATOM     14  C   UNL     1      33.049  -6.674 -23.842  0.00  0.00    +0.121 C 
ATOM     15  C   UNL     1      34.144  -6.449 -24.881  0.00  0.00    +0.032 C 
BRANCH  14  16
ATOM     16  O   UNL     1      31.782  -6.634 -24.501  0.00  0.00    -0.384 OA
ATOM     17  H   UNL     1      31.406  -7.528 -24.533  0.00  0.00    +0.210 HD
ENDBRANCH  14  16
ENDBRANCH   5  14
ENDBRANCH   1   8
BRANCH   1  19
ATOM     18  N   UNL     1      33.542 -15.152 -24.400  0.00  0.00    +0.387 N 
ATOM     19  C   UNL     1      33.211 -13.473 -22.745  0.00  0.00    +0.028 C 
ATOM     20  C   UNL     1      34.692 -15.197 -23.426  0.00  0.00    -0.043 C 
ATOM     21  C   UNL     1      34.130 -14.540 -22.169  0.00  0.00    -0.011 C 
ATOM     22  C   UNL     1      32.497 -14.207 -23.867  0.00  0.00    -0.070 C 
ATOM     23  H   UNL     1      33.143 -16.084 -24.503  0.00  0.00    -0.084 HD
ATOM     24  H   UNL     1      33.869 -14.830 -25.311  0.00  0.00    -0.084 HD
BRANCH  20  25
ATOM     25  C   UNL     1      35.152 -16.627 -23.228  0.00  0.00    +0.071 C 
BRANCH  25  26
ATOM     26  N   UNL     1      34.830 -17.104 -21.913  0.00  0.00    -0.172 NA
ATOM     27  H   UNL     1      35.562 -16.769 -21.287  0.00  0.00    +0.150 HD
BRANCH  26  28
ATOM     28  S   UNL     1      34.673 -18.811 -21.641  0.00  0.00    +0.093 S 
ATOM     29  O   UNL     1      33.459 -19.063 -20.887  0.00  0.00    -0.142 OA
ATOM     30  O   UNL     1      34.919 -19.501 -22.894  0.00  0.00    -0.142 OA
BRANCH  28  31
ATOM     31  N   UNL     1      36.012 -19.072 -20.600  0.00  0.00    -0.193 NA
ATOM     32  H   UNL     1      36.417 -19.989 -20.791  0.00  0.00    +0.145 HD
ATOM     33  H   UNL     1      35.701 -19.033 -19.630  0.00  0.00    +0.145 HD
ENDBRANCH  28  31
ENDBRANCH  26  28
ENDBRANCH  25  26
ENDBRANCH  20  25
ENDBRANCH   1  19
TORSDOF 9
ENDMDL
MODEL 3
REMARK VINA RESULT:      -8.3      9.715     12.725
REMARK  Name = 6918242
REMARK  9 active torsions:
REMARK  status: ('A' for Active; 'I' for Inactive)
REMARK    1  A    between atoms: S_1  and  C_8
REMARK    2  A    between atoms: S_1  and  C_19
REMARK    3  A    between atoms: C_5  and  C_14
REMARK    4  A    between atoms: C_9  and  C_13
REMARK    5  A    between atoms: C_14  and  O_16
REMARK    6  A    between atoms: C_20  and  C_25
REMARK    7  A    between atoms: C_25  and  N_26
REMARK    8  A    between atoms: N_26  and  S_28
REMARK    9  A    between atoms: S_28  and  N_31
REMARK                            x       y       z     vdW  Elec       q    Type
REMARK                         _______ _______ _______ _____ _____    ______ ____
ROOT
ATOM      1  S   UNL     1      34.507 -18.328 -23.153  0.00  0.00    -0.120 S 
ENDROOT
BRANCH   1   8
ATOM      2  O   UNL     1      31.955 -13.495 -24.530  0.00  0.00    -0.274 OA
ATOM      3  N   UNL     1      33.736 -14.516 -23.369  0.00  0.00    -0.254 N 
ATOM      4  C   UNL     1      33.690 -14.565 -21.896  0.00  0.00    +0.095 C 
ATOM      5  C   UNL     1      32.392 -13.704 -22.019  0.00  0.00    +0.123 C 
ATOM      6  C   UNL     1      33.822 -16.067 -21.574  0.00  0.00    +0.049 C 
ATOM      7  C   UNL     1      32.591 -13.804 -23.547  0.00  0.00    +0.233 C 
ATOM      8  C   UNL     1      34.119 -16.668 -22.937  0.00  0.00    +0.024 C 
ATOM      9  C   UNL     1      34.020 -15.742 -23.900  0.00  0.00    +0.136 C 
ATOM     10  C   UNL     1      32.612 -16.664 -20.876  0.00  0.00    +0.007 C 
BRANCH   9  13
ATOM     11  O   UNL     1      33.093 -15.754 -26.055  0.00  0.00    -0.239 OA
ATOM     12  O   UNL     1      35.288 -16.336 -25.784  0.00  0.00    -0.239 OA
ATOM     13  C   UNL     1      34.146 -15.966 -25.394  0.00  0.00    +0.401 C 
ENDBRANCH   9  13
BRANCH   5  14
ATOM     14  C   UNL     1      32.301 -12.294 -21.493  0.00  0.00    +0.121 C 
ATOM     15  C   UNL     1      31.109 -11.534 -22.069  0.00  0.00    +0.032 C 
BRANCH  14  16
ATOM     16  O   UNL     1      32.180 -12.316 -20.069  0.00  0.00    -0.384 OA
ATOM     17  H   UNL     1      32.275 -13.227 -19.750  0.00  0.00    +0.210 HD
ENDBRANCH  14  16
ENDBRANCH   5  14
ENDBRANCH   1   8
BRANCH   1  19
ATOM     18  N   UNL     1      36.854 -19.695 -20.216  0.00  0.00    +0.387 N 
ATOM     19  C   UNL     1      35.080 -18.741 -21.486  0.00  0.00    +0.028 C 
ATOM     20  C   UNL     1      35.566 -20.387 -19.848  0.00  0.00    -0.043 C 
ATOM     21  C   UNL     1      34.662 -20.137 -21.051  0.00  0.00    -0.011 C 
ATOM     22  C   UNL     1      36.596 -18.796 -21.397  0.00  0.00    -0.070 C 
ATOM     23  H   UNL     1      37.559 -20.390 -20.459  0.00  0.00    -0.084 HD
ATOM     24  H   UNL     1      37.192 -19.145 -19.426  0.00  0.00    -0.084 HD
BRANCH  20  25
ATOM     25  C   UNL     1      35.825 -21.851 -19.557  0.00  0.00    +0.071 C 
BRANCH  25  26
ATOM     26  N   UNL     1      35.217 -22.257 -18.322  0.00  0.00    -0.172 NA
ATOM     27  H   UNL     1      35.852 -22.921 -17.882  0.00  0.00    +0.150 HD
BRANCH  26  28
ATOM     28  S   UNL     1      33.647 -22.996 -18.347  0.00  0.00    +0.093 S 
ATOM     29  O   UNL     1      32.658 -22.002 -18.721  0.00  0.00    -0.142 OA
ATOM     30  O   UNL     1      33.740 -24.250 -19.071  0.00  0.00    -0.142 OA
BRANCH  28  31
ATOM     31  N   UNL     1      33.453 -23.342 -16.677  0.00  0.00    -0.193 NA
ATOM     32  H   UNL     1      32.729 -22.737 -16.288  0.00  0.00    +0.145 HD
ATOM     33  H   UNL     1      34.333 -23.174 -16.191  0.00  0.00    +0.145 HD
ENDBRANCH  28  31
ENDBRANCH  26  28
ENDBRANCH  25  26
ENDBRANCH  20  25
ENDBRANCH   1  19
TORSDOF 9
ENDMDL
MODEL 4
REMARK VINA RESULT:      -8.3      2.189      2.869
REMARK  Name = 6918242
REMARK  9 active torsions:
REMARK  status: ('A' for Active; 'I' for Inactive)
REMARK    1  A    between atoms: S_1  and  C_8
REMARK    2  A    between atoms: S_1  and  C_19
REMARK    3  A    between atoms: C_5  and  C_14
REMARK    4  A    between atoms: C_9  and  C_13
REMARK    5  A    between atoms: C_14  and  O_16
REMARK    6  A    between atoms: C_20  and  C_25
REMARK    7  A    between atoms: C_25  and  N_26
REMARK    8  A    between atoms: N_26  and  S_28
REMARK    9  A    between atoms: S_28  and  N_31
REMARK                            x       y       z     vdW  Elec       q    Type
REMARK                         _______ _______ _______ _____ _____    ______ ____
ROOT
ATOM      1  S   UNL     1      33.497 -23.519 -13.237  0.00  0.00    -0.120 S 
ENDROOT
BRANCH   1   8
ATOM      2  O   UNL     1      38.588 -23.187 -15.630  0.00  0.00    -0.274 OA
ATOM      3  N   UNL     1      36.872 -24.603 -14.849  0.00  0.00    -0.254 N 
ATOM      4  C   UNL     1      37.087 -25.359 -13.600  0.00  0.00    +0.095 C 
ATOM      5  C   UNL     1      38.536 -24.777 -13.629  0.00  0.00    +0.123 C 
ATOM      6  C   UNL     1      35.899 -24.942 -12.710  0.00  0.00    +0.049 C 
ATOM      7  C   UNL     1      38.105 -24.030 -14.909  0.00  0.00    +0.233 C 
ATOM      8  C   UNL     1      35.046 -24.125 -13.665  0.00  0.00    +0.024 C 
ATOM      9  C   UNL     1      35.673 -23.950 -14.836  0.00  0.00    +0.136 C 
ATOM     10  C   UNL     1      36.298 -24.207 -11.441  0.00  0.00    +0.007 C 
BRANCH   9  13
ATOM     11  O   UNL     1      35.390 -21.872 -15.890  0.00  0.00    -0.239 OA
ATOM     12  O   UNL     1      34.668 -23.766 -16.949  0.00  0.00    -0.239 OA
ATOM     13  C   UNL     1      35.196 -23.113 -16.007  0.00  0.00    +0.401 C 
ENDBRANCH   9  13
BRANCH   5  14
ATOM     14  C   UNL     1      39.756 -25.648 -13.796  0.00  0.00    +0.121 C 
ATOM     15  C   UNL     1      39.628 -26.609 -14.975  0.00  0.00    +0.032 C 
BRANCH  14  16
ATOM     16  O   UNL     1      40.910 -24.829 -14.000  0.00  0.00    -0.384 OA
ATOM     17  H   UNL     1      40.932 -24.128 -13.331  0.00  0.00    +0.210 HD
ENDBRANCH  14  16
ENDBRANCH   5  14
ENDBRANCH   1   8
BRANCH   1  19
ATOM     18  N   UNL     1      30.818 -24.034 -16.163  0.00  0.00    +0.387 N 
ATOM     19  C   UNL     1      32.476 -24.346 -14.483  0.00  0.00    +0.028 C 
ATOM     20  C   UNL     1      30.341 -25.091 -15.200  0.00  0.00    -0.043 C 
ATOM     21  C   UNL     1      31.138 -24.813 -13.930  0.00  0.00    -0.011 C 
ATOM     22  C   UNL     1      32.071 -23.409 -15.608  0.00  0.00    -0.070 C 
ATOM     23  H   UNL     1      30.098 -23.322 -16.275  0.00  0.00    -0.084 HD
ATOM     24  H   UNL     1      31.011 -24.454 -17.073  0.00  0.00    -0.084 HD
BRANCH  20  25
ATOM     25  C   UNL     1      28.838 -24.997 -15.024  0.00  0.00    +0.071 C 
BRANCH  25  26
ATOM     26  N   UNL     1      28.402 -23.632 -14.958  0.00  0.00    -0.172 NA
ATOM     27  H   UNL     1      27.661 -23.590 -14.258  0.00  0.00    +0.150 HD
BRANCH  26  28
ATOM     28  S   UNL     1      27.793 -22.861 -16.388  0.00  0.00    +0.093 S 
ATOM     29  O   UNL     1      26.441 -22.394 -16.139  0.00  0.00    -0.142 OA
ATOM     30  O   UNL     1      28.806 -21.950 -16.887  0.00  0.00    -0.142 OA
BRANCH  28  31
ATOM     31  N   UNL     1      27.705 -24.213 -17.442  0.00  0.00    -0.193 NA
ATOM     32  H   UNL     1      27.991 -25.053 -16.940  0.00  0.00    +0.145 HD
ATOM     33  H   UNL     1      28.326 -24.064 -18.238  0.00  0.00    +0.145 HD
ENDBRANCH  28  31
ENDBRANCH  26  28
ENDBRANCH  25  26
ENDBRANCH  20  25
ENDBRANCH   1  19
TORSDOF 9
ENDMDL
MODEL 5
REMARK VINA RESULT:      -8.1     13.422     16.242
REMARK  Name = 6918242
REMARK  9 active torsions:
REMARK  status: ('A' for Active; 'I' for Inactive)
REMARK    1  A    between atoms: S_1  and  C_8
REMARK    2  A    between atoms: S_1  and  C_19
REMARK    3  A    between atoms: C_5  and  C_14
REMARK    4  A    between atoms: C_9  and  C_13
REMARK    5  A    between atoms: C_14  and  O_16
REMARK    6  A    between atoms: C_20  and  C_25
REMARK    7  A    between atoms: C_25  and  N_26
REMARK    8  A    between atoms: N_26  and  S_28
REMARK    9  A    between atoms: S_28  and  N_31
REMARK                            x       y       z     vdW  Elec       q    Type
REMARK                         _______ _______ _______ _____ _____    ______ ____
ROOT
ATOM      1  S   UNL     1      32.392 -13.171 -23.727  0.00  0.00    -0.120 S 
ENDROOT
BRANCH   1   8
ATOM      2  O   UNL     1      33.191  -7.623 -24.316  0.00  0.00    -0.274 OA
ATOM      3  N   UNL     1      33.498  -9.519 -22.947  0.00  0.00    -0.254 N 
ATOM      4  C   UNL     1      32.676  -9.658 -21.730  0.00  0.00    +0.095 C 
ATOM      5  C   UNL     1      32.124  -8.238 -22.074  0.00  0.00    +0.123 C 
ATOM      6  C   UNL     1      31.989 -11.027 -21.906  0.00  0.00    +0.049 C 
ATOM      7  C   UNL     1      33.027  -8.300 -23.325  0.00  0.00    +0.233 C 
ATOM      8  C   UNL     1      32.672 -11.579 -23.145  0.00  0.00    +0.024 C 
ATOM      9  C   UNL     1      33.482 -10.663 -23.693  0.00  0.00    +0.136 C 
ATOM     10  C   UNL     1      30.474 -10.956 -22.005  0.00  0.00    +0.007 C 
BRANCH   9  13
ATOM     11  O   UNL     1      33.724 -11.530 -25.860  0.00  0.00    -0.239 OA
ATOM     12  O   UNL     1      35.346 -10.151 -25.023  0.00  0.00    -0.239 OA
ATOM     13  C   UNL     1      34.261 -10.795 -24.986  0.00  0.00    +0.401 C 
ENDBRANCH   9  13
BRANCH   5  14
ATOM     14  C   UNL     1      32.363  -7.039 -21.192  0.00  0.00    +0.121 C 
ATOM     15  C   UNL     1      31.311  -5.951 -21.391  0.00  0.00    +0.032 C 
BRANCH  14  16
ATOM     16  O   UNL     1      32.349  -7.438 -19.820  0.00  0.00    -0.384 OA
ATOM     17  H   UNL     1      32.443  -6.656 -19.254  0.00  0.00    +0.210 HD
ENDBRANCH  14  16
ENDBRANCH   5  14
ENDBRANCH   1   8
BRANCH   1  19
ATOM     18  N   UNL     1      35.083 -16.055 -23.061  0.00  0.00    +0.387 N 
ATOM     19  C   UNL     1      33.902 -13.990 -23.154  0.00  0.00    +0.028 C 
ATOM     20  C   UNL     1      34.960 -15.502 -21.664  0.00  0.00    -0.043 C 
ATOM     21  C   UNL     1      33.766 -14.558 -21.750  0.00  0.00    -0.011 C 
ATOM     22  C   UNL     1      34.241 -15.216 -23.986  0.00  0.00    -0.070 C 
ATOM     23  H   UNL     1      34.755 -17.021 -23.078  0.00  0.00    -0.084 HD
ATOM     24  H   UNL     1      36.058 -16.033 -23.361  0.00  0.00    -0.084 HD
BRANCH  20  25
ATOM     25  C   UNL     1      34.790 -16.632 -20.669  0.00  0.00    +0.071 C 
BRANCH  25  26
ATOM     26  N   UNL     1      33.938 -17.664 -21.187  0.00  0.00    -0.172 NA
ATOM     27  H   UNL     1      33.171 -17.777 -20.524  0.00  0.00    +0.150 HD
BRANCH  26  28
ATOM     28  S   UNL     1      34.594 -19.244 -21.479  0.00  0.00    +0.093 S 
ATOM     29  O   UNL     1      33.767 -20.234 -20.813  0.00  0.00    -0.142 OA
ATOM     30  O   UNL     1      34.891 -19.365 -22.894  0.00  0.00    -0.142 OA
BRANCH  28  31
ATOM     31  N   UNL     1      36.073 -19.117 -20.618  0.00  0.00    -0.193 NA
ATOM     32  H   UNL     1      36.809 -19.597 -21.135  0.00  0.00    +0.145 HD
ATOM     33  H   UNL     1      35.969 -19.546 -19.698  0.00  0.00    +0.145 HD
ENDBRANCH  28  31
ENDBRANCH  26  28
ENDBRANCH  25  26
ENDBRANCH  20  25
ENDBRANCH   1  19
TORSDOF 9
ENDMDL
MODEL 6
REMARK VINA RESULT:      -8.0      9.261     11.790
REMARK  Name = 6918242
REMARK  9 active torsions:
REMARK  status: ('A' for Active; 'I' for Inactive)
REMARK    1  A    between atoms: S_1  and  C_8
REMARK    2  A    between atoms: S_1  and  C_19
REMARK    3  A    between atoms: C_5  and  C_14
REMARK    4  A    between atoms: C_9  and  C_13
REMARK    5  A    between atoms: C_14  and  O_16
REMARK    6  A    between atoms: C_20  and  C_25
REMARK    7  A    between atoms: C_25  and  N_26
REMARK    8  A    between atoms: N_26  and  S_28
REMARK    9  A    between atoms: S_28  and  N_31
REMARK                            x       y       z     vdW  Elec       q    Type
REMARK                         _______ _______ _______ _____ _____    ______ ____
ROOT
ATOM      1  S   UNL     1      35.526 -18.234 -20.973  0.00  0.00    -0.120 S 
ENDROOT
BRANCH   1   8
ATOM      2  O   UNL     1      33.884 -13.371 -23.299  0.00  0.00    -0.274 OA
ATOM      3  N   UNL     1      33.377 -15.644 -22.934  0.00  0.00    -0.254 N 
ATOM      4  C   UNL     1      33.487 -16.588 -24.062  0.00  0.00    +0.095 C 
ATOM      5  C   UNL     1      33.796 -15.332 -24.938  0.00  0.00    +0.123 C 
ATOM      6  C   UNL     1      34.463 -17.665 -23.545  0.00  0.00    +0.049 C 
ATOM      7  C   UNL     1      33.681 -14.517 -23.632  0.00  0.00    +0.233 C 
ATOM      8  C   UNL     1      34.637 -17.276 -22.088  0.00  0.00    +0.024 C 
ATOM      9  C   UNL     1      34.025 -16.113 -21.827  0.00  0.00    +0.136 C 
ATOM     10  C   UNL     1      35.761 -17.758 -24.329  0.00  0.00    +0.007 C 
BRANCH   9  13
ATOM     11  O   UNL     1      35.152 -14.791 -20.249  0.00  0.00    -0.239 OA
ATOM     12  O   UNL     1      32.967 -15.358 -19.872  0.00  0.00    -0.239 OA
ATOM     13  C   UNL     1      34.051 -15.345 -20.520  0.00  0.00    +0.401 C 
ENDBRANCH   9  13
BRANCH   5  14
ATOM     14  C   UNL     1      32.881 -14.870 -26.044  0.00  0.00    +0.121 C 
ATOM     15  C   UNL     1      33.508 -13.771 -26.897  0.00  0.00    +0.032 C 
BRANCH  14  16
ATOM     16  O   UNL     1      32.553 -15.973 -26.892  0.00  0.00    -0.384 OA
ATOM     17  H   UNL     1      31.679 -16.318 -26.651  0.00  0.00    +0.210 HD
ENDBRANCH  14  16
ENDBRANCH   5  14
ENDBRANCH   1   8
BRANCH   1  19
ATOM     18  N   UNL     1      32.560 -20.800 -20.187  0.00  0.00    +0.387 N 
ATOM     19  C   UNL     1      34.538 -19.751 -20.997  0.00  0.00    +0.028 C 
ATOM     20  C   UNL     1      33.742 -21.682 -19.872  0.00  0.00    -0.043 C 
ATOM     21  C   UNL     1      34.927 -20.723 -19.894  0.00  0.00    -0.011 C 
ATOM     22  C   UNL     1      33.069 -19.484 -20.712  0.00  0.00    -0.070 C 
ATOM     23  H   UNL     1      32.013 -20.645 -19.341  0.00  0.00    -0.084 HD
ATOM     24  H   UNL     1      31.967 -21.248 -20.885  0.00  0.00    -0.084 HD
BRANCH  20  25
ATOM     25  C   UNL     1      33.532 -22.382 -18.545  0.00  0.00    +0.071 C 
BRANCH  25  26
ATOM     26  N   UNL     1      34.780 -22.770 -17.953  0.00  0.00    -0.172 NA
ATOM     27  H   UNL     1      35.107 -23.592 -18.460  0.00  0.00    +0.150 HD
BRANCH  26  28
ATOM     28  S   UNL     1      34.837 -23.161 -16.263  0.00  0.00    +0.093 S 
ATOM     29  O   UNL     1      35.315 -24.523 -16.106  0.00  0.00    -0.142 OA
ATOM     30  O   UNL     1      35.482 -22.069 -15.559  0.00  0.00    -0.142 OA
BRANCH  28  31
ATOM     31  N   UNL     1      33.161 -23.137 -15.894  0.00  0.00    -0.193 NA
ATOM     32  H   UNL     1      32.825 -24.093 -15.779  0.00  0.00    +0.145 HD
ATOM     33  H   UNL     1      32.652 -22.688 -16.656  0.00  0.00    +0.145 HD
ENDBRANCH  28  31
ENDBRANCH  26  28
ENDBRANCH  25  26
ENDBRANCH  20  25
ENDBRANCH   1  19
TORSDOF 9
ENDMDL
MODEL 7
REMARK VINA RESULT:      -8.0      3.281      7.851
REMARK  Name = 6918242
REMARK  9 active torsions:
REMARK  status: ('A' for Active; 'I' for Inactive)
REMARK    1  A    between atoms: S_1  and  C_8
REMARK    2  A    between atoms: S_1  and  C_19
REMARK    3  A    between atoms: C_5  and  C_14
REMARK    4  A    between atoms: C_9  and  C_13
REMARK    5  A    between atoms: C_14  and  O_16
REMARK    6  A    between atoms: C_20  and  C_25
REMARK    7  A    between atoms: C_25  and  N_26
REMARK    8  A    between atoms: N_26  and  S_28
REMARK    9  A    between atoms: S_28  and  N_31
REMARK                            x       y       z     vdW  Elec       q    Type
REMARK                         _______ _______ _______ _____ _____    ______ ____
ROOT
ATOM      1  S   UNL     1      33.575 -23.561 -12.914  0.00  0.00    -0.120 S 
ENDROOT
BRANCH   1   8
ATOM      2  O   UNL     1      31.306 -22.019 -17.837  0.00  0.00    -0.274 OA
ATOM      3  N   UNL     1      32.662 -23.577 -16.700  0.00  0.00    -0.254 N 
ATOM      4  C   UNL     1      34.119 -23.552 -16.928  0.00  0.00    +0.095 C 
ATOM      5  C   UNL     1      33.821 -22.454 -17.999  0.00  0.00    +0.123 C 
ATOM      6  C   UNL     1      34.709 -23.382 -15.514  0.00  0.00    +0.049 C 
ATOM      7  C   UNL     1      32.339 -22.598 -17.587  0.00  0.00    +0.233 C 
ATOM      8  C   UNL     1      33.482 -23.523 -14.630  0.00  0.00    +0.024 C 
ATOM      9  C   UNL     1      32.366 -23.595 -15.367  0.00  0.00    +0.136 C 
ATOM     10  C   UNL     1      35.483 -22.091 -15.311  0.00  0.00    +0.007 C 
BRANCH   9  13
ATOM     11  O   UNL     1      30.410 -22.516 -14.650  0.00  0.00    -0.239 OA
ATOM     12  O   UNL     1      30.465 -24.802 -14.705  0.00  0.00    -0.239 OA
ATOM     13  C   UNL     1      30.939 -23.642 -14.857  0.00  0.00    +0.401 C 
ENDBRANCH   9  13
BRANCH   5  14
ATOM     14  C   UNL     1      34.082 -22.663 -19.469  0.00  0.00    +0.121 C 
ATOM     15  C   UNL     1      35.410 -22.058 -19.915  0.00  0.00    +0.032 C 
BRANCH  14  16
ATOM     16  O   UNL     1      34.099 -24.061 -19.763  0.00  0.00    -0.384 OA
ATOM     17  H   UNL     1      33.233 -24.330 -20.109  0.00  0.00    +0.210 HD
ENDBRANCH  14  16
ENDBRANCH   5  14
ENDBRANCH   1   8
BRANCH   1  19
ATOM     18  N   UNL     1      37.363 -24.845 -12.828  0.00  0.00    +0.387 N 
ATOM     19  C   UNL     1      34.992 -24.667 -12.697  0.00  0.00    +0.028 C 
ATOM     20  C   UNL     1      36.746 -25.943 -13.656  0.00  0.00    -0.043 C 
ATOM     21  C   UNL     1      35.347 -25.423 -13.968  0.00  0.00    -0.011 C 
ATOM     22  C   UNL     1      36.271 -23.907 -12.384  0.00  0.00    -0.070 C 
ATOM     23  H   UNL     1      38.047 -24.336 -13.388  0.00  0.00    -0.084 HD
ATOM     24  H   UNL     1      37.833 -25.242 -12.015  0.00  0.00    -0.084 HD
BRANCH  20  25
ATOM     25  C   UNL     1      37.597 -26.214 -14.881  0.00  0.00    +0.071 C 
BRANCH  25  26
ATOM     26  N   UNL     1      38.817 -26.886 -14.534  0.00  0.00    -0.172 NA
ATOM     27  H   UNL     1      38.696 -27.255 -13.592  0.00  0.00    +0.150 HD
BRANCH  26  28
ATOM     28  S   UNL     1      40.310 -26.002 -14.545  0.00  0.00    +0.093 S 
ATOM     29  O   UNL     1      40.094 -24.697 -13.947  0.00  0.00    -0.142 OA
ATOM     30  O   UNL     1      41.364 -26.871 -14.057  0.00  0.00    -0.142 OA
BRANCH  28  31
ATOM     31  N   UNL     1      40.517 -25.786 -16.235  0.00  0.00    -0.193 NA
ATOM     32  H   UNL     1      41.496 -25.580 -16.434  0.00  0.00    +0.145 HD
ATOM     33  H   UNL     1      39.936 -25.010 -16.553  0.00  0.00    +0.145 HD
ENDBRANCH  28  31
ENDBRANCH  26  28
ENDBRANCH  25  26
ENDBRANCH  20  25
ENDBRANCH   1  19
TORSDOF 9
ENDMDL
MODEL 8
REMARK VINA RESULT:      -8.0      3.231      4.383
REMARK  Name = 6918242
REMARK  9 active torsions:
REMARK  status: ('A' for Active; 'I' for Inactive)
REMARK    1  A    between atoms: S_1  and  C_8
REMARK    2  A    between atoms: S_1  and  C_19
REMARK    3  A    between atoms: C_5  and  C_14
REMARK    4  A    between atoms: C_9  and  C_13
REMARK    5  A    between atoms: C_14  and  O_16
REMARK    6  A    between atoms: C_20  and  C_25
REMARK    7  A    between atoms: C_25  and  N_26
REMARK    8  A    between atoms: N_26  and  S_28
REMARK    9  A    between atoms: S_28  and  N_31
REMARK                            x       y       z     vdW  Elec       q    Type
REMARK                         _______ _______ _______ _____ _____    ______ ____
ROOT
ATOM      1  S   UNL     1      33.664 -24.735 -14.220  0.00  0.00    -0.120 S 
ENDROOT
BRANCH   1   8
ATOM      2  O   UNL     1      38.677 -25.546 -11.775  0.00  0.00    -0.274 OA
ATOM      3  N   UNL     1      37.474 -24.432 -13.470  0.00  0.00    -0.254 N 
ATOM      4  C   UNL     1      37.661 -24.856 -14.871  0.00  0.00    +0.095 C 
ATOM      5  C   UNL     1      38.759 -25.819 -14.316  0.00  0.00    +0.123 C 
ATOM      6  C   UNL     1      36.233 -25.195 -15.344  0.00  0.00    +0.049 C 
ATOM      7  C   UNL     1      38.387 -25.277 -12.919  0.00  0.00    +0.233 C 
ATOM      8  C   UNL     1      35.382 -24.731 -14.176  0.00  0.00    +0.024 C 
ATOM      9  C   UNL     1      36.150 -24.346 -13.148  0.00  0.00    +0.136 C 
ATOM     10  C   UNL     1      36.032 -26.652 -15.726  0.00  0.00    +0.007 C 
BRANCH   9  13
ATOM     11  O   UNL     1      34.920 -24.732 -11.186  0.00  0.00    -0.239 OA
ATOM     12  O   UNL     1      36.109 -22.788 -11.393  0.00  0.00    -0.239 OA
ATOM     13  C   UNL     1      35.680 -23.912 -11.773  0.00  0.00    +0.401 C 
ENDBRANCH   9  13
BRANCH   5  14
ATOM     14  C   UNL     1      40.217 -25.677 -14.673  0.00  0.00    +0.121 C 
ATOM     15  C   UNL     1      41.093 -26.701 -13.957  0.00  0.00    +0.032 C 
BRANCH  14  16
ATOM     16  O   UNL     1      40.388 -25.839 -16.083  0.00  0.00    -0.384 OA
ATOM     17  H   UNL     1      40.822 -26.687 -16.261  0.00  0.00    +0.210 HD
ENDBRANCH  14  16
ENDBRANCH   5  14
ENDBRANCH   1   8
BRANCH   1  19
ATOM     18  N   UNL     1      32.064 -22.650 -17.236  0.00  0.00    +0.387 N 
ATOM     19  C   UNL     1      33.372 -23.380 -15.385  0.00  0.00    +0.028 C 
ATOM     20  C   UNL     1      33.524 -22.522 -17.591  0.00  0.00    -0.043 C 
ATOM     21  C   UNL     1      34.216 -23.497 -16.645  0.00  0.00    -0.011 C 
ATOM     22  C   UNL     1      31.951 -23.384 -15.925  0.00  0.00    -0.070 C 
ATOM     23  H   UNL     1      31.578 -23.172 -17.965  0.00  0.00    -0.084 HD
ATOM     24  H   UNL     1      31.642 -21.726 -17.155  0.00  0.00    -0.084 HD
BRANCH  20  25
ATOM     25  C   UNL     1      33.732 -22.826 -19.061  0.00  0.00    +0.071 C 
BRANCH  25  26
ATOM     26  N   UNL     1      35.125 -22.814 -19.407  0.00  0.00    -0.172 NA
ATOM     27  H   UNL     1      35.619 -23.317 -18.670  0.00  0.00    +0.150 HD
BRANCH  26  28
ATOM     28  S   UNL     1      35.937 -21.295 -19.617  0.00  0.00    +0.093 S 
ATOM     29  O   UNL     1      37.015 -21.460 -20.575  0.00  0.00    -0.142 OA
ATOM     30  O   UNL     1      34.938 -20.260 -19.805  0.00  0.00    -0.142 OA
BRANCH  28  31
ATOM     31  N   UNL     1      36.631 -21.109 -18.059  0.00  0.00    -0.193 NA
ATOM     32  H   UNL     1      37.648 -21.134 -18.135  0.00  0.00    +0.145 HD
ATOM     33  H   UNL     1      36.318 -21.869 -17.454  0.00  0.00    +0.145 HD
ENDBRANCH  28  31
ENDBRANCH  26  28
ENDBRANCH  25  26
ENDBRANCH  20  25
ENDBRANCH   1  19
TORSDOF 9
ENDMDL
MODEL 9
REMARK VINA RESULT:      -7.9      6.259      7.669
REMARK  Name = 6918242
REMARK  9 active torsions:
REMARK  status: ('A' for Active; 'I' for Inactive)
REMARK    1  A    between atoms: S_1  and  C_8
REMARK    2  A    between atoms: S_1  and  C_19
REMARK    3  A    between atoms: C_5  and  C_14
REMARK    4  A    between atoms: C_9  and  C_13
REMARK    5  A    between atoms: C_14  and  O_16
REMARK    6  A    between atoms: C_20  and  C_25
REMARK    7  A    between atoms: C_25  and  N_26
REMARK    8  A    between atoms: N_26  and  S_28
REMARK    9  A    between atoms: S_28  and  N_31
REMARK                            x       y       z     vdW  Elec       q    Type
REMARK                         _______ _______ _______ _____ _____    ______ ____
ROOT
ATOM      1  S   UNL     1      36.140 -21.984 -19.290  0.00  0.00    -0.120 S 
ENDROOT
BRANCH   1   8
ATOM      2  O   UNL     1      33.991 -24.925 -14.990  0.00  0.00    -0.274 OA
ATOM      3  N   UNL     1      34.671 -22.809 -15.779  0.00  0.00    -0.254 N 
ATOM      4  C   UNL     1      35.917 -22.221 -15.252  0.00  0.00    +0.095 C 
ATOM      5  C   UNL     1      35.965 -23.455 -14.296  0.00  0.00    +0.123 C 
ATOM      6  C   UNL     1      36.757 -21.949 -16.516  0.00  0.00    +0.049 C 
ATOM      7  C   UNL     1      34.676 -23.927 -15.004  0.00  0.00    +0.233 C 
ATOM      8  C   UNL     1      35.776 -22.258 -17.633  0.00  0.00    +0.024 C 
ATOM      9  C   UNL     1      34.638 -22.767 -17.143  0.00  0.00    +0.136 C 
ATOM     10  C   UNL     1      38.054 -22.738 -16.585  0.00  0.00    +0.007 C 
BRANCH   9  13
ATOM     11  O   UNL     1      32.348 -22.761 -17.657  0.00  0.00    -0.239 OA
ATOM     12  O   UNL     1      33.739 -24.188 -18.781  0.00  0.00    -0.239 OA
ATOM     13  C   UNL     1      33.458 -23.291 -17.939  0.00  0.00    +0.401 C 
ENDBRANCH   9  13
BRANCH   5  14
ATOM     14  C   UNL     1      35.842 -23.325 -12.799  0.00  0.00    +0.121 C 
ATOM     15  C   UNL     1      35.743 -24.680 -12.103  0.00  0.00    +0.032 C 
BRANCH  14  16
ATOM     16  O   UNL     1      36.977 -22.630 -12.278  0.00  0.00    -0.384 OA
ATOM     17  H   UNL     1      37.651 -23.270 -12.005  0.00  0.00    +0.210 HD
ENDBRANCH  14  16
ENDBRANCH   5  14
ENDBRANCH   1   8
BRANCH   1  19
ATOM     18  N   UNL     1      33.377 -19.580 -20.901  0.00  0.00    +0.387 N 
ATOM     19  C   UNL     1      35.141 -20.505 -19.595  0.00  0.00    +0.028 C 
ATOM     20  C   UNL     1      34.582 -18.679 -21.002  0.00  0.00    -0.043 C 
ATOM     21  C   UNL     1      35.751 -19.591 -20.648  0.00  0.00    -0.011 C 
ATOM     22  C   UNL     1      33.781 -20.842 -20.183  0.00  0.00    -0.070 C 
ATOM     23  H   UNL     1      33.040 -19.809 -21.835  0.00  0.00    -0.084 HD
ATOM     24  H   UNL     1      32.632 -19.110 -20.386  0.00  0.00    -0.084 HD
BRANCH  20  25
ATOM     25  C   UNL     1      34.664 -18.072 -22.389  0.00  0.00    +0.071 C 
BRANCH  25  26
ATOM     26  N   UNL     1      35.210 -16.746 -22.350  0.00  0.00    -0.172 NA
ATOM     27  H   UNL     1      36.111 -16.809 -21.876  0.00  0.00    +0.150 HD
BRANCH  26  28
ATOM     28  S   UNL     1      34.316 -15.478 -21.572  0.00  0.00    +0.093 S 
ATOM     29  O   UNL     1      32.896 -15.745 -21.708  0.00  0.00    -0.142 OA
ATOM     30  O   UNL     1      34.898 -15.239 -20.265  0.00  0.00    -0.142 OA
BRANCH  28  31
ATOM     31  N   UNL     1      34.712 -14.160 -22.597  0.00  0.00    -0.193 NA
ATOM     32  H   UNL     1      34.741 -13.300 -22.050  0.00  0.00    +0.145 HD
ATOM     33  H   UNL     1      34.006 -14.074 -23.329  0.00  0.00    +0.145 HD
ENDBRANCH  28  31
ENDBRANCH  26  28
ENDBRANCH  25  26
ENDBRANCH  20  25
ENDBRANCH   1  19
TORSDOF 9
ENDMDL
