MODEL 1
REMARK VINA RESULT:     -11.4      0.000      0.000
REMARK  Name = 25138295
REMARK  5 active torsions:
REMARK  status: ('A' for Active; 'I' for Inactive)
REMARK    1  A    between atoms: N_3  and  C_21
REMARK    2  A    between atoms: C_4  and  C_11
REMARK    3  A    between atoms: C_12  and  C_20
REMARK    4  A    between atoms: C_22  and  C_28
REMARK    5  A    between atoms: C_28  and  O_29
REMARK                            x       y       z     vdW  Elec       q    Type
REMARK                         _______ _______ _______ _____ _____    ______ ____
ROOT
ATOM      1  O   UNL     1      33.376 -15.058 -24.773  0.00  0.00    -0.252 OA
ATOM      2  N   UNL     1      34.582 -15.936 -23.007  0.00  0.00    -0.264 N 
ATOM      3  N   UNL     1      33.522 -13.839 -22.804  0.00  0.00    -0.268 N 
ATOM      4  C   UNL     1      34.958 -18.418 -21.565  0.00  0.00    +0.026 C 
ATOM      5  C   UNL     1      34.628 -17.096 -20.841  0.00  0.00    +0.026 C 
ATOM      6  C   UNL     1      34.440 -18.389 -23.018  0.00  0.00    +0.026 C 
ATOM      7  C   UNL     1      35.135 -15.900 -21.645  0.00  0.00    +0.095 C 
ATOM      8  C   UNL     1      34.932 -17.145 -23.758  0.00  0.00    +0.095 C 
ATOM      9  C   UNL     1      33.797 -14.937 -23.620  0.00  0.00    +0.308 C 
ATOM     10  H   UNL     1      33.469 -14.016 -21.837  0.00  0.00    +0.156 HD
ENDROOT
BRANCH   4  11
ATOM     11  C   UNL     1      34.450 -19.626 -20.802  0.00  0.00    -0.018 C 
ATOM     12  C   UNL     1      35.333 -20.493 -20.159  0.00  0.00    +0.067 C 
ATOM     13  C   UNL     1      33.076 -19.863 -20.748  0.00  0.00    -0.004 C 
ATOM     14  C   UNL     1      34.843 -21.597 -19.461  0.00  0.00    +0.004 C 
ATOM     15  C   UNL     1      32.586 -20.967 -20.050  0.00  0.00    -0.000 C 
ATOM     16  C   UNL     1      33.469 -21.834 -19.407  0.00  0.00    -0.000 C 
BRANCH  12  20
ATOM     17  F   UNL     1      37.184 -19.316 -21.114  0.00  0.00    -0.166 F 
ATOM     18  F   UNL     1      37.328 -19.837 -19.014  0.00  0.00    -0.166 F 
ATOM     19  F   UNL     1      37.506 -21.386 -20.530  0.00  0.00    -0.166 F 
ATOM     20  C   UNL     1      36.808 -20.260 -20.203  0.00  0.00    +0.418 C 
ENDBRANCH  12  20
ENDBRANCH   4  11
BRANCH   3  21
ATOM     21  C   UNL     1      33.311 -12.499 -23.212  0.00  0.00    +0.058 C 
ATOM     22  C   UNL     1      32.414 -11.674 -22.532  0.00  0.00    +0.089 C 
ATOM     23  C   UNL     1      34.016 -12.007 -24.311  0.00  0.00    +0.015 C 
ATOM     24  C   UNL     1      32.223 -10.358 -22.952  0.00  0.00    +0.008 C 
ATOM     25  C   UNL     1      33.824 -10.690 -24.729  0.00  0.00    +0.001 C 
ATOM     26  C   UNL     1      32.928  -9.865 -24.051  0.00  0.00    +0.000 C 
BRANCH  22  28
ATOM     27  O   UNL     1      32.085 -12.943 -20.531  0.00  0.00    -0.245 OA
ATOM     28  C   UNL     1      31.661 -12.157 -21.382  0.00  0.00    +0.339 C 
BRANCH  28  29
ATOM     29  O   UNL     1      30.404 -11.640 -21.332  0.00  0.00    -0.477 OA
ATOM     30  H   UNL     1      30.003 -11.307 -22.111  0.00  0.00    +0.295 HD
ENDBRANCH  28  29
ENDBRANCH  22  28
ENDBRANCH   3  21
TORSDOF 5
ENDMDL
MODEL 2
REMARK VINA RESULT:     -10.7      4.849      9.501
REMARK  Name = 25138295
REMARK  5 active torsions:
REMARK  status: ('A' for Active; 'I' for Inactive)
REMARK    1  A    between atoms: N_3  and  C_21
REMARK    2  A    between atoms: C_4  and  C_11
REMARK    3  A    between atoms: C_12  and  C_20
REMARK    4  A    between atoms: C_22  and  C_28
REMARK    5  A    between atoms: C_28  and  O_29
REMARK                            x       y       z     vdW  Elec       q    Type
REMARK                         _______ _______ _______ _____ _____    ______ ____
ROOT
ATOM      1  O   UNL     1      37.208 -21.659 -17.951  0.00  0.00    -0.252 OA
ATOM      2  N   UNL     1      35.677 -21.101 -19.591  0.00  0.00    -0.264 N 
ATOM      3  N   UNL     1      34.947 -21.953 -17.517  0.00  0.00    -0.268 N 
ATOM      4  C   UNL     1      35.096 -18.995 -21.490  0.00  0.00    +0.026 C 
ATOM      5  C   UNL     1      34.032 -19.522 -20.505  0.00  0.00    +0.026 C 
ATOM      6  C   UNL     1      36.516 -19.221 -20.931  0.00  0.00    +0.026 C 
ATOM      7  C   UNL     1      34.316 -20.975 -20.131  0.00  0.00    +0.095 C 
ATOM      8  C   UNL     1      36.727 -20.679 -20.522  0.00  0.00    +0.095 C 
ATOM      9  C   UNL     1      36.031 -21.591 -18.317  0.00  0.00    +0.308 C 
ATOM     10  H   UNL     1      34.111 -21.455 -17.663  0.00  0.00    +0.156 HD
ENDROOT
BRANCH   4  11
ATOM     11  C   UNL     1      34.855 -17.546 -21.867  0.00  0.00    -0.018 C 
ATOM     12  C   UNL     1      34.752 -17.158 -23.203  0.00  0.00    +0.067 C 
ATOM     13  C   UNL     1      34.733 -16.595 -20.853  0.00  0.00    -0.004 C 
ATOM     14  C   UNL     1      34.528 -15.820 -23.526  0.00  0.00    +0.004 C 
ATOM     15  C   UNL     1      34.509 -15.256 -21.176  0.00  0.00    -0.000 C 
ATOM     16  C   UNL     1      34.406 -14.869 -22.512  0.00  0.00    -0.000 C 
BRANCH  12  20
ATOM     17  F   UNL     1      35.974 -18.963 -24.188  0.00  0.00    -0.166 F 
ATOM     18  F   UNL     1      33.816 -19.011 -24.391  0.00  0.00    -0.166 F 
ATOM     19  F   UNL     1      34.982 -17.573 -25.533  0.00  0.00    -0.166 F 
ATOM     20  C   UNL     1      34.878 -18.159 -24.305  0.00  0.00    +0.418 C 
ENDBRANCH  12  20
ENDBRANCH   4  11
BRANCH   3  21
ATOM     21  C   UNL     1      34.917 -22.956 -16.517  0.00  0.00    +0.058 C 
ATOM     22  C   UNL     1      33.712 -23.539 -16.121  0.00  0.00    +0.089 C 
ATOM     23  C   UNL     1      36.114 -23.361 -15.926  0.00  0.00    +0.015 C 
ATOM     24  C   UNL     1      33.707 -24.526 -15.135  0.00  0.00    +0.008 C 
ATOM     25  C   UNL     1      36.108 -24.347 -14.940  0.00  0.00    +0.001 C 
ATOM     26  C   UNL     1      34.904 -24.930 -14.544  0.00  0.00    +0.000 C 
BRANCH  22  28
ATOM     27  O   UNL     1      32.289 -22.766 -17.881  0.00  0.00    -0.245 OA
ATOM     28  C   UNL     1      32.444 -23.140 -16.717  0.00  0.00    +0.339 C 
BRANCH  28  29
ATOM     29  O   UNL     1      31.410 -23.222 -15.836  0.00  0.00    -0.477 OA
ATOM     30  H   UNL     1      30.621 -23.665 -16.079  0.00  0.00    +0.295 HD
ENDBRANCH  28  29
ENDBRANCH  22  28
ENDBRANCH   3  21
TORSDOF 5
ENDMDL
MODEL 3
REMARK VINA RESULT:      -9.9      3.944      8.656
REMARK  Name = 25138295
REMARK  5 active torsions:
REMARK  status: ('A' for Active; 'I' for Inactive)
REMARK    1  A    between atoms: N_3  and  C_21
REMARK    2  A    between atoms: C_4  and  C_11
REMARK    3  A    between atoms: C_12  and  C_20
REMARK    4  A    between atoms: C_22  and  C_28
REMARK    5  A    between atoms: C_28  and  O_29
REMARK                            x       y       z     vdW  Elec       q    Type
REMARK                         _______ _______ _______ _____ _____    ______ ____
ROOT
ATOM      1  O   UNL     1      35.271 -17.632 -23.917  0.00  0.00    -0.252 OA
ATOM      2  N   UNL     1      33.863 -15.987 -23.108  0.00  0.00    -0.264 N 
ATOM      3  N   UNL     1      35.073 -17.361 -21.621  0.00  0.00    -0.268 N 
ATOM      4  C   UNL     1      33.173 -13.211 -23.552  0.00  0.00    +0.026 C 
ATOM      5  C   UNL     1      33.554 -13.744 -22.155  0.00  0.00    +0.026 C 
ATOM      6  C   UNL     1      33.803 -14.082 -24.658  0.00  0.00    +0.026 C 
ATOM      7  C   UNL     1      33.211 -15.227 -22.032  0.00  0.00    +0.095 C 
ATOM      8  C   UNL     1      33.475 -15.562 -24.455  0.00  0.00    +0.095 C 
ATOM      9  C   UNL     1      34.773 -17.053 -22.948  0.00  0.00    +0.308 C 
ATOM     10  H   UNL     1      35.037 -16.615 -20.981  0.00  0.00    +0.156 HD
ENDROOT
BRANCH   4  11
ATOM     11  C   UNL     1      33.519 -11.743 -23.715  0.00  0.00    -0.018 C 
ATOM     12  C   UNL     1      32.807 -10.757 -23.033  0.00  0.00    +0.067 C 
ATOM     13  C   UNL     1      34.570 -11.386 -24.561  0.00  0.00    -0.004 C 
ATOM     14  C   UNL     1      33.144  -9.414 -23.197  0.00  0.00    +0.004 C 
ATOM     15  C   UNL     1      34.907 -10.042 -24.725  0.00  0.00    -0.000 C 
ATOM     16  C   UNL     1      34.194  -9.057 -24.043  0.00  0.00    -0.000 C 
BRANCH  12  20
ATOM     17  F   UNL     1      30.964 -12.200 -22.539  0.00  0.00    -0.166 F 
ATOM     18  F   UNL     1      32.080 -11.418 -20.853  0.00  0.00    -0.166 F 
ATOM     19  F   UNL     1      30.772 -10.105 -21.990  0.00  0.00    -0.166 F 
ATOM     20  C   UNL     1      31.679 -11.116 -22.121  0.00  0.00    +0.418 C 
ENDBRANCH  12  20
ENDBRANCH   4  11
BRANCH   3  21
ATOM     21  C   UNL     1      35.425 -18.628 -21.093  0.00  0.00    +0.058 C 
ATOM     22  C   UNL     1      34.445 -19.540 -20.702  0.00  0.00    +0.089 C 
ATOM     23  C   UNL     1      36.775 -18.958 -20.968  0.00  0.00    +0.015 C 
ATOM     24  C   UNL     1      34.815 -20.782 -20.185  0.00  0.00    +0.008 C 
ATOM     25  C   UNL     1      37.145 -20.199 -20.451  0.00  0.00    +0.001 C 
ATOM     26  C   UNL     1      36.165 -21.112 -20.060  0.00  0.00    +0.000 C 
BRANCH  22  28
ATOM     27  O   UNL     1      32.531 -18.105 -20.695  0.00  0.00    -0.245 OA
ATOM     28  C   UNL     1      33.027 -19.228 -20.818  0.00  0.00    +0.339 C 
BRANCH  28  29
ATOM     29  O   UNL     1      32.275 -20.329 -21.086  0.00  0.00    -0.477 OA
ATOM     30  H   UNL     1      31.466 -20.243 -21.552  0.00  0.00    +0.295 HD
ENDBRANCH  28  29
ENDBRANCH  22  28
ENDBRANCH   3  21
TORSDOF 5
ENDMDL
MODEL 4
REMARK VINA RESULT:      -9.7      6.223     11.362
REMARK  Name = 25138295
REMARK  5 active torsions:
REMARK  status: ('A' for Active; 'I' for Inactive)
REMARK    1  A    between atoms: N_3  and  C_21
REMARK    2  A    between atoms: C_4  and  C_11
REMARK    3  A    between atoms: C_12  and  C_20
REMARK    4  A    between atoms: C_22  and  C_28
REMARK    5  A    between atoms: C_28  and  O_29
REMARK                            x       y       z     vdW  Elec       q    Type
REMARK                         _______ _______ _______ _____ _____    ______ ____
ROOT
ATOM      1  O   UNL     1      31.448 -11.789 -22.764  0.00  0.00    -0.252 OA
ATOM      2  N   UNL     1      32.853  -9.957 -22.858  0.00  0.00    -0.264 N 
ATOM      3  N   UNL     1      33.508 -12.014 -23.807  0.00  0.00    -0.268 N 
ATOM      4  C   UNL     1      32.802  -7.122 -23.442  0.00  0.00    +0.026 C 
ATOM      5  C   UNL     1      33.803  -8.078 -24.124  0.00  0.00    +0.026 C 
ATOM      6  C   UNL     1      31.540  -7.885 -22.992  0.00  0.00    +0.026 C 
ATOM      7  C   UNL     1      34.103  -9.276 -23.225  0.00  0.00    +0.095 C 
ATOM      8  C   UNL     1      31.900  -9.104 -22.143  0.00  0.00    +0.095 C 
ATOM      9  C   UNL     1      32.527 -11.305 -23.112  0.00  0.00    +0.308 C 
ATOM     10  H   UNL     1      34.066 -11.493 -24.428  0.00  0.00    +0.156 HD
ENDROOT
BRANCH   4  11
ATOM     11  C   UNL     1      32.467  -5.930 -24.318  0.00  0.00    -0.018 C 
ATOM     12  C   UNL     1      31.638  -4.909 -23.855  0.00  0.00    +0.067 C 
ATOM     13  C   UNL     1      33.004  -5.864 -25.604  0.00  0.00    -0.004 C 
ATOM     14  C   UNL     1      31.345  -3.821 -24.678  0.00  0.00    +0.004 C 
ATOM     15  C   UNL     1      32.711  -4.776 -26.427  0.00  0.00    -0.000 C 
ATOM     16  C   UNL     1      31.882  -3.755 -25.964  0.00  0.00    -0.000 C 
BRANCH  12  20
ATOM     17  F   UNL     1      30.053  -5.878 -22.348  0.00  0.00    -0.166 F 
ATOM     18  F   UNL     1      31.960  -5.272 -21.513  0.00  0.00    -0.166 F 
ATOM     19  F   UNL     1      30.506  -3.766 -22.104  0.00  0.00    -0.166 F 
ATOM     20  C   UNL     1      31.051  -4.958 -22.482  0.00  0.00    +0.418 C 
ENDBRANCH  12  20
ENDBRANCH   4  11
BRANCH   3  21
ATOM     21  C   UNL     1      33.789 -13.400 -23.719  0.00  0.00    +0.058 C 
ATOM     22  C   UNL     1      33.582 -14.246 -24.809  0.00  0.00    +0.089 C 
ATOM     23  C   UNL     1      34.282 -13.915 -22.520  0.00  0.00    +0.015 C 
ATOM     24  C   UNL     1      33.867 -15.606 -24.699  0.00  0.00    +0.008 C 
ATOM     25  C   UNL     1      34.566 -15.276 -22.410  0.00  0.00    +0.001 C 
ATOM     26  C   UNL     1      34.359 -16.122 -23.499  0.00  0.00    +0.000 C 
BRANCH  22  28
ATOM     27  O   UNL     1      33.461 -12.721 -26.648  0.00  0.00    -0.245 OA
ATOM     28  C   UNL     1      33.068 -13.740 -26.075  0.00  0.00    +0.339 C 
BRANCH  28  29
ATOM     29  O   UNL     1      32.080 -14.525 -26.583  0.00  0.00    -0.477 OA
ATOM     30  H   UNL     1      32.147 -15.458 -26.527  0.00  0.00    +0.295 HD
ENDBRANCH  28  29
ENDBRANCH  22  28
ENDBRANCH   3  21
TORSDOF 5
ENDMDL
MODEL 5
REMARK VINA RESULT:      -9.5      5.143      9.858
REMARK  Name = 25138295
REMARK  5 active torsions:
REMARK  status: ('A' for Active; 'I' for Inactive)
REMARK    1  A    between atoms: N_3  and  C_21
REMARK    2  A    between atoms: C_4  and  C_11
REMARK    3  A    between atoms: C_12  and  C_20
REMARK    4  A    between atoms: C_22  and  C_28
REMARK    5  A    between atoms: C_28  and  O_29
REMARK                            x       y       z     vdW  Elec       q    Type
REMARK                         _______ _______ _______ _____ _____    ______ ____
ROOT
ATOM      1  O   UNL     1      31.813 -14.382 -22.296  0.00  0.00    -0.252 OA
ATOM      2  N   UNL     1      32.956 -12.374 -22.329  0.00  0.00    -0.264 N 
ATOM      3  N   UNL     1      33.561 -14.116 -23.798  0.00  0.00    -0.268 N 
ATOM      4  C   UNL     1      32.472  -9.520 -22.299  0.00  0.00    +0.026 C 
ATOM      5  C   UNL     1      33.365 -10.185 -23.367  0.00  0.00    +0.026 C 
ATOM      6  C   UNL     1      31.446 -10.527 -21.742  0.00  0.00    +0.026 C 
ATOM      7  C   UNL     1      33.999 -11.462 -22.821  0.00  0.00    +0.095 C 
ATOM      8  C   UNL     1      32.129 -11.807 -21.260  0.00  0.00    +0.095 C 
ATOM      9  C   UNL     1      32.717 -13.691 -22.772  0.00  0.00    +0.308 C 
ATOM     10  H   UNL     1      33.891 -13.419 -24.409  0.00  0.00    +0.156 HD
ENDROOT
BRANCH   4  11
ATOM     11  C   UNL     1      31.810  -8.257 -22.816  0.00  0.00    -0.018 C 
ATOM     12  C   UNL     1      31.734  -7.110 -22.027  0.00  0.00    +0.067 C 
ATOM     13  C   UNL     1      31.274  -8.254 -24.105  0.00  0.00    -0.004 C 
ATOM     14  C   UNL     1      31.122  -5.960 -22.524  0.00  0.00    +0.004 C 
ATOM     15  C   UNL     1      30.663  -7.103 -24.602  0.00  0.00    -0.000 C 
ATOM     16  C   UNL     1      30.586  -5.957 -23.813  0.00  0.00    -0.000 C 
BRANCH  12  20
ATOM     17  F   UNL     1      31.570  -7.811 -19.745  0.00  0.00    -0.166 F 
ATOM     18  F   UNL     1      33.565  -7.596 -20.568  0.00  0.00    -0.166 F 
ATOM     19  F   UNL     1      32.377  -5.828 -20.129  0.00  0.00    -0.166 F 
ATOM     20  C   UNL     1      32.301  -7.090 -20.644  0.00  0.00    +0.418 C 
ENDBRANCH  12  20
ENDBRANCH   4  11
BRANCH   3  21
ATOM     21  C   UNL     1      33.996 -15.439 -24.058  0.00  0.00    +0.058 C 
ATOM     22  C   UNL     1      33.740 -16.050 -25.286  0.00  0.00    +0.089 C 
ATOM     23  C   UNL     1      34.689 -16.132 -23.066  0.00  0.00    +0.015 C 
ATOM     24  C   UNL     1      34.178 -17.354 -25.520  0.00  0.00    +0.008 C 
ATOM     25  C   UNL     1      35.127 -17.435 -23.300  0.00  0.00    +0.001 C 
ATOM     26  C   UNL     1      34.872 -18.046 -24.527  0.00  0.00    +0.000 C 
BRANCH  22  28
ATOM     27  O   UNL     1      33.215 -14.190 -26.695  0.00  0.00    -0.245 OA
ATOM     28  C   UNL     1      33.018 -15.356 -26.345  0.00  0.00    +0.339 C 
BRANCH  28  29
ATOM     29  O   UNL     1      32.075 -16.142 -26.930  0.00  0.00    -0.477 OA
ATOM     30  H   UNL     1      31.895 -16.057 -27.845  0.00  0.00    +0.295 HD
ENDBRANCH  28  29
ENDBRANCH  22  28
ENDBRANCH   3  21
TORSDOF 5
ENDMDL
MODEL 6
REMARK VINA RESULT:      -9.5      3.276      5.041
REMARK  Name = 25138295
REMARK  5 active torsions:
REMARK  status: ('A' for Active; 'I' for Inactive)
REMARK    1  A    between atoms: N_3  and  C_21
REMARK    2  A    between atoms: C_4  and  C_11
REMARK    3  A    between atoms: C_12  and  C_20
REMARK    4  A    between atoms: C_22  and  C_28
REMARK    5  A    between atoms: C_28  and  O_29
REMARK                            x       y       z     vdW  Elec       q    Type
REMARK                         _______ _______ _______ _____ _____    ______ ____
ROOT
ATOM      1  O   UNL     1      30.764 -10.637 -22.455  0.00  0.00    -0.252 OA
ATOM      2  N   UNL     1      32.467 -11.846 -23.448  0.00  0.00    -0.264 N 
ATOM      3  N   UNL     1      32.838  -9.632 -22.726  0.00  0.00    -0.268 N 
ATOM      4  C   UNL     1      33.685 -14.470 -23.379  0.00  0.00    +0.026 C 
ATOM      5  C   UNL     1      34.519 -13.180 -23.238  0.00  0.00    +0.026 C 
ATOM      6  C   UNL     1      32.232 -14.234 -22.921  0.00  0.00    +0.026 C 
ATOM      7  C   UNL     1      33.836 -12.016 -23.953  0.00  0.00    +0.095 C 
ATOM      8  C   UNL     1      31.616 -13.025 -23.627  0.00  0.00    +0.095 C 
ATOM      9  C   UNL     1      31.932 -10.685 -22.851  0.00  0.00    +0.308 C 
ATOM     10  H   UNL     1      33.783  -9.880 -22.613  0.00  0.00    +0.156 HD
ENDROOT
BRANCH   4  11
ATOM     11  C   UNL     1      34.326 -15.643 -22.661  0.00  0.00    -0.018 C 
ATOM     12  C   UNL     1      34.733 -16.778 -23.362  0.00  0.00    +0.067 C 
ATOM     13  C   UNL     1      34.508 -15.573 -21.280  0.00  0.00    -0.004 C 
ATOM     14  C   UNL     1      35.322 -17.844 -22.681  0.00  0.00    +0.004 C 
ATOM     15  C   UNL     1      35.097 -16.639 -20.599  0.00  0.00    -0.000 C 
ATOM     16  C   UNL     1      35.504 -17.774 -21.299  0.00  0.00    -0.000 C 
BRANCH  12  20
ATOM     17  F   UNL     1      33.345 -16.402 -25.273  0.00  0.00    -0.166 F 
ATOM     18  F   UNL     1      35.484 -16.182 -25.553  0.00  0.00    -0.166 F 
ATOM     19  F   UNL     1      34.622 -18.162 -25.293  0.00  0.00    -0.166 F 
ATOM     20  C   UNL     1      34.549 -16.876 -24.841  0.00  0.00    +0.418 C 
ENDBRANCH  12  20
ENDBRANCH   4  11
BRANCH   3  21
ATOM     21  C   UNL     1      32.549  -8.245 -22.742  0.00  0.00    +0.058 C 
ATOM     22  C   UNL     1      32.440  -7.520 -21.555  0.00  0.00    +0.089 C 
ATOM     23  C   UNL     1      32.373  -7.604 -23.969  0.00  0.00    +0.015 C 
ATOM     24  C   UNL     1      32.155  -6.155 -21.596  0.00  0.00    +0.008 C 
ATOM     25  C   UNL     1      32.088  -6.240 -24.009  0.00  0.00    +0.001 C 
ATOM     26  C   UNL     1      31.979  -5.514 -22.824  0.00  0.00    +0.000 C 
BRANCH  22  28
ATOM     27  O   UNL     1      32.160  -9.255 -19.933  0.00  0.00    -0.245 OA
ATOM     28  C   UNL     1      32.617  -8.157 -20.257  0.00  0.00    +0.339 C 
BRANCH  28  29
ATOM     29  O   UNL     1      33.361  -7.399 -19.406  0.00  0.00    -0.477 OA
ATOM     30  H   UNL     1      34.210  -7.100 -19.665  0.00  0.00    +0.295 HD
ENDBRANCH  28  29
ENDBRANCH  22  28
ENDBRANCH   3  21
TORSDOF 5
ENDMDL
MODEL 7
REMARK VINA RESULT:      -9.4      4.992      9.857
REMARK  Name = 25138295
REMARK  5 active torsions:
REMARK  status: ('A' for Active; 'I' for Inactive)
REMARK    1  A    between atoms: N_3  and  C_21
REMARK    2  A    between atoms: C_4  and  C_11
REMARK    3  A    between atoms: C_12  and  C_20
REMARK    4  A    between atoms: C_22  and  C_28
REMARK    5  A    between atoms: C_28  and  O_29
REMARK                            x       y       z     vdW  Elec       q    Type
REMARK                         _______ _______ _______ _____ _____    ______ ____
ROOT
ATOM      1  O   UNL     1      31.987 -14.271 -22.424  0.00  0.00    -0.252 OA
ATOM      2  N   UNL     1      33.235 -12.346 -22.708  0.00  0.00    -0.264 N 
ATOM      3  N   UNL     1      33.688 -14.265 -24.002  0.00  0.00    -0.268 N 
ATOM      4  C   UNL     1      32.907  -9.482 -22.966  0.00  0.00    +0.026 C 
ATOM      5  C   UNL     1      33.721 -10.305 -23.986  0.00  0.00    +0.026 C 
ATOM      6  C   UNL     1      31.850 -10.364 -22.272  0.00  0.00    +0.026 C 
ATOM      7  C   UNL     1      34.306 -11.553 -23.327  0.00  0.00    +0.095 C 
ATOM      8  C   UNL     1      32.481 -11.625 -21.679  0.00  0.00    +0.095 C 
ATOM      9  C   UNL     1      32.908 -13.687 -23.000  0.00  0.00    +0.308 C 
ATOM     10  H   UNL     1      34.032 -13.656 -24.694  0.00  0.00    +0.156 HD
ENDROOT
BRANCH   4  11
ATOM     11  C   UNL     1      32.295  -8.244 -23.593  0.00  0.00    -0.018 C 
ATOM     12  C   UNL     1      33.098  -7.232 -24.118  0.00  0.00    +0.067 C 
ATOM     13  C   UNL     1      30.905  -8.128 -23.642  0.00  0.00    -0.004 C 
ATOM     14  C   UNL     1      32.513  -6.104 -24.692  0.00  0.00    +0.004 C 
ATOM     15  C   UNL     1      30.320  -6.999 -24.216  0.00  0.00    -0.000 C 
ATOM     16  C   UNL     1      31.124  -5.987 -24.741  0.00  0.00    -0.000 C 
BRANCH  12  20
ATOM     17  F   UNL     1      35.091  -7.469 -22.816  0.00  0.00    -0.166 F 
ATOM     18  F   UNL     1      35.080  -8.400 -24.774  0.00  0.00    -0.166 F 
ATOM     19  F   UNL     1      35.203  -6.235 -24.603  0.00  0.00    -0.166 F 
ATOM     20  C   UNL     1      34.588  -7.334 -24.077  0.00  0.00    +0.418 C 
ENDBRANCH  12  20
ENDBRANCH   4  11
BRANCH   3  21
ATOM     21  C   UNL     1      34.041 -15.630 -24.134  0.00  0.00    +0.058 C 
ATOM     22  C   UNL     1      33.788 -16.326 -25.317  0.00  0.00    +0.089 C 
ATOM     23  C   UNL     1      34.649 -16.280 -23.060  0.00  0.00    +0.015 C 
ATOM     24  C   UNL     1      34.144 -17.670 -25.424  0.00  0.00    +0.008 C 
ATOM     25  C   UNL     1      35.005 -17.624 -23.168  0.00  0.00    +0.001 C 
ATOM     26  C   UNL     1      34.753 -18.320 -24.350  0.00  0.00    +0.000 C 
BRANCH  22  28
ATOM     27  O   UNL     1      33.564 -14.661 -27.019  0.00  0.00    -0.245 OA
ATOM     28  C   UNL     1      33.153 -15.679 -26.458  0.00  0.00    +0.339 C 
BRANCH  28  29
ATOM     29  O   UNL     1      32.027 -16.327 -26.859  0.00  0.00    -0.477 OA
ATOM     30  H   UNL     1      31.852 -16.443 -27.773  0.00  0.00    +0.295 HD
ENDBRANCH  28  29
ENDBRANCH  22  28
ENDBRANCH   3  21
TORSDOF 5
ENDMDL
MODEL 8
REMARK VINA RESULT:      -9.3      4.373      9.090
REMARK  Name = 25138295
REMARK  5 active torsions:
REMARK  status: ('A' for Active; 'I' for Inactive)
REMARK    1  A    between atoms: N_3  and  C_21
REMARK    2  A    between atoms: C_4  and  C_11
REMARK    3  A    between atoms: C_12  and  C_20
REMARK    4  A    between atoms: C_22  and  C_28
REMARK    5  A    between atoms: C_28  and  O_29
REMARK                            x       y       z     vdW  Elec       q    Type
REMARK                         _______ _______ _______ _____ _____    ______ ____
ROOT
ATOM      1  O   UNL     1      34.220 -15.537 -26.127  0.00  0.00    -0.252 OA
ATOM      2  N   UNL     1      33.265 -14.092 -24.597  0.00  0.00    -0.264 N 
ATOM      3  N   UNL     1      34.404 -16.022 -23.865  0.00  0.00    -0.268 N 
ATOM      4  C   UNL     1      33.035 -11.262 -24.029  0.00  0.00    +0.026 C 
ATOM      5  C   UNL     1      33.507 -12.273 -22.963  0.00  0.00    +0.026 C 
ATOM      6  C   UNL     1      33.332 -11.788 -25.448  0.00  0.00    +0.026 C 
ATOM      7  C   UNL     1      32.922 -13.657 -23.235  0.00  0.00    +0.095 C 
ATOM      8  C   UNL     1      32.773 -13.197 -25.647  0.00  0.00    +0.095 C 
ATOM      9  C   UNL     1      33.979 -15.255 -24.950  0.00  0.00    +0.308 C 
ATOM     10  H   UNL     1      34.596 -15.534 -23.033  0.00  0.00    +0.156 HD
ENDROOT
BRANCH   4  11
ATOM     11  C   UNL     1      33.615  -9.880 -23.799  0.00  0.00    -0.018 C 
ATOM     12  C   UNL     1      33.040  -9.003 -22.880  0.00  0.00    +0.067 C 
ATOM     13  C   UNL     1      34.743  -9.491 -24.523  0.00  0.00    -0.004 C 
ATOM     14  C   UNL     1      33.592  -7.737 -22.683  0.00  0.00    +0.004 C 
ATOM     15  C   UNL     1      35.295  -8.225 -24.327  0.00  0.00    -0.000 C 
ATOM     16  C   UNL     1      34.720  -7.348 -23.407  0.00  0.00    -0.000 C 
BRANCH  12  20
ATOM     17  F   UNL     1      30.844  -9.950 -22.852  0.00  0.00    -0.166 F 
ATOM     18  F   UNL     1      32.095 -10.319 -21.120  0.00  0.00    -0.166 F 
ATOM     19  F   UNL     1      31.258  -8.339 -21.452  0.00  0.00    -0.166 F 
ATOM     20  C   UNL     1      31.833  -9.398 -22.093  0.00  0.00    +0.418 C 
ENDBRANCH  12  20
ENDBRANCH   4  11
BRANCH   3  21
ATOM     21  C   UNL     1      34.592 -17.426 -23.828  0.00  0.00    +0.058 C 
ATOM     22  C   UNL     1      34.797 -18.092 -22.620  0.00  0.00    +0.089 C 
ATOM     23  C   UNL     1      34.569 -18.144 -25.025  0.00  0.00    +0.015 C 
ATOM     24  C   UNL     1      34.979 -19.475 -22.608  0.00  0.00    +0.008 C 
ATOM     25  C   UNL     1      34.750 -19.527 -25.012  0.00  0.00    +0.001 C 
ATOM     26  C   UNL     1      34.955 -20.193 -23.804  0.00  0.00    +0.000 C 
BRANCH  22  28
ATOM     27  O   UNL     1      34.133 -16.394 -21.071  0.00  0.00    -0.245 OA
ATOM     28  C   UNL     1      34.828 -17.373 -21.352  0.00  0.00    +0.339 C 
BRANCH  28  29
ATOM     29  O   UNL     1      35.727 -17.902 -20.479  0.00  0.00    -0.477 OA
ATOM     30  H   UNL     1      36.135 -18.724 -20.667  0.00  0.00    +0.295 HD
ENDBRANCH  28  29
ENDBRANCH  22  28
ENDBRANCH   3  21
TORSDOF 5
ENDMDL
MODEL 9
REMARK VINA RESULT:      -9.2      5.430      9.787
REMARK  Name = 25138295
REMARK  5 active torsions:
REMARK  status: ('A' for Active; 'I' for Inactive)
REMARK    1  A    between atoms: N_3  and  C_21
REMARK    2  A    between atoms: C_4  and  C_11
REMARK    3  A    between atoms: C_12  and  C_20
REMARK    4  A    between atoms: C_22  and  C_28
REMARK    5  A    between atoms: C_28  and  O_29
REMARK                            x       y       z     vdW  Elec       q    Type
REMARK                         _______ _______ _______ _____ _____    ______ ____
ROOT
ATOM      1  O   UNL     1      34.603 -13.056 -24.848  0.00  0.00    -0.252 OA
ATOM      2  N   UNL     1      32.792 -12.172 -23.716  0.00  0.00    -0.264 N 
ATOM      3  N   UNL     1      33.696 -14.255 -23.081  0.00  0.00    -0.268 N 
ATOM      4  C   UNL     1      31.861  -9.680 -22.575  0.00  0.00    +0.026 C 
ATOM      5  C   UNL     1      31.885 -10.991 -21.761  0.00  0.00    +0.026 C 
ATOM      6  C   UNL     1      32.912  -9.718 -23.703  0.00  0.00    +0.026 C 
ATOM      7  C   UNL     1      31.745 -12.200 -22.684  0.00  0.00    +0.095 C 
ATOM      8  C   UNL     1      32.761 -10.975 -24.560  0.00  0.00    +0.095 C 
ATOM      9  C   UNL     1      33.760 -13.169 -23.954  0.00  0.00    +0.308 C 
ATOM     10  H   UNL     1      33.362 -14.068 -22.175  0.00  0.00    +0.156 HD
ENDROOT
BRANCH   4  11
ATOM     11  C   UNL     1      32.019  -8.458 -21.689  0.00  0.00    -0.018 C 
ATOM     12  C   UNL     1      31.648  -7.192 -22.140  0.00  0.00    +0.067 C 
ATOM     13  C   UNL     1      32.542  -8.616 -20.405  0.00  0.00    -0.004 C 
ATOM     14  C   UNL     1      31.800  -6.083 -21.308  0.00  0.00    +0.004 C 
ATOM     15  C   UNL     1      32.694  -7.507 -19.573  0.00  0.00    -0.000 C 
ATOM     16  C   UNL     1      32.323  -6.241 -20.024  0.00  0.00    -0.000 C 
BRANCH  12  20
ATOM     17  F   UNL     1      32.025  -7.061 -24.499  0.00  0.00    -0.166 F 
ATOM     18  F   UNL     1      30.146  -7.927 -23.850  0.00  0.00    -0.166 F 
ATOM     19  F   UNL     1      30.477  -5.786 -23.659  0.00  0.00    -0.166 F 
ATOM     20  C   UNL     1      31.086  -6.998 -23.511  0.00  0.00    +0.418 C 
ENDBRANCH  12  20
ENDBRANCH   4  11
BRANCH   3  21
ATOM     21  C   UNL     1      34.059 -15.597 -23.354  0.00  0.00    +0.058 C 
ATOM     22  C   UNL     1      34.407 -16.471 -22.323  0.00  0.00    +0.089 C 
ATOM     23  C   UNL     1      34.066 -16.042 -24.676  0.00  0.00    +0.015 C 
ATOM     24  C   UNL     1      34.761 -17.788 -22.615  0.00  0.00    +0.008 C 
ATOM     25  C   UNL     1      34.420 -17.359 -24.968  0.00  0.00    +0.001 C 
ATOM     26  C   UNL     1      34.767 -18.233 -23.938  0.00  0.00    +0.000 C 
BRANCH  22  28
ATOM     27  O   UNL     1      33.656 -15.196 -20.444  0.00  0.00    -0.245 OA
ATOM     28  C   UNL     1      34.411 -16.040 -20.931  0.00  0.00    +0.339 C 
BRANCH  28  29
ATOM     29  O   UNL     1      35.361 -16.678 -20.194  0.00  0.00    -0.477 OA
ATOM     30  H   UNL     1      35.869 -17.364 -20.579  0.00  0.00    +0.295 HD
ENDBRANCH  28  29
ENDBRANCH  22  28
ENDBRANCH   3  21
TORSDOF 5
ENDMDL
