MODEL 1
REMARK VINA RESULT:      -4.4      0.000      0.000
REMARK  Name = 7302
REMARK  0 active torsions:
REMARK  status: ('A' for Active; 'I' for Inactive)
REMARK                            x       y       z     vdW  Elec       q    Type
REMARK                         _______ _______ _______ _____ _____    ______ ____
ROOT
ATOM      1  O   UNL     1      32.759 -21.756 -19.889  0.00  0.00    -0.448 OA
ATOM      2  O   UNL     1      33.853 -23.557 -18.984  0.00  0.00    -0.250 OA
ATOM      3  C   UNL     1      34.606 -20.429 -20.392  0.00  0.00    +0.059 C 
ATOM      4  C   UNL     1      35.044 -21.492 -19.415  0.00  0.00    +0.113 C 
ATOM      5  C   UNL     1      33.112 -20.405 -20.206  0.00  0.00    +0.209 C 
ATOM      6  C   UNL     1      33.858 -22.409 -19.401  0.00  0.00    +0.317 C 
ENDROOT
TORSDOF 0
ENDMDL
MODEL 2
REMARK VINA RESULT:      -4.3      6.847      7.232
REMARK  Name = 7302
REMARK  0 active torsions:
REMARK  status: ('A' for Active; 'I' for Inactive)
REMARK                            x       y       z     vdW  Elec       q    Type
REMARK                         _______ _______ _______ _____ _____    ______ ____
ROOT
ATOM      1  O   UNL     1      27.616 -23.570 -17.549  0.00  0.00    -0.448 OA
ATOM      2  O   UNL     1      26.950 -21.386 -17.330  0.00  0.00    -0.250 OA
ATOM      3  C   UNL     1      28.623 -23.849 -15.467  0.00  0.00    +0.059 C 
ATOM      4  C   UNL     1      28.468 -22.370 -15.719  0.00  0.00    +0.113 C 
ATOM      5  C   UNL     1      28.522 -24.432 -16.852  0.00  0.00    +0.209 C 
ATOM      6  C   UNL     1      27.582 -22.350 -16.929  0.00  0.00    +0.317 C 
ENDROOT
TORSDOF 0
ENDMDL
MODEL 3
REMARK VINA RESULT:      -4.2      1.310      2.053
REMARK  Name = 7302
REMARK  0 active torsions:
REMARK  status: ('A' for Active; 'I' for Inactive)
REMARK                            x       y       z     vdW  Elec       q    Type
REMARK                         _______ _______ _______ _____ _____    ______ ____
ROOT
ATOM      1  O   UNL     1      34.793 -21.100 -19.726  0.00  0.00    -0.448 OA
ATOM      2  O   UNL     1      32.762 -21.912 -19.034  0.00  0.00    -0.250 OA
ATOM      3  C   UNL     1      34.050 -19.253 -20.934  0.00  0.00    +0.059 C 
ATOM      4  C   UNL     1      32.877 -20.178 -20.722  0.00  0.00    +0.113 C 
ATOM      5  C   UNL     1      35.231 -20.161 -20.713  0.00  0.00    +0.209 C 
ATOM      6  C   UNL     1      33.425 -21.153 -19.724  0.00  0.00    +0.317 C 
ENDROOT
TORSDOF 0
ENDMDL
MODEL 4
REMARK VINA RESULT:      -4.2      5.585      6.394
REMARK  Name = 7302
REMARK  0 active torsions:
REMARK  status: ('A' for Active; 'I' for Inactive)
REMARK                            x       y       z     vdW  Elec       q    Type
REMARK                         _______ _______ _______ _____ _____    ______ ____
ROOT
ATOM      1  O   UNL     1      29.436 -22.493 -17.124  0.00  0.00    -0.448 OA
ATOM      2  O   UNL     1      27.387 -23.325 -17.730  0.00  0.00    -0.250 OA
ATOM      3  C   UNL     1      30.160 -24.257 -15.787  0.00  0.00    +0.059 C 
ATOM      4  C   UNL     1      28.668 -24.389 -15.971  0.00  0.00    +0.113 C 
ATOM      5  C   UNL     1      30.407 -22.809 -16.120  0.00  0.00    +0.209 C 
ATOM      6  C   UNL     1      28.396 -23.379 -17.046  0.00  0.00    +0.317 C 
ENDROOT
TORSDOF 0
ENDMDL
MODEL 5
REMARK VINA RESULT:      -4.2      8.412      9.157
REMARK  Name = 7302
REMARK  0 active torsions:
REMARK  status: ('A' for Active; 'I' for Inactive)
REMARK                            x       y       z     vdW  Elec       q    Type
REMARK                         _______ _______ _______ _____ _____    ______ ____
ROOT
ATOM      1  O   UNL     1      37.009 -23.274 -10.642  0.00  0.00    -0.448 OA
ATOM      2  O   UNL     1      35.358 -24.557  -9.699  0.00  0.00    -0.250 OA
ATOM      3  C   UNL     1      36.305 -23.356 -12.861  0.00  0.00    +0.059 C 
ATOM      4  C   UNL     1      35.610 -24.462 -12.107  0.00  0.00    +0.113 C 
ATOM      5  C   UNL     1      37.480 -23.039 -11.973  0.00  0.00    +0.209 C 
ATOM      6  C   UNL     1      35.935 -24.121 -10.683  0.00  0.00    +0.317 C 
ENDROOT
TORSDOF 0
ENDMDL
MODEL 6
REMARK VINA RESULT:      -4.1     10.646     11.065
REMARK  Name = 7302
REMARK  0 active torsions:
REMARK  status: ('A' for Active; 'I' for Inactive)
REMARK                            x       y       z     vdW  Elec       q    Type
REMARK                         _______ _______ _______ _____ _____    ______ ____
ROOT
ATOM      1  O   UNL     1      40.931 -15.245 -16.947  0.00  0.00    -0.448 OA
ATOM      2  O   UNL     1      40.912 -15.148 -14.655  0.00  0.00    -0.250 OA
ATOM      3  C   UNL     1      42.267 -13.387 -17.375  0.00  0.00    +0.059 C 
ATOM      4  C   UNL     1      41.774 -13.293 -15.952  0.00  0.00    +0.113 C 
ATOM      5  C   UNL     1      41.288 -14.345 -18.001  0.00  0.00    +0.209 C 
ATOM      6  C   UNL     1      41.177 -14.652 -15.738  0.00  0.00    +0.317 C 
ENDROOT
TORSDOF 0
ENDMDL
MODEL 7
REMARK VINA RESULT:      -4.1      1.593      1.962
REMARK  Name = 7302
REMARK  0 active torsions:
REMARK  status: ('A' for Active; 'I' for Inactive)
REMARK                            x       y       z     vdW  Elec       q    Type
REMARK                         _______ _______ _______ _____ _____    ______ ____
ROOT
ATOM      1  O   UNL     1      35.450 -20.441 -19.927  0.00  0.00    -0.448 OA
ATOM      2  O   UNL     1      35.664 -22.231 -18.509  0.00  0.00    -0.250 OA
ATOM      3  C   UNL     1      33.131 -20.435 -20.152  0.00  0.00    +0.059 C 
ATOM      4  C   UNL     1      33.546 -21.774 -19.592  0.00  0.00    +0.113 C 
ATOM      5  C   UNL     1      34.409 -19.924 -20.764  0.00  0.00    +0.209 C 
ATOM      6  C   UNL     1      34.986 -21.536 -19.250  0.00  0.00    +0.317 C 
ENDROOT
TORSDOF 0
ENDMDL
MODEL 8
REMARK VINA RESULT:      -4.1      6.886      7.912
REMARK  Name = 7302
REMARK  0 active torsions:
REMARK  status: ('A' for Active; 'I' for Inactive)
REMARK                            x       y       z     vdW  Elec       q    Type
REMARK                         _______ _______ _______ _____ _____    ______ ____
ROOT
ATOM      1  O   UNL     1      37.877 -27.034 -14.338  0.00  0.00    -0.448 OA
ATOM      2  O   UNL     1      36.688 -27.377 -16.269  0.00  0.00    -0.250 OA
ATOM      3  C   UNL     1      36.589 -25.323 -13.422  0.00  0.00    +0.059 C 
ATOM      4  C   UNL     1      36.243 -25.439 -14.886  0.00  0.00    +0.113 C 
ATOM      5  C   UNL     1      37.930 -26.004 -13.345  0.00  0.00    +0.209 C 
ATOM      6  C   UNL     1      36.921 -26.722 -15.266  0.00  0.00    +0.317 C 
ENDROOT
TORSDOF 0
ENDMDL
MODEL 9
REMARK VINA RESULT:      -4.1      0.888      2.335
REMARK  Name = 7302
REMARK  0 active torsions:
REMARK  status: ('A' for Active; 'I' for Inactive)
REMARK                            x       y       z     vdW  Elec       q    Type
REMARK                         _______ _______ _______ _____ _____    ______ ____
ROOT
ATOM      1  O   UNL     1      32.956 -21.980 -19.243  0.00  0.00    -0.448 OA
ATOM      2  O   UNL     1      32.384 -19.990 -20.231  0.00  0.00    -0.250 OA
ATOM      3  C   UNL     1      35.268 -21.703 -19.191  0.00  0.00    +0.059 C 
ATOM      4  C   UNL     1      34.697 -20.704 -20.167  0.00  0.00    +0.113 C 
ATOM      5  C   UNL     1      34.168 -22.726 -19.084  0.00  0.00    +0.209 C 
ATOM      6  C   UNL     1      33.227 -20.807 -19.894  0.00  0.00    +0.317 C 
ENDROOT
TORSDOF 0
ENDMDL
