MODEL 1
REMARK VINA RESULT:      -5.9      0.000      0.000
REMARK  Name = 22297
REMARK  4 active torsions:
REMARK  status: ('A' for Active; 'I' for Inactive)
REMARK    1  A    between atoms: C_1  and  N_3
REMARK    2  A    between atoms: C_1  and  C_7
REMARK    3  A    between atoms: C_7  and  C_8
REMARK    4  A    between atoms: C_8  and  C_9
REMARK                            x       y       z     vdW  Elec       q    Type
REMARK                         _______ _______ _______ _____ _____    ______ ____
ROOT
ATOM      1  C   UNL     1      35.337 -18.197 -23.817  0.00  0.00    -0.062 C 
ATOM      2  C   UNL     1      34.514 -17.857 -25.060  0.00  0.00    -0.023 C 
ENDROOT
BRANCH   1   3
ATOM      3  N   UNL     1      35.613 -16.974 -23.063  0.00  0.00    +0.384 N 
ATOM      4  C   UNL     1      34.832 -15.862 -23.583  0.00  0.00    -0.106 C 
ATOM      5  H   UNL     1      36.606 -16.751 -23.139  0.00  0.00    -0.085 HD
ATOM      6  H   UNL     1      35.357 -17.126 -22.087  0.00  0.00    -0.085 HD
ENDBRANCH   1   3
BRANCH   1   7
ATOM      7  C   UNL     1      34.592 -19.223 -22.943  0.00  0.00    -0.017 C 
BRANCH   7   8
ATOM      8  C   UNL     1      34.648 -18.949 -21.433  0.00  0.00    +0.023 C 
BRANCH   8   9
ATOM      9  C   UNL     1      33.918 -19.985 -20.626  0.00  0.00    -0.035 C 
ATOM     10  C   UNL     1      34.438 -20.990 -19.894  0.00  0.00    -0.048 C 
ATOM     11  C   UNL     1      33.532 -21.925 -19.138  0.00  0.00    +0.026 C 
ATOM     12  C   UNL     1      35.901 -21.297 -19.748  0.00  0.00    +0.026 C 
ENDBRANCH   8   9
ENDBRANCH   7   8
ENDBRANCH   1   7
TORSDOF 4
ENDMDL
MODEL 2
REMARK VINA RESULT:      -5.8      2.532      5.657
REMARK  Name = 22297
REMARK  4 active torsions:
REMARK  status: ('A' for Active; 'I' for Inactive)
REMARK    1  A    between atoms: C_1  and  N_3
REMARK    2  A    between atoms: C_1  and  C_7
REMARK    3  A    between atoms: C_7  and  C_8
REMARK    4  A    between atoms: C_8  and  C_9
REMARK                            x       y       z     vdW  Elec       q    Type
REMARK                         _______ _______ _______ _____ _____    ______ ____
ROOT
ATOM      1  C   UNL     1      33.519 -21.654 -19.820  0.00  0.00    -0.062 C 
ATOM      2  C   UNL     1      34.979 -21.650 -19.365  0.00  0.00    -0.023 C 
ENDROOT
BRANCH   1   3
ATOM      3  N   UNL     1      32.666 -22.105 -18.720  0.00  0.00    +0.384 N 
ATOM      4  C   UNL     1      33.390 -23.013 -17.846  0.00  0.00    -0.106 C 
ATOM      5  H   UNL     1      31.852 -22.586 -19.103  0.00  0.00    -0.085 HD
ATOM      6  H   UNL     1      32.374 -21.291 -18.177  0.00  0.00    -0.085 HD
ENDBRANCH   1   3
BRANCH   1   7
ATOM      7  C   UNL     1      33.101 -20.252 -20.299  0.00  0.00    -0.017 C 
BRANCH   7   8
ATOM      8  C   UNL     1      34.245 -19.386 -20.843  0.00  0.00    +0.023 C 
BRANCH   8   9
ATOM      9  C   UNL     1      34.318 -19.393 -22.345  0.00  0.00    -0.035 C 
ATOM     10  C   UNL     1      34.766 -18.421 -23.163  0.00  0.00    -0.048 C 
ATOM     11  C   UNL     1      34.770 -18.626 -24.655  0.00  0.00    +0.026 C 
ATOM     12  C   UNL     1      35.283 -17.081 -22.724  0.00  0.00    +0.026 C 
ENDBRANCH   8   9
ENDBRANCH   7   8
ENDBRANCH   1   7
TORSDOF 4
ENDMDL
MODEL 3
REMARK VINA RESULT:      -5.7      1.001      1.796
REMARK  Name = 22297
REMARK  4 active torsions:
REMARK  status: ('A' for Active; 'I' for Inactive)
REMARK    1  A    between atoms: C_1  and  N_3
REMARK    2  A    between atoms: C_1  and  C_7
REMARK    3  A    between atoms: C_7  and  C_8
REMARK    4  A    between atoms: C_8  and  C_9
REMARK                            x       y       z     vdW  Elec       q    Type
REMARK                         _______ _______ _______ _____ _____    ______ ____
ROOT
ATOM      1  C   UNL     1      34.592 -16.486 -22.653  0.00  0.00    -0.062 C 
ATOM      2  C   UNL     1      34.507 -14.979 -22.406  0.00  0.00    -0.023 C 
ENDROOT
BRANCH   1   3
ATOM      3  N   UNL     1      35.512 -16.749 -23.759  0.00  0.00    +0.384 N 
ATOM      4  C   UNL     1      34.778 -17.017 -24.986  0.00  0.00    -0.106 C 
ATOM      5  H   UNL     1      36.088 -17.559 -23.530  0.00  0.00    -0.085 HD
ATOM      6  H   UNL     1      36.098 -15.926 -23.901  0.00  0.00    -0.085 HD
ENDBRANCH   1   3
BRANCH   1   7
ATOM      7  C   UNL     1      35.049 -17.214 -21.376  0.00  0.00    -0.017 C 
BRANCH   7   8
ATOM      8  C   UNL     1      35.357 -18.708 -21.557  0.00  0.00    +0.023 C 
BRANCH   8   9
ATOM      9  C   UNL     1      34.349 -19.596 -20.884  0.00  0.00    -0.035 C 
ATOM     10  C   UNL     1      34.572 -20.696 -20.138  0.00  0.00    -0.048 C 
ATOM     11  C   UNL     1      33.418 -21.450 -19.532  0.00  0.00    +0.026 C 
ATOM     12  C   UNL     1      35.920 -21.285 -19.836  0.00  0.00    +0.026 C 
ENDBRANCH   8   9
ENDBRANCH   7   8
ENDBRANCH   1   7
TORSDOF 4
ENDMDL
MODEL 4
REMARK VINA RESULT:      -5.6      1.842      5.069
REMARK  Name = 22297
REMARK  4 active torsions:
REMARK  status: ('A' for Active; 'I' for Inactive)
REMARK    1  A    between atoms: C_1  and  N_3
REMARK    2  A    between atoms: C_1  and  C_7
REMARK    3  A    between atoms: C_7  and  C_8
REMARK    4  A    between atoms: C_8  and  C_9
REMARK                            x       y       z     vdW  Elec       q    Type
REMARK                         _______ _______ _______ _____ _____    ______ ____
ROOT
ATOM      1  C   UNL     1      34.338 -19.492 -20.793  0.00  0.00    -0.062 C 
ATOM      2  C   UNL     1      33.109 -20.360 -20.520  0.00  0.00    -0.023 C 
ENDROOT
BRANCH   1   3
ATOM      3  N   UNL     1      35.518 -20.111 -20.189  0.00  0.00    +0.384 N 
ATOM      4  C   UNL     1      35.200 -21.435 -19.679  0.00  0.00    -0.106 C 
ATOM      5  H   UNL     1      35.847 -19.526 -19.420  0.00  0.00    -0.085 HD
ATOM      6  H   UNL     1      36.243 -20.200 -20.902  0.00  0.00    -0.085 HD
ENDBRANCH   1   3
BRANCH   1   7
ATOM      7  C   UNL     1      34.536 -19.300 -22.308  0.00  0.00    -0.017 C 
BRANCH   7   8
ATOM      8  C   UNL     1      35.663 -18.333 -22.697  0.00  0.00    +0.023 C 
BRANCH   8   9
ATOM      9  C   UNL     1      35.152 -16.995 -23.150  0.00  0.00    -0.035 C 
ATOM     10  C   UNL     1      34.749 -15.956 -22.393  0.00  0.00    -0.048 C 
ATOM     11  C   UNL     1      34.278 -14.681 -23.042  0.00  0.00    +0.026 C 
ATOM     12  C   UNL     1      34.710 -15.934 -20.892  0.00  0.00    +0.026 C 
ENDBRANCH   8   9
ENDBRANCH   7   8
ENDBRANCH   1   7
TORSDOF 4
ENDMDL
MODEL 5
REMARK VINA RESULT:      -5.6      1.306      1.595
REMARK  Name = 22297
REMARK  4 active torsions:
REMARK  status: ('A' for Active; 'I' for Inactive)
REMARK    1  A    between atoms: C_1  and  N_3
REMARK    2  A    between atoms: C_1  and  C_7
REMARK    3  A    between atoms: C_7  and  C_8
REMARK    4  A    between atoms: C_8  and  C_9
REMARK                            x       y       z     vdW  Elec       q    Type
REMARK                         _______ _______ _______ _____ _____    ______ ____
ROOT
ATOM      1  C   UNL     1      35.144 -16.278 -23.602  0.00  0.00    -0.062 C 
ATOM      2  C   UNL     1      34.664 -17.049 -24.833  0.00  0.00    -0.023 C 
ENDROOT
BRANCH   1   3
ATOM      3  N   UNL     1      34.321 -15.081 -23.423  0.00  0.00    +0.384 N 
ATOM      4  C   UNL     1      33.463 -14.869 -24.578  0.00  0.00    -0.106 C 
ATOM      5  H   UNL     1      34.930 -14.271 -23.304  0.00  0.00    -0.085 HD
ATOM      6  H   UNL     1      33.734 -15.208 -22.598  0.00  0.00    -0.085 HD
ENDBRANCH   1   3
BRANCH   1   7
ATOM      7  C   UNL     1      35.087 -17.174 -22.351  0.00  0.00    -0.017 C 
BRANCH   7   8
ATOM      8  C   UNL     1      34.984 -18.679 -22.637  0.00  0.00    +0.023 C 
BRANCH   8   9
ATOM      9  C   UNL     1      34.051 -19.388 -21.696  0.00  0.00    -0.035 C 
ATOM     10  C   UNL     1      34.362 -20.205 -20.671  0.00  0.00    -0.048 C 
ATOM     11  C   UNL     1      33.273 -20.814 -19.828  0.00  0.00    +0.026 C 
ATOM     12  C   UNL     1      35.752 -20.599 -20.261  0.00  0.00    +0.026 C 
ENDBRANCH   8   9
ENDBRANCH   7   8
ENDBRANCH   1   7
TORSDOF 4
ENDMDL
MODEL 6
REMARK VINA RESULT:      -5.5      1.665      2.649
REMARK  Name = 22297
REMARK  4 active torsions:
REMARK  status: ('A' for Active; 'I' for Inactive)
REMARK    1  A    between atoms: C_1  and  N_3
REMARK    2  A    between atoms: C_1  and  C_7
REMARK    3  A    between atoms: C_7  and  C_8
REMARK    4  A    between atoms: C_8  and  C_9
REMARK                            x       y       z     vdW  Elec       q    Type
REMARK                         _______ _______ _______ _____ _____    ______ ____
ROOT
ATOM      1  C   UNL     1      34.030 -16.053 -21.713  0.00  0.00    -0.062 C 
ATOM      2  C   UNL     1      33.659 -14.934 -20.739  0.00  0.00    -0.023 C 
ENDROOT
BRANCH   1   3
ATOM      3  N   UNL     1      34.628 -15.475 -22.917  0.00  0.00    +0.384 N 
ATOM      4  C   UNL     1      33.598 -14.970 -23.811  0.00  0.00    -0.106 C 
ATOM      5  H   UNL     1      35.168 -16.193 -23.400  0.00  0.00    -0.085 HD
ATOM      6  H   UNL     1      35.232 -14.700 -22.643  0.00  0.00    -0.085 HD
ENDBRANCH   1   3
BRANCH   1   7
ATOM      7  C   UNL     1      34.997 -17.048 -21.046  0.00  0.00    -0.017 C 
BRANCH   7   8
ATOM      8  C   UNL     1      35.242 -18.342 -21.835  0.00  0.00    +0.023 C 
BRANCH   8   9
ATOM      9  C   UNL     1      35.308 -19.558 -20.955  0.00  0.00    -0.035 C 
ATOM     10  C   UNL     1      34.287 -20.269 -20.436  0.00  0.00    -0.048 C 
ATOM     11  C   UNL     1      34.561 -21.477 -19.580  0.00  0.00    +0.026 C 
ATOM     12  C   UNL     1      32.828 -19.966 -20.627  0.00  0.00    +0.026 C 
ENDBRANCH   8   9
ENDBRANCH   7   8
ENDBRANCH   1   7
TORSDOF 4
ENDMDL
MODEL 7
REMARK VINA RESULT:      -5.5      2.622      5.808
REMARK  Name = 22297
REMARK  4 active torsions:
REMARK  status: ('A' for Active; 'I' for Inactive)
REMARK    1  A    between atoms: C_1  and  N_3
REMARK    2  A    between atoms: C_1  and  C_7
REMARK    3  A    between atoms: C_7  and  C_8
REMARK    4  A    between atoms: C_8  and  C_9
REMARK                            x       y       z     vdW  Elec       q    Type
REMARK                         _______ _______ _______ _____ _____    ______ ____
ROOT
ATOM      1  C   UNL     1      33.740 -21.967 -19.518  0.00  0.00    -0.062 C 
ATOM      2  C   UNL     1      35.099 -22.183 -18.850  0.00  0.00    -0.023 C 
ENDROOT
BRANCH   1   3
ATOM      3  N   UNL     1      32.673 -22.217 -18.548  0.00  0.00    +0.384 N 
ATOM      4  C   UNL     1      33.126 -23.126 -17.508  0.00  0.00    -0.106 C 
ATOM      5  H   UNL     1      31.874 -22.629 -19.029  0.00  0.00    -0.085 HD
ATOM      6  H   UNL     1      32.409 -21.331 -18.116  0.00  0.00    -0.085 HD
ENDBRANCH   1   3
BRANCH   1   7
ATOM      7  C   UNL     1      33.641 -20.540 -20.086  0.00  0.00    -0.017 C 
BRANCH   7   8
ATOM      8  C   UNL     1      34.908 -20.033 -20.789  0.00  0.00    +0.023 C 
BRANCH   8   9
ATOM      9  C   UNL     1      34.818 -18.585 -21.181  0.00  0.00    -0.035 C 
ATOM     10  C   UNL     1      34.899 -18.048 -22.414  0.00  0.00    -0.048 C 
ATOM     11  C   UNL     1      34.769 -16.560 -22.604  0.00  0.00    +0.026 C 
ATOM     12  C   UNL     1      35.123 -18.814 -23.686  0.00  0.00    +0.026 C 
ENDBRANCH   8   9
ENDBRANCH   7   8
ENDBRANCH   1   7
TORSDOF 4
ENDMDL
MODEL 8
REMARK VINA RESULT:      -5.4      3.225      6.437
REMARK  Name = 22297
REMARK  4 active torsions:
REMARK  status: ('A' for Active; 'I' for Inactive)
REMARK    1  A    between atoms: C_1  and  N_3
REMARK    2  A    between atoms: C_1  and  C_7
REMARK    3  A    between atoms: C_7  and  C_8
REMARK    4  A    between atoms: C_8  and  C_9
REMARK                            x       y       z     vdW  Elec       q    Type
REMARK                         _______ _______ _______ _____ _____    ______ ____
ROOT
ATOM      1  C   UNL     1      33.427 -23.291 -17.966  0.00  0.00    -0.062 C 
ATOM      2  C   UNL     1      34.286 -23.102 -16.715  0.00  0.00    -0.023 C 
ENDROOT
BRANCH   1   3
ATOM      3  N   UNL     1      32.182 -22.535 -17.824  0.00  0.00    +0.384 N 
ATOM      4  C   UNL     1      31.463 -22.949 -16.630  0.00  0.00    -0.106 C 
ATOM      5  H   UNL     1      31.596 -22.700 -18.643  0.00  0.00    -0.085 HD
ATOM      6  H   UNL     1      32.408 -21.544 -17.743  0.00  0.00    -0.085 HD
ENDBRANCH   1   3
BRANCH   1   7
ATOM      7  C   UNL     1      34.199 -22.842 -19.221  0.00  0.00    -0.017 C 
BRANCH   7   8
ATOM      8  C   UNL     1      35.125 -21.635 -19.014  0.00  0.00    +0.023 C 
BRANCH   8   9
ATOM      9  C   UNL     1      35.227 -20.764 -20.235  0.00  0.00    -0.035 C 
ATOM     10  C   UNL     1      34.257 -20.042 -20.828  0.00  0.00    -0.048 C 
ATOM     11  C   UNL     1      34.565 -19.214 -22.048  0.00  0.00    +0.026 C 
ATOM     12  C   UNL     1      32.824 -19.976 -20.384  0.00  0.00    +0.026 C 
ENDBRANCH   8   9
ENDBRANCH   7   8
ENDBRANCH   1   7
TORSDOF 4
ENDMDL
MODEL 9
REMARK VINA RESULT:      -5.2      4.870      8.080
REMARK  Name = 22297
REMARK  4 active torsions:
REMARK  status: ('A' for Active; 'I' for Inactive)
REMARK    1  A    between atoms: C_1  and  N_3
REMARK    2  A    between atoms: C_1  and  C_7
REMARK    3  A    between atoms: C_7  and  C_8
REMARK    4  A    between atoms: C_8  and  C_9
REMARK                            x       y       z     vdW  Elec       q    Type
REMARK                         _______ _______ _______ _____ _____    ______ ____
ROOT
ATOM      1  C   UNL     1      32.895 -23.235 -15.433  0.00  0.00    -0.062 C 
ATOM      2  C   UNL     1      31.431 -23.302 -15.871  0.00  0.00    -0.023 C 
ENDROOT
BRANCH   1   3
ATOM      3  N   UNL     1      33.142 -24.236 -14.396  0.00  0.00    +0.384 N 
ATOM      4  C   UNL     1      31.898 -24.860 -13.976  0.00  0.00    -0.106 C 
ATOM      5  H   UNL     1      33.578 -23.784 -13.592  0.00  0.00    -0.085 HD
ATOM      6  H   UNL     1      33.758 -24.956 -14.775  0.00  0.00    -0.085 HD
ENDBRANCH   1   3
BRANCH   1   7
ATOM      7  C   UNL     1      33.828 -23.454 -16.639  0.00  0.00    -0.017 C 
BRANCH   7   8
ATOM      8  C   UNL     1      33.332 -22.847 -17.959  0.00  0.00    +0.023 C 
BRANCH   8   9
ATOM      9  C   UNL     1      34.441 -22.242 -18.774  0.00  0.00    -0.035 C 
ATOM     10  C   UNL     1      34.363 -21.249 -19.681  0.00  0.00    -0.048 C 
ATOM     11  C   UNL     1      35.602 -20.769 -20.390  0.00  0.00    +0.026 C 
ATOM     12  C   UNL     1      33.105 -20.535 -20.087  0.00  0.00    +0.026 C 
ENDBRANCH   8   9
ENDBRANCH   7   8
ENDBRANCH   1   7
TORSDOF 4
ENDMDL
