MODEL 1
REMARK VINA RESULT:      -9.6      0.000      0.000
REMARK  Name = 4528
REMARK  2 active torsions:
REMARK  status: ('A' for Active; 'I' for Inactive)
REMARK    1  A    between atoms: C_2  and  C_13
REMARK    2  A    between atoms: C_7  and  N_19
REMARK                            x       y       z     vdW  Elec       q    Type
REMARK                         _______ _______ _______ _____ _____    ______ ____
ROOT
ATOM      1  N   UNL     1      34.564 -18.492 -24.143  0.00  0.00    +0.389 N 
ATOM      2  C   UNL     1      35.556 -18.279 -21.872  0.00  0.00    +0.024 C 
ATOM      3  C   UNL     1      35.763 -18.740 -23.334  0.00  0.00    -0.068 C 
ATOM      4  C   UNL     1      34.907 -16.908 -21.786  0.00  0.00    -0.025 C 
ATOM      5  C   UNL     1      34.309 -17.047 -24.249  0.00  0.00    -0.049 C 
ATOM      6  C   UNL     1      34.283 -16.342 -22.913  0.00  0.00    -0.034 C 
ATOM      7  C   UNL     1      33.688 -15.076 -22.810  0.00  0.00    +0.035 C 
ATOM      8  C   UNL     1      34.911 -16.201 -20.572  0.00  0.00    -0.004 C 
ATOM      9  C   UNL     1      34.701 -19.086 -25.473  0.00  0.00    -0.100 C 
ATOM     10  C   UNL     1      33.695 -14.386 -21.598  0.00  0.00    +0.014 C 
ATOM     11  C   UNL     1      34.306 -14.949 -20.481  0.00  0.00    +0.001 C 
ATOM     12  H   UNL     1      33.768 -18.932 -23.680  0.00  0.00    -0.079 HD
ENDROOT
BRANCH   2  13
ATOM     13  C   UNL     1      34.827 -19.341 -21.056  0.00  0.00    -0.020 C 
ATOM     14  C   UNL     1      35.557 -20.331 -20.404  0.00  0.00    -0.004 C 
ATOM     15  C   UNL     1      33.439 -19.313 -20.967  0.00  0.00    -0.004 C 
ATOM     16  C   UNL     1      34.891 -21.303 -19.657  0.00  0.00    -0.000 C 
ATOM     17  C   UNL     1      32.773 -20.283 -20.220  0.00  0.00    -0.000 C 
ATOM     18  C   UNL     1      33.499 -21.280 -19.566  0.00  0.00    -0.000 C 
ENDBRANCH   2  13
BRANCH   7  19
ATOM     19  N   UNL     1      33.063 -14.466 -23.922  0.00  0.00    -0.357 N 
ATOM     20  H   UNL     1      32.160 -14.748 -24.196  0.00  0.00    +0.142 HD
ATOM     21  H   UNL     1      33.530 -13.758 -24.423  0.00  0.00    +0.142 HD
ENDBRANCH   7  19
TORSDOF 2
ENDMDL
MODEL 2
REMARK VINA RESULT:      -8.2      7.311     11.340
REMARK  Name = 4528
REMARK  2 active torsions:
REMARK  status: ('A' for Active; 'I' for Inactive)
REMARK    1  A    between atoms: C_2  and  C_13
REMARK    2  A    between atoms: C_7  and  N_19
REMARK                            x       y       z     vdW  Elec       q    Type
REMARK                         _______ _______ _______ _____ _____    ______ ____
ROOT
ATOM      1  N   UNL     1      32.496  -8.046 -21.984  0.00  0.00    +0.389 N 
ATOM      2  C   UNL     1      34.442  -7.687 -23.491  0.00  0.00    +0.024 C 
ATOM      3  C   UNL     1      33.828  -7.438 -22.093  0.00  0.00    -0.068 C 
ATOM      4  C   UNL     1      34.274  -9.128 -23.947  0.00  0.00    -0.025 C 
ATOM      5  C   UNL     1      32.594  -9.511 -22.084  0.00  0.00    -0.049 C 
ATOM      6  C   UNL     1      33.366  -9.981 -23.295  0.00  0.00    -0.034 C 
ATOM      7  C   UNL     1      33.225 -11.305 -23.734  0.00  0.00    +0.035 C 
ATOM      8  C   UNL     1      35.016  -9.613 -25.036  0.00  0.00    -0.004 C 
ATOM      9  C   UNL     1      31.849  -7.661 -20.730  0.00  0.00    -0.100 C 
ATOM     10  C   UNL     1      33.964 -11.774 -24.820  0.00  0.00    +0.014 C 
ATOM     11  C   UNL     1      34.859 -10.928 -25.470  0.00  0.00    +0.001 C 
ATOM     12  H   UNL     1      31.923  -7.703 -22.755  0.00  0.00    -0.079 HD
ENDROOT
BRANCH   2  13
ATOM     13  C   UNL     1      33.933  -6.672 -24.508  0.00  0.00    -0.020 C 
ATOM     14  C   UNL     1      32.639  -6.173 -24.396  0.00  0.00    -0.004 C 
ATOM     15  C   UNL     1      34.765  -6.251 -25.540  0.00  0.00    -0.004 C 
ATOM     16  C   UNL     1      32.172  -5.244 -25.327  0.00  0.00    -0.000 C 
ATOM     17  C   UNL     1      34.300  -5.322 -26.470  0.00  0.00    -0.000 C 
ATOM     18  C   UNL     1      33.003  -4.819 -26.364  0.00  0.00    -0.000 C 
ENDBRANCH   2  13
BRANCH   7  19
ATOM     19  N   UNL     1      32.333 -12.199 -23.097  0.00  0.00    -0.357 N 
ATOM     20  H   UNL     1      32.215 -12.166 -22.121  0.00  0.00    +0.142 HD
ATOM     21  H   UNL     1      31.828 -12.855 -23.631  0.00  0.00    +0.142 HD
ENDBRANCH   7  19
TORSDOF 2
ENDMDL
MODEL 3
REMARK VINA RESULT:      -8.2      7.244     10.472
REMARK  Name = 4528
REMARK  2 active torsions:
REMARK  status: ('A' for Active; 'I' for Inactive)
REMARK    1  A    between atoms: C_2  and  C_13
REMARK    2  A    between atoms: C_7  and  N_19
REMARK                            x       y       z     vdW  Elec       q    Type
REMARK                         _______ _______ _______ _____ _____    ______ ____
ROOT
ATOM      1  N   UNL     1      31.408 -10.393 -22.008  0.00  0.00    +0.389 N 
ATOM      2  C   UNL     1      33.110  -8.596 -22.254  0.00  0.00    +0.024 C 
ATOM      3  C   UNL     1      32.272  -9.456 -21.279  0.00  0.00    -0.068 C 
ATOM      4  C   UNL     1      33.733  -9.426 -23.365  0.00  0.00    -0.025 C 
ATOM      5  C   UNL     1      32.223 -11.370 -22.747  0.00  0.00    -0.049 C 
ATOM      6  C   UNL     1      33.281 -10.734 -23.618  0.00  0.00    -0.034 C 
ATOM      7  C   UNL     1      33.866 -11.480 -24.651  0.00  0.00    +0.035 C 
ATOM      8  C   UNL     1      34.755  -8.883 -24.161  0.00  0.00    -0.004 C 
ATOM      9  C   UNL     1      30.493 -11.077 -21.093  0.00  0.00    -0.100 C 
ATOM     10  C   UNL     1      34.879 -10.929 -25.437  0.00  0.00    +0.014 C 
ATOM     11  C   UNL     1      35.322  -9.632 -25.192  0.00  0.00    +0.001 C 
ATOM     12  H   UNL     1      30.849  -9.860 -22.675  0.00  0.00    -0.079 HD
ENDROOT
BRANCH   2  13
ATOM     13  C   UNL     1      32.311  -7.405 -22.769  0.00  0.00    -0.020 C 
ATOM     14  C   UNL     1      32.237  -6.242 -22.008  0.00  0.00    -0.004 C 
ATOM     15  C   UNL     1      31.660  -7.488 -23.996  0.00  0.00    -0.004 C 
ATOM     16  C   UNL     1      31.506  -5.152 -22.478  0.00  0.00    -0.000 C 
ATOM     17  C   UNL     1      30.929  -6.398 -24.467  0.00  0.00    -0.000 C 
ATOM     18  C   UNL     1      30.851  -5.230 -23.708  0.00  0.00    -0.000 C 
ENDBRANCH   2  13
BRANCH   7  19
ATOM     19  N   UNL     1      33.451 -12.802 -24.929  0.00  0.00    -0.357 N 
ATOM     20  H   UNL     1      32.686 -12.963 -25.527  0.00  0.00    +0.142 HD
ATOM     21  H   UNL     1      33.927 -13.564 -24.524  0.00  0.00    +0.142 HD
ENDBRANCH   7  19
TORSDOF 2
ENDMDL
MODEL 4
REMARK VINA RESULT:      -7.8      4.166      7.059
REMARK  Name = 4528
REMARK  2 active torsions:
REMARK  status: ('A' for Active; 'I' for Inactive)
REMARK    1  A    between atoms: C_2  and  C_13
REMARK    2  A    between atoms: C_7  and  N_19
REMARK                            x       y       z     vdW  Elec       q    Type
REMARK                         _______ _______ _______ _____ _____    ______ ____
ROOT
ATOM      1  N   UNL     1      32.081 -10.604 -21.188  0.00  0.00    +0.389 N 
ATOM      2  C   UNL     1      32.260 -12.286 -23.012  0.00  0.00    +0.024 C 
ATOM      3  C   UNL     1      31.329 -11.555 -22.016  0.00  0.00    -0.068 C 
ATOM      4  C   UNL     1      33.220 -11.335 -23.708  0.00  0.00    -0.025 C 
ATOM      5  C   UNL     1      32.638  -9.529 -22.023  0.00  0.00    -0.049 C 
ATOM      6  C   UNL     1      33.423 -10.035 -23.211  0.00  0.00    -0.034 C 
ATOM      7  C   UNL     1      34.316  -9.176 -23.868  0.00  0.00    +0.035 C 
ATOM      8  C   UNL     1      33.926 -11.757 -24.847  0.00  0.00    -0.004 C 
ATOM      9  C   UNL     1      31.233 -10.047 -20.134  0.00  0.00    -0.100 C 
ATOM     10  C   UNL     1      35.015  -9.607 -24.995  0.00  0.00    +0.014 C 
ATOM     11  C   UNL     1      34.819 -10.897 -25.484  0.00  0.00    +0.001 C 
ATOM     12  H   UNL     1      32.850 -11.106 -20.744  0.00  0.00    -0.079 HD
ENDROOT
BRANCH   2  13
ATOM     13  C   UNL     1      32.958 -13.468 -22.350  0.00  0.00    -0.020 C 
ATOM     14  C   UNL     1      32.552 -13.892 -21.089  0.00  0.00    -0.004 C 
ATOM     15  C   UNL     1      33.997 -14.115 -23.012  0.00  0.00    -0.004 C 
ATOM     16  C   UNL     1      33.191 -14.974 -20.483  0.00  0.00    -0.000 C 
ATOM     17  C   UNL     1      34.635 -15.197 -22.407  0.00  0.00    -0.000 C 
ATOM     18  C   UNL     1      34.233 -15.626 -21.142  0.00  0.00    -0.000 C 
ENDBRANCH   2  13
BRANCH   7  19
ATOM     19  N   UNL     1      34.538  -7.857 -23.408  0.00  0.00    -0.357 N 
ATOM     20  H   UNL     1      35.423  -7.597 -23.065  0.00  0.00    +0.142 HD
ATOM     21  H   UNL     1      33.807  -7.197 -23.432  0.00  0.00    +0.142 HD
ENDBRANCH   7  19
TORSDOF 2
ENDMDL
MODEL 5
REMARK VINA RESULT:      -7.8      8.117     10.769
REMARK  Name = 4528
REMARK  2 active torsions:
REMARK  status: ('A' for Active; 'I' for Inactive)
REMARK    1  A    between atoms: C_2  and  C_13
REMARK    2  A    between atoms: C_7  and  N_19
REMARK                            x       y       z     vdW  Elec       q    Type
REMARK                         _______ _______ _______ _____ _____    ______ ____
ROOT
ATOM      1  N   UNL     1      33.202  -6.185 -25.171  0.00  0.00    +0.389 N 
ATOM      2  C   UNL     1      34.424  -7.542 -23.482  0.00  0.00    +0.024 C 
ATOM      3  C   UNL     1      34.531  -6.544 -24.660  0.00  0.00    -0.068 C 
ATOM      4  C   UNL     1      33.357  -7.138 -22.478  0.00  0.00    -0.025 C 
ATOM      5  C   UNL     1      32.439  -5.458 -24.145  0.00  0.00    -0.049 C 
ATOM      6  C   UNL     1      32.392  -6.171 -22.813  0.00  0.00    -0.034 C 
ATOM      7  C   UNL     1      31.414  -5.816 -21.873  0.00  0.00    +0.035 C 
ATOM      8  C   UNL     1      33.316  -7.743 -21.212  0.00  0.00    -0.004 C 
ATOM      9  C   UNL     1      33.313  -5.384 -26.390  0.00  0.00    -0.100 C 
ATOM     10  C   UNL     1      31.382  -6.427 -20.619  0.00  0.00    +0.014 C 
ATOM     11  C   UNL     1      32.333  -7.390 -20.290  0.00  0.00    +0.001 C 
ATOM     12  H   UNL     1      32.705  -7.046 -25.401  0.00  0.00    -0.079 HD
ENDROOT
BRANCH   2  13
ATOM     13  C   UNL     1      34.269  -8.974 -23.983  0.00  0.00    -0.020 C 
ATOM     14  C   UNL     1      33.269  -9.784 -23.455  0.00  0.00    -0.004 C 
ATOM     15  C   UNL     1      35.127  -9.459 -24.964  0.00  0.00    -0.004 C 
ATOM     16  C   UNL     1      33.126 -11.094 -23.913  0.00  0.00    -0.000 C 
ATOM     17  C   UNL     1      34.985 -10.768 -25.423  0.00  0.00    -0.000 C 
ATOM     18  C   UNL     1      33.984 -11.586 -24.896  0.00  0.00    -0.000 C 
ENDBRANCH   2  13
BRANCH   7  19
ATOM     19  N   UNL     1      30.435  -4.839 -22.165  0.00  0.00    -0.357 N 
ATOM     20  H   UNL     1      29.659  -4.726 -21.570  0.00  0.00    +0.142 HD
ATOM     21  H   UNL     1      30.529  -4.270 -22.963  0.00  0.00    +0.142 HD
ENDBRANCH   7  19
TORSDOF 2
ENDMDL
MODEL 6
REMARK VINA RESULT:      -7.7      3.081      6.725
REMARK  Name = 4528
REMARK  2 active torsions:
REMARK  status: ('A' for Active; 'I' for Inactive)
REMARK    1  A    between atoms: C_2  and  C_13
REMARK    2  A    between atoms: C_7  and  N_19
REMARK                            x       y       z     vdW  Elec       q    Type
REMARK                         _______ _______ _______ _____ _____    ______ ____
ROOT
ATOM      1  N   UNL     1      33.418 -14.294 -25.379  0.00  0.00    +0.389 N 
ATOM      2  C   UNL     1      32.318 -13.369 -23.349  0.00  0.00    +0.024 C 
ATOM      3  C   UNL     1      32.137 -13.868 -24.802  0.00  0.00    -0.068 C 
ATOM      4  C   UNL     1      33.201 -14.294 -22.527  0.00  0.00    -0.025 C 
ATOM      5  C   UNL     1      33.942 -15.462 -24.655  0.00  0.00    -0.049 C 
ATOM      6  C   UNL     1      33.999 -15.265 -23.158  0.00  0.00    -0.034 C 
ATOM      7  C   UNL     1      34.809 -16.105 -22.380  0.00  0.00    +0.035 C 
ATOM      8  C   UNL     1      33.238 -14.173 -21.128  0.00  0.00    -0.004 C 
ATOM      9  C   UNL     1      33.272 -14.598 -26.803  0.00  0.00    -0.100 C 
ATOM     10  C   UNL     1      34.840 -15.972 -20.991  0.00  0.00    +0.014 C 
ATOM     11  C   UNL     1      34.055 -15.007 -20.367  0.00  0.00    +0.001 C 
ATOM     12  H   UNL     1      34.082 -13.525 -25.286  0.00  0.00    -0.079 HD
ENDROOT
BRANCH   2  13
ATOM     13  C   UNL     1      32.776 -11.915 -23.317  0.00  0.00    -0.020 C 
ATOM     14  C   UNL     1      33.876 -11.521 -24.071  0.00  0.00    -0.004 C 
ATOM     15  C   UNL     1      32.089 -10.993 -22.534  0.00  0.00    -0.004 C 
ATOM     16  C   UNL     1      34.295 -10.191 -24.042  0.00  0.00    -0.000 C 
ATOM     17  C   UNL     1      32.507  -9.663 -22.505  0.00  0.00    -0.000 C 
ATOM     18  C   UNL     1      33.611  -9.262 -23.259  0.00  0.00    -0.000 C 
ENDBRANCH   2  13
BRANCH   7  19
ATOM     19  N   UNL     1      35.616 -17.103 -22.974  0.00  0.00    -0.357 N 
ATOM     20  H   UNL     1      35.199 -17.898 -23.377  0.00  0.00    +0.142 HD
ATOM     21  H   UNL     1      36.596 -17.002 -22.984  0.00  0.00    +0.142 HD
ENDBRANCH   7  19
TORSDOF 2
ENDMDL
MODEL 7
REMARK VINA RESULT:      -7.6      6.373     10.117
REMARK  Name = 4528
REMARK  2 active torsions:
REMARK  status: ('A' for Active; 'I' for Inactive)
REMARK    1  A    between atoms: C_2  and  C_13
REMARK    2  A    between atoms: C_7  and  N_19
REMARK                            x       y       z     vdW  Elec       q    Type
REMARK                         _______ _______ _______ _____ _____    ______ ____
ROOT
ATOM      1  N   UNL     1      34.165 -24.150 -14.857  0.00  0.00    +0.389 N 
ATOM      2  C   UNL     1      35.987 -22.573 -15.477  0.00  0.00    +0.024 C 
ATOM      3  C   UNL     1      34.648 -22.769 -14.726  0.00  0.00    -0.068 C 
ATOM      4  C   UNL     1      36.968 -23.702 -15.211  0.00  0.00    -0.025 C 
ATOM      5  C   UNL     1      35.094 -25.080 -14.197  0.00  0.00    -0.049 C 
ATOM      6  C   UNL     1      36.530 -24.908 -14.634  0.00  0.00    -0.034 C 
ATOM      7  C   UNL     1      37.452 -25.938 -14.401  0.00  0.00    +0.035 C 
ATOM      8  C   UNL     1      38.322 -23.555 -15.557  0.00  0.00    -0.004 C 
ATOM      9  C   UNL     1      32.820 -24.286 -14.298  0.00  0.00    -0.100 C 
ATOM     10  C   UNL     1      38.793 -25.781 -14.753  0.00  0.00    +0.014 C 
ATOM     11  C   UNL     1      39.226 -24.591 -15.330  0.00  0.00    +0.001 C 
ATOM     12  H   UNL     1      34.120 -24.380 -15.850  0.00  0.00    -0.079 HD
ENDROOT
BRANCH   2  13
ATOM     13  C   UNL     1      35.755 -22.314 -16.962  0.00  0.00    -0.020 C 
ATOM     14  C   UNL     1      34.561 -22.715 -17.554  0.00  0.00    -0.004 C 
ATOM     15  C   UNL     1      36.738 -21.680 -17.714  0.00  0.00    -0.004 C 
ATOM     16  C   UNL     1      34.349 -22.478 -18.912  0.00  0.00    -0.000 C 
ATOM     17  C   UNL     1      36.527 -21.443 -19.071  0.00  0.00    -0.000 C 
ATOM     18  C   UNL     1      35.332 -21.843 -19.671  0.00  0.00    -0.000 C 
ENDBRANCH   2  13
BRANCH   7  19
ATOM     19  N   UNL     1      37.055 -27.160 -13.811  0.00  0.00    -0.357 N 
ATOM     20  H   UNL     1      37.561 -27.984 -13.995  0.00  0.00    +0.142 HD
ATOM     21  H   UNL     1      36.272 -27.187 -13.213  0.00  0.00    +0.142 HD
ENDBRANCH   7  19
TORSDOF 2
ENDMDL
MODEL 8
REMARK VINA RESULT:      -7.6      8.323     10.552
REMARK  Name = 4528
REMARK  2 active torsions:
REMARK  status: ('A' for Active; 'I' for Inactive)
REMARK    1  A    between atoms: C_2  and  C_13
REMARK    2  A    between atoms: C_7  and  N_19
REMARK                            x       y       z     vdW  Elec       q    Type
REMARK                         _______ _______ _______ _____ _____    ______ ____
ROOT
ATOM      1  N   UNL     1      33.893  -8.177 -23.795  0.00  0.00    +0.389 N 
ATOM      2  C   UNL     1      33.058  -7.714 -21.499  0.00  0.00    +0.024 C 
ATOM      3  C   UNL     1      34.275  -8.077 -22.381  0.00  0.00    -0.068 C 
ATOM      4  C   UNL     1      32.227  -6.589 -22.096  0.00  0.00    -0.025 C 
ATOM      5  C   UNL     1      33.456  -6.865 -24.299  0.00  0.00    -0.049 C 
ATOM      6  C   UNL     1      32.397  -6.214 -23.441  0.00  0.00    -0.034 C 
ATOM      7  C   UNL     1      31.618  -5.176 -23.972  0.00  0.00    +0.035 C 
ATOM      8  C   UNL     1      31.270  -5.927 -21.310  0.00  0.00    -0.004 C 
ATOM      9  C   UNL     1      35.003  -8.690 -24.599  0.00  0.00    -0.100 C 
ATOM     10  C   UNL     1      30.667  -4.528 -23.182  0.00  0.00    +0.014 C 
ATOM     11  C   UNL     1      30.495  -4.904 -21.853  0.00  0.00    +0.001 C 
ATOM     12  H   UNL     1      33.116  -8.833 -23.872  0.00  0.00    -0.079 HD
ENDROOT
BRANCH   2  13
ATOM     13  C   UNL     1      32.235  -8.951 -21.154  0.00  0.00    -0.020 C 
ATOM     14  C   UNL     1      32.013  -9.282 -19.821  0.00  0.00    -0.004 C 
ATOM     15  C   UNL     1      31.714  -9.739 -22.175  0.00  0.00    -0.004 C 
ATOM     16  C   UNL     1      31.261 -10.414 -19.506  0.00  0.00    -0.000 C 
ATOM     17  C   UNL     1      30.961 -10.870 -21.860  0.00  0.00    -0.000 C 
ATOM     18  C   UNL     1      30.735 -11.208 -20.525  0.00  0.00    -0.000 C 
ENDBRANCH   2  13
BRANCH   7  19
ATOM     19  N   UNL     1      31.767  -4.759 -25.315  0.00  0.00    -0.357 N 
ATOM     20  H   UNL     1      32.183  -3.891 -25.518  0.00  0.00    +0.142 HD
ATOM     21  H   UNL     1      31.454  -5.338 -26.048  0.00  0.00    +0.142 HD
ENDBRANCH   7  19
TORSDOF 2
ENDMDL
MODEL 9
REMARK VINA RESULT:      -7.6      5.138      8.539
REMARK  Name = 4528
REMARK  2 active torsions:
REMARK  status: ('A' for Active; 'I' for Inactive)
REMARK    1  A    between atoms: C_2  and  C_13
REMARK    2  A    between atoms: C_7  and  N_19
REMARK                            x       y       z     vdW  Elec       q    Type
REMARK                         _______ _______ _______ _____ _____    ______ ____
ROOT
ATOM      1  N   UNL     1      35.269 -22.990 -15.635  0.00  0.00    +0.389 N 
ATOM      2  C   UNL     1      33.718 -23.514 -17.508  0.00  0.00    +0.024 C 
ATOM      3  C   UNL     1      35.027 -23.887 -16.772  0.00  0.00    -0.068 C 
ATOM      4  C   UNL     1      32.571 -23.251 -16.547  0.00  0.00    -0.025 C 
ATOM      5  C   UNL     1      34.219 -23.157 -14.619  0.00  0.00    -0.049 C 
ATOM      6  C   UNL     1      32.819 -23.046 -15.178  0.00  0.00    -0.034 C 
ATOM      7  C   UNL     1      31.745 -22.802 -14.310  0.00  0.00    +0.035 C 
ATOM      8  C   UNL     1      31.251 -23.194 -17.025  0.00  0.00    -0.004 C 
ATOM      9  C   UNL     1      36.589 -23.234 -15.052  0.00  0.00    -0.100 C 
ATOM     10  C   UNL     1      30.440 -22.743 -14.797  0.00  0.00    +0.014 C 
ATOM     11  C   UNL     1      30.194 -22.939 -16.153  0.00  0.00    +0.001 C 
ATOM     12  H   UNL     1      35.246 -22.029 -15.976  0.00  0.00    -0.079 HD
ENDROOT
BRANCH   2  13
ATOM     13  C   UNL     1      33.946 -22.378 -18.498  0.00  0.00    -0.020 C 
ATOM     14  C   UNL     1      35.242 -22.036 -18.871  0.00  0.00    -0.004 C 
ATOM     15  C   UNL     1      32.856 -21.691 -19.023  0.00  0.00    -0.004 C 
ATOM     16  C   UNL     1      35.451 -20.996 -19.777  0.00  0.00    -0.000 C 
ATOM     17  C   UNL     1      33.064 -20.652 -19.930  0.00  0.00    -0.000 C 
ATOM     18  C   UNL     1      34.362 -20.303 -20.306  0.00  0.00    -0.000 C 
ENDBRANCH   2  13
BRANCH   7  19
ATOM     19  N   UNL     1      31.951 -22.604 -12.925  0.00  0.00    -0.357 N 
ATOM     20  H   UNL     1      31.182 -22.589 -12.310  0.00  0.00    +0.142 HD
ATOM     21  H   UNL     1      32.864 -22.483 -12.574  0.00  0.00    +0.142 HD
ENDBRANCH   7  19
TORSDOF 2
ENDMDL
