MODEL 1
REMARK VINA RESULT:      -8.2      0.000      0.000
REMARK  Name = 62436
REMARK  2 active torsions:
REMARK  status: ('A' for Active; 'I' for Inactive)
REMARK    1  A    between atoms: C_1  and  N_7
REMARK    2  A    between atoms: C_1  and  C_13
REMARK                            x       y       z     vdW  Elec       q    Type
REMARK                         _______ _______ _______ _____ _____    ______ ____
ROOT
ATOM      1  C   UNL     1      32.022  -8.332 -22.777  0.00  0.00    -0.022 C 
ATOM      2  C   UNL     1      32.639  -6.973 -22.341  0.00  0.00    -0.015 C 
ATOM      3  C   UNL     1      30.665  -8.042 -23.479  0.00  0.00    -0.015 C 
ATOM      4  C   UNL     1      32.733  -5.940 -23.468  0.00  0.00    -0.002 C 
ATOM      5  C   UNL     1      30.750  -7.001 -24.598  0.00  0.00    -0.002 C 
ATOM      6  C   UNL     1      31.376  -5.700 -24.116  0.00  0.00    -0.000 C 
ENDROOT
BRANCH   1   7
ATOM      7  N   UNL     1      32.937  -8.918 -23.746  0.00  0.00    +0.392 N 
ATOM      8  C   UNL     1      32.920 -10.380 -23.718  0.00  0.00    -0.077 C 
ATOM      9  C   UNL     1      34.330  -8.550 -23.494  0.00  0.00    -0.077 C 
ATOM     10  C   UNL     1      34.177 -10.750 -24.490  0.00  0.00    -0.025 C 
ATOM     11  C   UNL     1      35.106  -9.549 -24.339  0.00  0.00    -0.025 C 
ATOM     12  H   UNL     1      32.611  -8.556 -24.643  0.00  0.00    -0.079 HD
ENDBRANCH   1   7
BRANCH   1  13
ATOM     13  C   UNL     1      31.810  -9.319 -21.611  0.00  0.00    -0.040 C 
ATOM     14  C   UNL     1      32.313  -9.014 -20.349  0.00  0.00    -0.006 C 
ATOM     15  C   UNL     1      31.119 -10.506 -21.827  0.00  0.00    -0.006 C 
ATOM     16  C   UNL     1      32.121  -9.905 -19.294  0.00  0.00    -0.000 C 
ATOM     17  C   UNL     1      30.927 -11.398 -20.771  0.00  0.00    -0.000 C 
ATOM     18  C   UNL     1      31.429 -11.097 -19.505  0.00  0.00    -0.000 C 
ENDBRANCH   1  13
TORSDOF 2
ENDMDL
MODEL 2
REMARK VINA RESULT:      -8.2      0.877      4.332
REMARK  Name = 62436
REMARK  2 active torsions:
REMARK  status: ('A' for Active; 'I' for Inactive)
REMARK    1  A    between atoms: C_1  and  N_7
REMARK    2  A    between atoms: C_1  and  C_13
REMARK                            x       y       z     vdW  Elec       q    Type
REMARK                         _______ _______ _______ _____ _____    ______ ____
ROOT
ATOM      1  C   UNL     1      31.884  -8.710 -22.128  0.00  0.00    -0.022 C 
ATOM      2  C   UNL     1      30.791  -9.782 -22.400  0.00  0.00    -0.015 C 
ATOM      3  C   UNL     1      32.024  -8.546 -20.588  0.00  0.00    -0.015 C 
ATOM      4  C   UNL     1      31.012 -11.102 -21.655  0.00  0.00    -0.002 C 
ATOM      5  C   UNL     1      32.233  -9.863 -19.836  0.00  0.00    -0.002 C 
ATOM      6  C   UNL     1      31.144 -10.878 -20.154  0.00  0.00    -0.000 C 
ENDROOT
BRANCH   1   7
ATOM      7  N   UNL     1      33.132  -9.236 -22.661  0.00  0.00    +0.392 N 
ATOM      8  C   UNL     1      33.996  -8.186 -23.200  0.00  0.00    -0.077 C 
ATOM      9  C   UNL     1      32.919 -10.160 -23.774  0.00  0.00    -0.077 C 
ATOM     10  C   UNL     1      35.010  -8.968 -24.020  0.00  0.00    -0.025 C 
ATOM     11  C   UNL     1      34.302 -10.264 -24.401  0.00  0.00    -0.025 C 
ATOM     12  H   UNL     1      33.563  -9.704 -21.863  0.00  0.00    -0.079 HD
ENDBRANCH   1   7
BRANCH   1  13
ATOM     13  C   UNL     1      31.585  -7.343 -22.777  0.00  0.00    -0.040 C 
ATOM     14  C   UNL     1      31.752  -6.177 -22.036  0.00  0.00    -0.006 C 
ATOM     15  C   UNL     1      31.149  -7.286 -24.097  0.00  0.00    -0.006 C 
ATOM     16  C   UNL     1      31.482  -4.941 -22.623  0.00  0.00    -0.000 C 
ATOM     17  C   UNL     1      30.879  -6.049 -24.683  0.00  0.00    -0.000 C 
ATOM     18  C   UNL     1      31.045  -4.876 -23.946  0.00  0.00    -0.000 C 
ENDBRANCH   1  13
TORSDOF 2
ENDMDL
MODEL 3
REMARK VINA RESULT:      -8.1      7.706      9.446
REMARK  Name = 62436
REMARK  2 active torsions:
REMARK  status: ('A' for Active; 'I' for Inactive)
REMARK    1  A    between atoms: C_1  and  N_7
REMARK    2  A    between atoms: C_1  and  C_13
REMARK                            x       y       z     vdW  Elec       q    Type
REMARK                         _______ _______ _______ _____ _____    ______ ____
ROOT
ATOM      1  C   UNL     1      34.209 -17.332 -21.408  0.00  0.00    -0.022 C 
ATOM      2  C   UNL     1      35.063 -16.090 -21.025  0.00  0.00    -0.015 C 
ATOM      3  C   UNL     1      32.803 -17.166 -20.765  0.00  0.00    -0.015 C 
ATOM      4  C   UNL     1      34.393 -14.750 -21.341  0.00  0.00    -0.002 C 
ATOM      5  C   UNL     1      32.133 -15.823 -21.068  0.00  0.00    -0.002 C 
ATOM      6  C   UNL     1      33.021 -14.647 -20.688  0.00  0.00    -0.000 C 
ENDROOT
BRANCH   1   7
ATOM      7  N   UNL     1      34.069 -17.316 -22.857  0.00  0.00    +0.392 N 
ATOM      8  C   UNL     1      34.285 -18.634 -23.453  0.00  0.00    -0.077 C 
ATOM      9  C   UNL     1      35.048 -16.443 -23.503  0.00  0.00    -0.077 C 
ATOM     10  C   UNL     1      34.476 -18.313 -24.928  0.00  0.00    -0.025 C 
ATOM     11  C   UNL     1      34.981 -16.874 -24.961  0.00  0.00    -0.025 C 
ATOM     12  H   UNL     1      33.115 -16.987 -23.009  0.00  0.00    -0.079 HD
ENDBRANCH   1   7
BRANCH   1  13
ATOM     13  C   UNL     1      34.833 -18.672 -20.967  0.00  0.00    -0.040 C 
ATOM     14  C   UNL     1      36.217 -18.811 -20.934  0.00  0.00    -0.006 C 
ATOM     15  C   UNL     1      34.007 -19.732 -20.607  0.00  0.00    -0.006 C 
ATOM     16  C   UNL     1      36.781 -20.022 -20.535  0.00  0.00    -0.000 C 
ATOM     17  C   UNL     1      34.572 -20.944 -20.208  0.00  0.00    -0.000 C 
ATOM     18  C   UNL     1      35.959 -21.089 -20.173  0.00  0.00    -0.000 C 
ENDBRANCH   1  13
TORSDOF 2
ENDMDL
MODEL 4
REMARK VINA RESULT:      -7.6     15.124     18.059
REMARK  Name = 62436
REMARK  2 active torsions:
REMARK  status: ('A' for Active; 'I' for Inactive)
REMARK    1  A    between atoms: C_1  and  N_7
REMARK    2  A    between atoms: C_1  and  C_13
REMARK                            x       y       z     vdW  Elec       q    Type
REMARK                         _______ _______ _______ _____ _____    ______ ____
ROOT
ATOM      1  C   UNL     1      36.272 -23.783 -13.925  0.00  0.00    -0.022 C 
ATOM      2  C   UNL     1      34.950 -24.009 -13.137  0.00  0.00    -0.015 C 
ATOM      3  C   UNL     1      37.188 -22.859 -13.073  0.00  0.00    -0.015 C 
ATOM      4  C   UNL     1      35.157 -24.497 -11.700  0.00  0.00    -0.002 C 
ATOM      5  C   UNL     1      37.388 -23.335 -11.632  0.00  0.00    -0.002 C 
ATOM      6  C   UNL     1      36.062 -23.555 -10.917  0.00  0.00    -0.000 C 
ENDROOT
BRANCH   1   7
ATOM      7  N   UNL     1      36.911 -25.084 -14.060  0.00  0.00    +0.392 N 
ATOM      8  C   UNL     1      38.296 -24.983 -14.517  0.00  0.00    -0.077 C 
ATOM      9  C   UNL     1      36.246 -25.933 -15.048  0.00  0.00    -0.077 C 
ATOM     10  C   UNL     1      38.617 -26.405 -14.948  0.00  0.00    -0.025 C 
ATOM     11  C   UNL     1      37.270 -27.030 -15.301  0.00  0.00    -0.025 C 
ATOM     12  H   UNL     1      36.853 -25.485 -13.123  0.00  0.00    -0.079 HD
ENDBRANCH   1   7
BRANCH   1  13
ATOM     13  C   UNL     1      36.061 -23.168 -15.323  0.00  0.00    -0.040 C 
ATOM     14  C   UNL     1      37.091 -22.451 -15.924  0.00  0.00    -0.006 C 
ATOM     15  C   UNL     1      34.843 -23.334 -15.974  0.00  0.00    -0.006 C 
ATOM     16  C   UNL     1      36.901 -21.895 -17.189  0.00  0.00    -0.000 C 
ATOM     17  C   UNL     1      34.652 -22.778 -17.239  0.00  0.00    -0.000 C 
ATOM     18  C   UNL     1      35.681 -22.058 -17.847  0.00  0.00    -0.000 C 
ENDBRANCH   1  13
TORSDOF 2
ENDMDL
MODEL 5
REMARK VINA RESULT:      -7.5      1.068      4.655
REMARK  Name = 62436
REMARK  2 active torsions:
REMARK  status: ('A' for Active; 'I' for Inactive)
REMARK    1  A    between atoms: C_1  and  N_7
REMARK    2  A    between atoms: C_1  and  C_13
REMARK                            x       y       z     vdW  Elec       q    Type
REMARK                         _______ _______ _______ _____ _____    ______ ____
ROOT
ATOM      1  C   UNL     1      32.215  -9.674 -22.129  0.00  0.00    -0.022 C 
ATOM      2  C   UNL     1      32.806  -9.338 -20.730  0.00  0.00    -0.015 C 
ATOM      3  C   UNL     1      31.410 -10.999 -22.006  0.00  0.00    -0.015 C 
ATOM      4  C   UNL     1      31.771  -9.331 -19.601  0.00  0.00    -0.002 C 
ATOM      5  C   UNL     1      30.382 -11.001 -20.871  0.00  0.00    -0.002 C 
ATOM      6  C   UNL     1      31.015 -10.651 -19.532  0.00  0.00    -0.000 C 
ENDROOT
BRANCH   1   7
ATOM      7  N   UNL     1      31.298  -8.595 -22.469  0.00  0.00    +0.392 N 
ATOM      8  C   UNL     1      31.199  -8.380 -23.912  0.00  0.00    -0.077 C 
ATOM      9  C   UNL     1      31.723  -7.307 -21.921  0.00  0.00    -0.077 C 
ATOM     10  C   UNL     1      30.532  -7.016 -24.007  0.00  0.00    -0.025 C 
ATOM     11  C   UNL     1      30.879  -6.310 -22.700  0.00  0.00    -0.025 C 
ATOM     12  H   UNL     1      30.407  -8.895 -22.072  0.00  0.00    -0.079 HD
ENDBRANCH   1   7
BRANCH   1  13
ATOM     13  C   UNL     1      33.281  -9.808 -23.236  0.00  0.00    -0.040 C 
ATOM     14  C   UNL     1      33.360 -10.982 -23.979  0.00  0.00    -0.006 C 
ATOM     15  C   UNL     1      34.156  -8.755 -23.483  0.00  0.00    -0.006 C 
ATOM     16  C   UNL     1      34.324 -11.104 -24.979  0.00  0.00    -0.000 C 
ATOM     17  C   UNL     1      35.120  -8.877 -24.484  0.00  0.00    -0.000 C 
ATOM     18  C   UNL     1      35.204 -10.052 -25.232  0.00  0.00    -0.000 C 
ENDBRANCH   1  13
TORSDOF 2
ENDMDL
MODEL 6
REMARK VINA RESULT:      -7.4      0.942      1.444
REMARK  Name = 62436
REMARK  2 active torsions:
REMARK  status: ('A' for Active; 'I' for Inactive)
REMARK    1  A    between atoms: C_1  and  N_7
REMARK    2  A    between atoms: C_1  and  C_13
REMARK                            x       y       z     vdW  Elec       q    Type
REMARK                         _______ _______ _______ _____ _____    ______ ____
ROOT
ATOM      1  C   UNL     1      31.984  -8.091 -22.137  0.00  0.00    -0.022 C 
ATOM      2  C   UNL     1      31.753  -6.728 -21.424  0.00  0.00    -0.015 C 
ATOM      3  C   UNL     1      31.003  -8.177 -23.340  0.00  0.00    -0.015 C 
ATOM      4  C   UNL     1      31.813  -5.517 -22.360  0.00  0.00    -0.002 C 
ATOM      5  C   UNL     1      31.050  -6.963 -24.272  0.00  0.00    -0.002 C 
ATOM      6  C   UNL     1      30.834  -5.659 -23.518  0.00  0.00    -0.000 C 
ENDROOT
BRANCH   1   7
ATOM      7  N   UNL     1      33.349  -8.076 -22.642  0.00  0.00    +0.392 N 
ATOM      8  C   UNL     1      33.625  -6.903 -23.471  0.00  0.00    -0.077 C 
ATOM      9  C   UNL     1      33.640  -9.224 -23.499  0.00  0.00    -0.077 C 
ATOM     10  C   UNL     1      34.917  -7.284 -24.179  0.00  0.00    -0.025 C 
ATOM     11  C   UNL     1      34.925  -8.810 -24.201  0.00  0.00    -0.025 C 
ATOM     12  H   UNL     1      33.924  -8.083 -21.798  0.00  0.00    -0.079 HD
ENDBRANCH   1   7
BRANCH   1  13
ATOM     13  C   UNL     1      31.791  -9.312 -21.214  0.00  0.00    -0.040 C 
ATOM     14  C   UNL     1      32.092  -9.207 -19.859  0.00  0.00    -0.006 C 
ATOM     15  C   UNL     1      31.319 -10.509 -21.742  0.00  0.00    -0.006 C 
ATOM     16  C   UNL     1      31.918 -10.310 -19.025  0.00  0.00    -0.000 C 
ATOM     17  C   UNL     1      31.145 -11.613 -20.907  0.00  0.00    -0.000 C 
ATOM     18  C   UNL     1      31.445 -11.513 -19.548  0.00  0.00    -0.000 C 
ENDBRANCH   1  13
TORSDOF 2
ENDMDL
MODEL 7
REMARK VINA RESULT:      -7.4      7.644     10.069
REMARK  Name = 62436
REMARK  2 active torsions:
REMARK  status: ('A' for Active; 'I' for Inactive)
REMARK    1  A    between atoms: C_1  and  N_7
REMARK    2  A    between atoms: C_1  and  C_13
REMARK                            x       y       z     vdW  Elec       q    Type
REMARK                         _______ _______ _______ _____ _____    ______ ____
ROOT
ATOM      1  C   UNL     1      34.765 -18.152 -21.368  0.00  0.00    -0.022 C 
ATOM      2  C   UNL     1      33.898 -19.365 -20.925  0.00  0.00    -0.015 C 
ATOM      3  C   UNL     1      36.112 -18.214 -20.593  0.00  0.00    -0.015 C 
ATOM      4  C   UNL     1      34.614 -20.715 -21.034  0.00  0.00    -0.002 C 
ATOM      5  C   UNL     1      36.825 -19.565 -20.688  0.00  0.00    -0.002 C 
ATOM      6  C   UNL     1      35.924 -20.714 -20.259  0.00  0.00    -0.000 C 
ENDROOT
BRANCH   1   7
ATOM      7  N   UNL     1      35.031 -18.321 -22.790  0.00  0.00    +0.392 N 
ATOM      8  C   UNL     1      34.969 -17.058 -23.524  0.00  0.00    -0.077 C 
ATOM      9  C   UNL     1      34.051 -19.189 -23.442  0.00  0.00    -0.077 C 
ATOM     10  C   UNL     1      34.886 -17.511 -24.973  0.00  0.00    -0.025 C 
ATOM     11  C   UNL     1      34.280 -18.910 -24.921  0.00  0.00    -0.025 C 
ATOM     12  H   UNL     1      35.968 -18.726 -22.818  0.00  0.00    -0.079 HD
ENDBRANCH   1   7
BRANCH   1  13
ATOM     13  C   UNL     1      34.086 -16.788 -21.132  0.00  0.00    -0.040 C 
ATOM     14  C   UNL     1      32.706 -16.724 -20.966  0.00  0.00    -0.006 C 
ATOM     15  C   UNL     1      34.857 -15.631 -21.088  0.00  0.00    -0.006 C 
ATOM     16  C   UNL     1      32.091 -15.491 -20.752  0.00  0.00    -0.000 C 
ATOM     17  C   UNL     1      34.242 -14.397 -20.875  0.00  0.00    -0.000 C 
ATOM     18  C   UNL     1      32.858 -14.327 -20.707  0.00  0.00    -0.000 C 
ENDBRANCH   1  13
TORSDOF 2
ENDMDL
MODEL 8
REMARK VINA RESULT:      -7.3      1.068      3.925
REMARK  Name = 62436
REMARK  2 active torsions:
REMARK  status: ('A' for Active; 'I' for Inactive)
REMARK    1  A    between atoms: C_1  and  N_7
REMARK    2  A    between atoms: C_1  and  C_13
REMARK                            x       y       z     vdW  Elec       q    Type
REMARK                         _______ _______ _______ _____ _____    ______ ____
ROOT
ATOM      1  C   UNL     1      32.244  -8.200 -22.807  0.00  0.00    -0.022 C 
ATOM      2  C   UNL     1      31.143  -7.546 -23.690  0.00  0.00    -0.015 C 
ATOM      3  C   UNL     1      33.063  -7.060 -22.137  0.00  0.00    -0.015 C 
ATOM      4  C   UNL     1      30.281  -6.517 -22.952  0.00  0.00    -0.002 C 
ATOM      5  C   UNL     1      32.206  -6.022 -21.408  0.00  0.00    -0.002 C 
ATOM      6  C   UNL     1      31.137  -5.430 -22.316  0.00  0.00    -0.000 C 
ENDROOT
BRANCH   1   7
ATOM      7  N   UNL     1      31.558  -8.959 -21.772  0.00  0.00    +0.392 N 
ATOM      8  C   UNL     1      32.409  -9.215 -20.611  0.00  0.00    -0.077 C 
ATOM      9  C   UNL     1      31.139 -10.282 -22.235  0.00  0.00    -0.077 C 
ATOM     10  C   UNL     1      31.654 -10.309 -19.870  0.00  0.00    -0.025 C 
ATOM     11  C   UNL     1      30.822 -11.012 -20.938  0.00  0.00    -0.025 C 
ATOM     12  H   UNL     1      30.757  -8.376 -21.529  0.00  0.00    -0.079 HD
ENDBRANCH   1   7
BRANCH   1  13
ATOM     13  C   UNL     1      33.189  -9.135 -23.589  0.00  0.00    -0.040 C 
ATOM     14  C   UNL     1      34.481  -8.716 -23.891  0.00  0.00    -0.006 C 
ATOM     15  C   UNL     1      32.743 -10.391 -23.987  0.00  0.00    -0.006 C 
ATOM     16  C   UNL     1      35.336  -9.561 -24.597  0.00  0.00    -0.000 C 
ATOM     17  C   UNL     1      33.599 -11.237 -24.694  0.00  0.00    -0.000 C 
ATOM     18  C   UNL     1      34.895 -10.822 -24.999  0.00  0.00    -0.000 C 
ENDBRANCH   1  13
TORSDOF 2
ENDMDL
MODEL 9
REMARK VINA RESULT:      -7.1      1.580      3.410
REMARK  Name = 62436
REMARK  2 active torsions:
REMARK  status: ('A' for Active; 'I' for Inactive)
REMARK    1  A    between atoms: C_1  and  N_7
REMARK    2  A    between atoms: C_1  and  C_13
REMARK                            x       y       z     vdW  Elec       q    Type
REMARK                         _______ _______ _______ _____ _____    ______ ____
ROOT
ATOM      1  C   UNL     1      32.833  -7.996 -23.526  0.00  0.00    -0.022 C 
ATOM      2  C   UNL     1      31.776  -7.347 -24.465  0.00  0.00    -0.015 C 
ATOM      3  C   UNL     1      34.222  -7.887 -24.218  0.00  0.00    -0.015 C 
ATOM      4  C   UNL     1      32.131  -5.928 -24.918  0.00  0.00    -0.002 C 
ATOM      5  C   UNL     1      34.577  -6.472 -24.685  0.00  0.00    -0.002 C 
ATOM      6  C   UNL     1      33.500  -5.884 -25.585  0.00  0.00    -0.000 C 
ENDROOT
BRANCH   1   7
ATOM      7  N   UNL     1      32.853  -7.206 -22.304  0.00  0.00    +0.392 N 
ATOM      8  C   UNL     1      33.196  -8.005 -21.128  0.00  0.00    -0.077 C 
ATOM      9  C   UNL     1      31.549  -6.619 -21.997  0.00  0.00    -0.077 C 
ATOM     10  C   UNL     1      32.784  -7.105 -19.973  0.00  0.00    -0.025 C 
ATOM     11  C   UNL     1      31.699  -6.196 -20.543  0.00  0.00    -0.025 C 
ATOM     12  H   UNL     1      33.554  -6.487 -22.486  0.00  0.00    -0.079 HD
ENDBRANCH   1   7
BRANCH   1  13
ATOM     13  C   UNL     1      32.533  -9.469 -23.181  0.00  0.00    -0.040 C 
ATOM     14  C   UNL     1      31.409  -9.784 -22.424  0.00  0.00    -0.006 C 
ATOM     15  C   UNL     1      33.388 -10.471 -23.628  0.00  0.00    -0.006 C 
ATOM     16  C   UNL     1      31.137 -11.116 -22.111  0.00  0.00    -0.000 C 
ATOM     17  C   UNL     1      33.115 -11.803 -23.316  0.00  0.00    -0.000 C 
ATOM     18  C   UNL     1      31.990 -12.125 -22.557  0.00  0.00    -0.000 C 
ENDBRANCH   1  13
TORSDOF 2
ENDMDL
