MODEL 1
REMARK VINA RESULT:     -11.3      0.000      0.000
REMARK  Name = 11667893
REMARK  4 active torsions:
REMARK  status: ('A' for Active; 'I' for Inactive)
REMARK    1  A    between atoms: N_2  and  C_14
REMARK    2  A    between atoms: C_3  and  C_18
REMARK    3  A    between atoms: N_23  and  C_25
REMARK    4  A    between atoms: C_25  and  C_27
REMARK                            x       y       z     vdW  Elec       q    Type
REMARK                         _______ _______ _______ _____ _____    ______ ____
ROOT
ATOM      1  O   UNL     1      37.211 -21.412 -15.921  0.00  0.00    -0.270 OA
ATOM      2  N   UNL     1      35.971 -22.808 -17.349  0.00  0.00    -0.280 N 
ATOM      3  C   UNL     1      36.725 -22.500 -16.209  0.00  0.00    +0.252 C 
ATOM      4  H   UNL     1      35.657 -23.738 -17.420  0.00  0.00    +0.155 HD
ENDROOT
BRANCH   2  14
ATOM      5  N   UNL     1      32.647 -20.603 -20.184  0.00  0.00    -0.333 N 
ATOM      6  C   UNL     1      34.274 -19.360 -21.493  0.00  0.00    +0.038 C 
ATOM      7  C   UNL     1      32.798 -19.865 -21.433  0.00  0.00    +0.091 C 
ATOM      8  C   UNL     1      34.921 -20.256 -20.465  0.00  0.00    -0.008 C 
ATOM      9  C   UNL     1      33.928 -20.945 -19.760  0.00  0.00    +0.042 C 
ATOM     10  C   UNL     1      34.864 -19.546 -22.892  0.00  0.00    +0.006 C 
ATOM     11  C   UNL     1      34.370 -17.892 -21.060  0.00  0.00    +0.006 C 
ATOM     12  C   UNL     1      36.263 -20.420 -20.159  0.00  0.00    -0.002 C 
ATOM     13  C   UNL     1      34.259 -21.782 -18.708  0.00  0.00    +0.029 C 
ATOM     14  C   UNL     1      35.609 -21.959 -18.395  0.00  0.00    +0.052 C 
ATOM     15  C   UNL     1      36.604 -21.285 -19.118  0.00  0.00    +0.014 C 
ATOM     16  H   UNL     1      31.801 -20.818 -19.729  0.00  0.00    +0.147 HD
ENDBRANCH   2  14
BRANCH   3  18
ATOM     17  N   UNL     1      36.196 -25.112 -13.566  0.00  0.00    -0.229 NA
ATOM     18  C   UNL     1      36.969 -23.635 -15.281  0.00  0.00    +0.085 C 
ATOM     19  C   UNL     1      36.002 -24.084 -14.421  0.00  0.00    +0.133 C 
ATOM     20  C   UNL     1      38.206 -24.237 -15.299  0.00  0.00    +0.009 C 
ATOM     21  C   UNL     1      38.443 -25.300 -14.434  0.00  0.00    +0.021 C 
ATOM     22  C   UNL     1      37.415 -25.695 -13.595  0.00  0.00    +0.100 C 
ATOM     23  N   UNL     1      34.732 -23.452 -14.415  0.00  0.00    -0.314 N 
ATOM     24  H   UNL     1      34.576 -22.701 -15.033  0.00  0.00    +0.149 HD
BRANCH  23  25
ATOM     25  C   UNL     1      33.674 -23.860 -13.551  0.00  0.00    +0.115 C 
BRANCH  25  27
ATOM     26  N   UNL     1      30.004 -24.456 -15.684  0.00  0.00    -0.242 NA
ATOM     27  C   UNL     1      32.388 -24.069 -14.298  0.00  0.00    +0.000 C 
ATOM     28  C   UNL     1      32.096 -23.279 -15.398  0.00  0.00    +0.018 C 
ATOM     29  C   UNL     1      31.503 -25.050 -13.883  0.00  0.00    +0.018 C 
ATOM     30  C   UNL     1      30.898 -23.511 -16.053  0.00  0.00    +0.099 C 
ATOM     31  C   UNL     1      30.330 -25.203 -14.606  0.00  0.00    +0.099 C 
ENDBRANCH  25  27
ENDBRANCH  23  25
ENDBRANCH   3  18
TORSDOF 4
ENDMDL
MODEL 2
REMARK VINA RESULT:     -11.1      6.018     10.340
REMARK  Name = 11667893
REMARK  4 active torsions:
REMARK  status: ('A' for Active; 'I' for Inactive)
REMARK    1  A    between atoms: N_2  and  C_14
REMARK    2  A    between atoms: C_3  and  C_18
REMARK    3  A    between atoms: N_23  and  C_25
REMARK    4  A    between atoms: C_25  and  C_27
REMARK                            x       y       z     vdW  Elec       q    Type
REMARK                         _______ _______ _______ _____ _____    ______ ____
ROOT
ATOM      1  O   UNL     1      34.944 -15.150 -22.073  0.00  0.00    -0.270 OA
ATOM      2  N   UNL     1      33.536 -14.441 -23.815  0.00  0.00    -0.280 N 
ATOM      3  C   UNL     1      34.349 -15.350 -23.126  0.00  0.00    +0.252 C 
ATOM      4  H   UNL     1      33.133 -14.771 -24.651  0.00  0.00    +0.155 HD
ENDROOT
BRANCH   2  14
ATOM      5  N   UNL     1      34.177  -9.601 -24.156  0.00  0.00    -0.333 N 
ATOM      6  C   UNL     1      32.399  -9.041 -22.598  0.00  0.00    +0.038 C 
ATOM      7  C   UNL     1      33.674  -8.512 -23.326  0.00  0.00    +0.091 C 
ATOM      8  C   UNL     1      32.577 -10.531 -22.760  0.00  0.00    -0.008 C 
ATOM      9  C   UNL     1      33.620 -10.777 -23.659  0.00  0.00    +0.042 C 
ATOM     10  C   UNL     1      32.381  -8.606 -21.131  0.00  0.00    +0.006 C 
ATOM     11  C   UNL     1      31.125  -8.572 -23.313  0.00  0.00    +0.006 C 
ATOM     12  C   UNL     1      31.859 -11.571 -22.191  0.00  0.00    -0.002 C 
ATOM     13  C   UNL     1      33.939 -12.070 -24.036  0.00  0.00    +0.029 C 
ATOM     14  C   UNL     1      33.225 -13.127 -23.464  0.00  0.00    +0.052 C 
ATOM     15  C   UNL     1      32.195 -12.878 -22.545  0.00  0.00    +0.014 C 
ATOM     16  H   UNL     1      34.793  -9.521 -24.920  0.00  0.00    +0.147 HD
ENDBRANCH   2  14
BRANCH   3  18
ATOM     17  N   UNL     1      35.191 -18.968 -23.658  0.00  0.00    -0.229 NA
ATOM     18  C   UNL     1      34.512 -16.678 -23.773  0.00  0.00    +0.085 C 
ATOM     19  C   UNL     1      35.030 -17.750 -23.096  0.00  0.00    +0.133 C 
ATOM     20  C   UNL     1      34.127 -16.814 -25.086  0.00  0.00    +0.009 C 
ATOM     21  C   UNL     1      34.275 -18.053 -25.700  0.00  0.00    +0.021 C 
ATOM     22  C   UNL     1      34.807 -19.088 -24.949  0.00  0.00    +0.100 C 
ATOM     23  N   UNL     1      35.422 -17.592 -21.742  0.00  0.00    -0.314 N 
ATOM     24  H   UNL     1      35.311 -16.711 -21.318  0.00  0.00    +0.149 HD
BRANCH  23  25
ATOM     25  C   UNL     1      35.969 -18.659 -20.971  0.00  0.00    +0.115 C 
BRANCH  25  27
ATOM     26  N   UNL     1      32.978 -21.505 -19.819  0.00  0.00    -0.242 NA
ATOM     27  C   UNL     1      34.921 -19.656 -20.568  0.00  0.00    +0.000 C 
ATOM     28  C   UNL     1      35.299 -20.847 -19.970  0.00  0.00    +0.018 C 
ATOM     29  C   UNL     1      33.584 -19.378 -20.796  0.00  0.00    +0.018 C 
ATOM     30  C   UNL     1      34.294 -21.733 -19.616  0.00  0.00    +0.099 C 
ATOM     31  C   UNL     1      32.655 -20.330 -20.405  0.00  0.00    +0.099 C 
ENDBRANCH  25  27
ENDBRANCH  23  25
ENDBRANCH   3  18
TORSDOF 4
ENDMDL
MODEL 3
REMARK VINA RESULT:     -10.7      1.819      4.708
REMARK  Name = 11667893
REMARK  4 active torsions:
REMARK  status: ('A' for Active; 'I' for Inactive)
REMARK    1  A    between atoms: N_2  and  C_14
REMARK    2  A    between atoms: C_3  and  C_18
REMARK    3  A    between atoms: N_23  and  C_25
REMARK    4  A    between atoms: C_25  and  C_27
REMARK                            x       y       z     vdW  Elec       q    Type
REMARK                         _______ _______ _______ _____ _____    ______ ____
ROOT
ATOM      1  O   UNL     1      34.168 -23.539 -18.816  0.00  0.00    -0.270 OA
ATOM      2  N   UNL     1      33.119 -21.453 -18.552  0.00  0.00    -0.280 N 
ATOM      3  C   UNL     1      33.441 -22.770 -18.199  0.00  0.00    +0.252 C 
ATOM      4  H   UNL     1      32.517 -20.976 -17.936  0.00  0.00    +0.155 HD
ENDROOT
BRANCH   2  14
ATOM      5  N   UNL     1      36.616 -19.520 -21.379  0.00  0.00    -0.333 N 
ATOM      6  C   UNL     1      35.080 -18.635 -23.041  0.00  0.00    +0.038 C 
ATOM      7  C   UNL     1      36.534 -18.563 -22.477  0.00  0.00    +0.091 C 
ATOM      8  C   UNL     1      34.366 -19.317 -21.900  0.00  0.00    -0.008 C 
ATOM      9  C   UNL     1      35.309 -19.790 -20.981  0.00  0.00    +0.042 C 
ATOM     10  C   UNL     1      34.531 -17.237 -23.329  0.00  0.00    +0.006 C 
ATOM     11  C   UNL     1      35.025 -19.505 -24.304  0.00  0.00    +0.006 C 
ATOM     12  C   UNL     1      33.010 -19.529 -21.710  0.00  0.00    -0.002 C 
ATOM     13  C   UNL     1      34.912 -20.519 -19.872  0.00  0.00    +0.029 C 
ATOM     14  C   UNL     1      33.547 -20.734 -19.668  0.00  0.00    +0.052 C 
ATOM     15  C   UNL     1      32.602 -20.239 -20.580  0.00  0.00    +0.014 C 
ATOM     16  H   UNL     1      37.437 -19.902 -20.993  0.00  0.00    +0.147 HD
ENDBRANCH   2  14
BRANCH   3  18
ATOM     17  N   UNL     1      32.962 -23.920 -14.658  0.00  0.00    -0.229 NA
ATOM     18  C   UNL     1      32.800 -23.271 -16.954  0.00  0.00    +0.085 C 
ATOM     19  C   UNL     1      33.517 -23.465 -15.804  0.00  0.00    +0.133 C 
ATOM     20  C   UNL     1      31.452 -23.541 -16.979  0.00  0.00    +0.009 C 
ATOM     21  C   UNL     1      30.844 -24.009 -15.819  0.00  0.00    +0.021 C 
ATOM     22  C   UNL     1      31.636 -24.181 -14.696  0.00  0.00    +0.100 C 
ATOM     23  N   UNL     1      34.907 -23.181 -15.795  0.00  0.00    -0.314 N 
ATOM     24  H   UNL     1      35.325 -22.849 -16.622  0.00  0.00    +0.149 HD
BRANCH  23  25
ATOM     25  C   UNL     1      35.721 -23.357 -14.638  0.00  0.00    +0.115 C 
BRANCH  25  27
ATOM     26  N   UNL     1      38.253 -26.800 -14.965  0.00  0.00    -0.242 NA
ATOM     27  C   UNL     1      36.608 -24.563 -14.753  0.00  0.00    +0.000 C 
ATOM     28  C   UNL     1      37.969 -24.440 -14.526  0.00  0.00    +0.018 C 
ATOM     29  C   UNL     1      36.059 -25.791 -15.083  0.00  0.00    +0.018 C 
ATOM     30  C   UNL     1      38.744 -25.582 -14.644  0.00  0.00    +0.099 C 
ATOM     31  C   UNL     1      36.920 -26.874 -15.177  0.00  0.00    +0.099 C 
ENDBRANCH  25  27
ENDBRANCH  23  25
ENDBRANCH   3  18
TORSDOF 4
ENDMDL
MODEL 4
REMARK VINA RESULT:     -10.5      7.379     12.828
REMARK  Name = 11667893
REMARK  4 active torsions:
REMARK  status: ('A' for Active; 'I' for Inactive)
REMARK    1  A    between atoms: N_2  and  C_14
REMARK    2  A    between atoms: C_3  and  C_18
REMARK    3  A    between atoms: N_23  and  C_25
REMARK    4  A    between atoms: C_25  and  C_27
REMARK                            x       y       z     vdW  Elec       q    Type
REMARK                         _______ _______ _______ _____ _____    ______ ____
ROOT
ATOM      1  O   UNL     1      33.163 -13.531 -25.104  0.00  0.00    -0.270 OA
ATOM      2  N   UNL     1      34.501 -13.511 -23.171  0.00  0.00    -0.280 N 
ATOM      3  C   UNL     1      33.841 -12.943 -24.269  0.00  0.00    +0.252 C 
ATOM      4  H   UNL     1      35.003 -12.887 -22.600  0.00  0.00    +0.155 HD
ENDROOT
BRANCH   2  14
ATOM      5  N   UNL     1      35.373 -18.246 -24.051  0.00  0.00    -0.333 N 
ATOM      6  C   UNL     1      34.782 -18.990 -21.814  0.00  0.00    +0.038 C 
ATOM      7  C   UNL     1      35.015 -19.439 -23.292  0.00  0.00    +0.091 C 
ATOM      8  C   UNL     1      34.603 -17.502 -21.995  0.00  0.00    -0.008 C 
ATOM      9  C   UNL     1      34.950 -17.150 -23.303  0.00  0.00    +0.042 C 
ATOM     10  C   UNL     1      33.544 -19.665 -21.221  0.00  0.00    +0.006 C 
ATOM     11  C   UNL     1      36.017 -19.280 -20.952  0.00  0.00    +0.006 C 
ATOM     12  C   UNL     1      34.202 -16.545 -21.076  0.00  0.00    -0.002 C 
ATOM     13  C   UNL     1      34.940 -15.825 -23.705  0.00  0.00    +0.029 C 
ATOM     14  C   UNL     1      34.533 -14.852 -22.788  0.00  0.00    +0.052 C 
ATOM     15  C   UNL     1      34.163 -15.211 -21.484  0.00  0.00    +0.014 C 
ATOM     16  H   UNL     1      35.826 -18.220 -24.924  0.00  0.00    +0.147 HD
ENDBRANCH   2  14
BRANCH   3  18
ATOM     17  N   UNL     1      33.296  -9.240 -23.985  0.00  0.00    -0.229 NA
ATOM     18  C   UNL     1      34.019 -11.476 -24.430  0.00  0.00    +0.085 C 
ATOM     19  C   UNL     1      33.159 -10.578 -23.855  0.00  0.00    +0.133 C 
ATOM     20  C   UNL     1      35.081 -11.028 -25.182  0.00  0.00    +0.009 C 
ATOM     21  C   UNL     1      35.256  -9.657 -25.337  0.00  0.00    +0.021 C 
ATOM     22  C   UNL     1      34.344  -8.813 -24.725  0.00  0.00    +0.100 C 
ATOM     23  N   UNL     1      32.070 -11.058 -23.083  0.00  0.00    -0.314 N 
ATOM     24  H   UNL     1      31.958 -12.030 -22.979  0.00  0.00    +0.149 HD
BRANCH  23  25
ATOM     25  C   UNL     1      31.133 -10.188 -22.453  0.00  0.00    +0.115 C 
BRANCH  25  27
ATOM     26  N   UNL     1      31.877  -9.809 -18.249  0.00  0.00    -0.242 NA
ATOM     27  C   UNL     1      31.393 -10.055 -20.980  0.00  0.00    +0.000 C 
ATOM     28  C   UNL     1      31.051 -11.089 -20.125  0.00  0.00    +0.018 C 
ATOM     29  C   UNL     1      31.975  -8.899 -20.486  0.00  0.00    +0.018 C 
ATOM     30  C   UNL     1      31.312 -10.918 -18.775  0.00  0.00    +0.099 C 
ATOM     31  C   UNL     1      32.195  -8.826 -19.120  0.00  0.00    +0.099 C 
ENDBRANCH  25  27
ENDBRANCH  23  25
ENDBRANCH   3  18
TORSDOF 4
ENDMDL
MODEL 5
REMARK VINA RESULT:     -10.4      2.062      6.156
REMARK  Name = 11667893
REMARK  4 active torsions:
REMARK  status: ('A' for Active; 'I' for Inactive)
REMARK    1  A    between atoms: N_2  and  C_14
REMARK    2  A    between atoms: C_3  and  C_18
REMARK    3  A    between atoms: N_23  and  C_25
REMARK    4  A    between atoms: C_25  and  C_27
REMARK                            x       y       z     vdW  Elec       q    Type
REMARK                         _______ _______ _______ _____ _____    ______ ____
ROOT
ATOM      1  O   UNL     1      34.358 -23.937 -12.477  0.00  0.00    -0.270 OA
ATOM      2  N   UNL     1      34.223 -24.344 -14.788  0.00  0.00    -0.280 N 
ATOM      3  C   UNL     1      34.871 -24.235 -13.551  0.00  0.00    +0.252 C 
ATOM      4  H   UNL     1      34.791 -24.595 -15.552  0.00  0.00    +0.155 HD
ENDROOT
BRANCH   2  14
ATOM      5  N   UNL     1      29.468 -25.290 -14.115  0.00  0.00    -0.333 N 
ATOM      6  C   UNL     1      28.694 -23.641 -15.722  0.00  0.00    +0.038 C 
ATOM      7  C   UNL     1      28.300 -24.908 -14.899  0.00  0.00    +0.091 C 
ATOM      8  C   UNL     1      30.199 -23.709 -15.644  0.00  0.00    -0.008 C 
ATOM      9  C   UNL     1      30.571 -24.683 -14.711  0.00  0.00    +0.042 C 
ATOM     10  C   UNL     1      28.173 -23.733 -17.158  0.00  0.00    +0.006 C 
ATOM     11  C   UNL     1      28.179 -22.365 -15.044  0.00  0.00    +0.006 C 
ATOM     12  C   UNL     1      31.152 -22.956 -16.312  0.00  0.00    -0.002 C 
ATOM     13  C   UNL     1      31.904 -24.894 -14.400  0.00  0.00    +0.029 C 
ATOM     14  C   UNL     1      32.872 -24.143 -15.072  0.00  0.00    +0.052 C 
ATOM     15  C   UNL     1      32.498 -23.183 -16.024  0.00  0.00    +0.014 C 
ATOM     16  H   UNL     1      29.477 -25.867 -13.318  0.00  0.00    +0.147 HD
ENDBRANCH   2  14
BRANCH   3  18
ATOM     17  N   UNL     1      38.492 -24.078 -14.524  0.00  0.00    -0.229 NA
ATOM     18  C   UNL     1      36.336 -24.485 -13.573  0.00  0.00    +0.085 C 
ATOM     19  C   UNL     1      37.157 -23.869 -14.480  0.00  0.00    +0.133 C 
ATOM     20  C   UNL     1      36.860 -25.363 -12.654  0.00  0.00    +0.009 C 
ATOM     21  C   UNL     1      38.231 -25.603 -12.667  0.00  0.00    +0.021 C 
ATOM     22  C   UNL     1      38.995 -24.942 -13.614  0.00  0.00    +0.100 C 
ATOM     23  N   UNL     1      36.599 -22.967 -15.420  0.00  0.00    -0.314 N 
ATOM     24  H   UNL     1      35.629 -22.804 -15.400  0.00  0.00    +0.149 HD
BRANCH  23  25
ATOM     25  C   UNL     1      37.388 -22.286 -16.394  0.00  0.00    +0.115 C 
BRANCH  25  27
ATOM     26  N   UNL     1      35.116 -21.304 -19.894  0.00  0.00    -0.242 NA
ATOM     27  C   UNL     1      36.593 -21.942 -17.621  0.00  0.00    +0.000 C 
ATOM     28  C   UNL     1      35.306 -22.434 -17.765  0.00  0.00    +0.018 C 
ATOM     29  C   UNL     1      37.150 -21.135 -18.598  0.00  0.00    +0.018 C 
ATOM     30  C   UNL     1      34.613 -22.087 -18.914  0.00  0.00    +0.099 C 
ATOM     31  C   UNL     1      36.375 -20.846 -19.710  0.00  0.00    +0.099 C 
ENDBRANCH  25  27
ENDBRANCH  23  25
ENDBRANCH   3  18
TORSDOF 4
ENDMDL
MODEL 6
REMARK VINA RESULT:     -10.3      6.805     11.249
REMARK  Name = 11667893
REMARK  4 active torsions:
REMARK  status: ('A' for Active; 'I' for Inactive)
REMARK    1  A    between atoms: N_2  and  C_14
REMARK    2  A    between atoms: C_3  and  C_18
REMARK    3  A    between atoms: N_23  and  C_25
REMARK    4  A    between atoms: C_25  and  C_27
REMARK                            x       y       z     vdW  Elec       q    Type
REMARK                         _______ _______ _______ _____ _____    ______ ____
ROOT
ATOM      1  O   UNL     1      32.770 -14.595 -22.176  0.00  0.00    -0.270 OA
ATOM      2  N   UNL     1      33.597 -13.255 -23.921  0.00  0.00    -0.280 N 
ATOM      3  C   UNL     1      33.329 -14.460 -23.259  0.00  0.00    +0.252 C 
ATOM      4  H   UNL     1      34.057 -13.332 -24.788  0.00  0.00    +0.155 HD
ENDROOT
BRANCH   2  14
ATOM      5  N   UNL     1      34.279  -8.409 -23.994  0.00  0.00    -0.333 N 
ATOM      6  C   UNL     1      32.485  -7.918 -22.431  0.00  0.00    +0.038 C 
ATOM      7  C   UNL     1      33.774  -7.362 -23.114  0.00  0.00    +0.091 C 
ATOM      8  C   UNL     1      32.654  -9.399 -22.670  0.00  0.00    -0.008 C 
ATOM      9  C   UNL     1      33.707  -9.605 -23.568  0.00  0.00    +0.042 C 
ATOM     10  C   UNL     1      32.451  -7.562 -20.943  0.00  0.00    +0.006 C 
ATOM     11  C   UNL     1      31.224  -7.402 -23.136  0.00  0.00    +0.006 C 
ATOM     12  C   UNL     1      31.921 -10.462 -22.167  0.00  0.00    -0.002 C 
ATOM     13  C   UNL     1      34.021 -10.879 -24.009  0.00  0.00    +0.029 C 
ATOM     14  C   UNL     1      33.292 -11.959 -23.504  0.00  0.00    +0.052 C 
ATOM     15  C   UNL     1      32.252 -11.751 -22.586  0.00  0.00    +0.014 C 
ATOM     16  H   UNL     1      34.906  -8.293 -24.744  0.00  0.00    +0.147 HD
ENDBRANCH   2  14
BRANCH   3  18
ATOM     17  N   UNL     1      34.950 -17.786 -23.889  0.00  0.00    -0.229 NA
ATOM     18  C   UNL     1      33.806 -15.687 -23.950  0.00  0.00    +0.085 C 
ATOM     19  C   UNL     1      34.504 -16.661 -23.287  0.00  0.00    +0.133 C 
ATOM     20  C   UNL     1      33.531 -15.827 -25.290  0.00  0.00    +0.009 C 
ATOM     21  C   UNL     1      33.973 -16.972 -25.945  0.00  0.00    +0.021 C 
ATOM     22  C   UNL     1      34.672 -17.912 -25.206  0.00  0.00    +0.100 C 
ATOM     23  N   UNL     1      34.778 -16.500 -21.905  0.00  0.00    -0.314 N 
ATOM     24  H   UNL     1      34.459 -15.686 -21.453  0.00  0.00    +0.149 HD
BRANCH  23  25
ATOM     25  C   UNL     1      35.498 -17.470 -21.146  0.00  0.00    +0.115 C 
BRANCH  25  27
ATOM     26  N   UNL     1      33.118 -20.933 -20.300  0.00  0.00    -0.242 NA
ATOM     27  C   UNL     1      34.664 -18.683 -20.850  0.00  0.00    +0.000 C 
ATOM     28  C   UNL     1      35.282 -19.890 -20.568  0.00  0.00    +0.018 C 
ATOM     29  C   UNL     1      33.283 -18.587 -20.860  0.00  0.00    +0.018 C 
ATOM     30  C   UNL     1      34.469 -20.979 -20.301  0.00  0.00    +0.099 C 
ATOM     31  C   UNL     1      32.558 -19.735 -20.580  0.00  0.00    +0.099 C 
ENDBRANCH  25  27
ENDBRANCH  23  25
ENDBRANCH   3  18
TORSDOF 4
ENDMDL
MODEL 7
REMARK VINA RESULT:     -10.3      5.900     10.216
REMARK  Name = 11667893
REMARK  4 active torsions:
REMARK  status: ('A' for Active; 'I' for Inactive)
REMARK    1  A    between atoms: N_2  and  C_14
REMARK    2  A    between atoms: C_3  and  C_18
REMARK    3  A    between atoms: N_23  and  C_25
REMARK    4  A    between atoms: C_25  and  C_27
REMARK                            x       y       z     vdW  Elec       q    Type
REMARK                         _______ _______ _______ _____ _____    ______ ____
ROOT
ATOM      1  O   UNL     1      34.988 -15.112 -22.236  0.00  0.00    -0.270 OA
ATOM      2  N   UNL     1      33.638 -14.485 -24.055  0.00  0.00    -0.280 N 
ATOM      3  C   UNL     1      34.414 -15.365 -23.289  0.00  0.00    +0.252 C 
ATOM      4  H   UNL     1      33.248 -14.859 -24.878  0.00  0.00    +0.155 HD
ENDROOT
BRANCH   2  14
ATOM      5  N   UNL     1      31.595 -10.939 -21.372  0.00  0.00    -0.333 N 
ATOM      6  C   UNL     1      32.408  -9.122 -22.766  0.00  0.00    +0.038 C 
ATOM      7  C   UNL     1      31.378  -9.526 -21.665  0.00  0.00    +0.091 C 
ATOM      8  C   UNL     1      32.804 -10.479 -23.295  0.00  0.00    -0.008 C 
ATOM      9  C   UNL     1      32.294 -11.472 -22.452  0.00  0.00    +0.042 C 
ATOM     10  C   UNL     1      31.757  -8.240 -23.833  0.00  0.00    +0.006 C 
ATOM     11  C   UNL     1      33.620  -8.413 -22.149  0.00  0.00    +0.006 C 
ATOM     12  C   UNL     1      33.573 -10.803 -24.402  0.00  0.00    -0.002 C 
ATOM     13  C   UNL     1      32.578 -12.808 -22.679  0.00  0.00    +0.029 C 
ATOM     14  C   UNL     1      33.348 -13.146 -23.795  0.00  0.00    +0.052 C 
ATOM     15  C   UNL     1      33.839 -12.150 -24.652  0.00  0.00    +0.014 C 
ATOM     16  H   UNL     1      31.302 -11.423 -20.566  0.00  0.00    +0.147 HD
ENDBRANCH   2  14
BRANCH   3  18
ATOM     17  N   UNL     1      35.205 -19.023 -23.578  0.00  0.00    -0.229 NA
ATOM     18  C   UNL     1      34.563 -16.735 -23.847  0.00  0.00    +0.085 C 
ATOM     19  C   UNL     1      35.058 -17.768 -23.097  0.00  0.00    +0.133 C 
ATOM     20  C   UNL     1      34.191 -16.949 -25.154  0.00  0.00    +0.009 C 
ATOM     21  C   UNL     1      34.326 -18.228 -25.685  0.00  0.00    +0.021 C 
ATOM     22  C   UNL     1      34.834 -19.220 -24.863  0.00  0.00    +0.100 C 
ATOM     23  N   UNL     1      35.436 -17.529 -21.752  0.00  0.00    -0.314 N 
ATOM     24  H   UNL     1      35.334 -16.621 -21.387  0.00  0.00    +0.149 HD
BRANCH  23  25
ATOM     25  C   UNL     1      35.958 -18.553 -20.906  0.00  0.00    +0.115 C 
BRANCH  25  27
ATOM     26  N   UNL     1      32.981 -21.461 -19.882  0.00  0.00    -0.242 NA
ATOM     27  C   UNL     1      34.915 -19.572 -20.548  0.00  0.00    +0.000 C 
ATOM     28  C   UNL     1      35.296 -20.770 -19.967  0.00  0.00    +0.018 C 
ATOM     29  C   UNL     1      33.580 -19.306 -20.800  0.00  0.00    +0.018 C 
ATOM     30  C   UNL     1      34.296 -21.677 -19.655  0.00  0.00    +0.099 C 
ATOM     31  C   UNL     1      32.656 -20.279 -20.450  0.00  0.00    +0.099 C 
ENDBRANCH  25  27
ENDBRANCH  23  25
ENDBRANCH   3  18
TORSDOF 4
ENDMDL
MODEL 8
REMARK VINA RESULT:     -10.2      5.144      9.388
REMARK  Name = 11667893
REMARK  4 active torsions:
REMARK  status: ('A' for Active; 'I' for Inactive)
REMARK    1  A    between atoms: N_2  and  C_14
REMARK    2  A    between atoms: C_3  and  C_18
REMARK    3  A    between atoms: N_23  and  C_25
REMARK    4  A    between atoms: C_25  and  C_27
REMARK                            x       y       z     vdW  Elec       q    Type
REMARK                         _______ _______ _______ _____ _____    ______ ____
ROOT
ATOM      1  O   UNL     1      35.416 -15.679 -21.865  0.00  0.00    -0.270 OA
ATOM      2  N   UNL     1      33.206 -15.390 -22.610  0.00  0.00    -0.280 N 
ATOM      3  C   UNL     1      34.449 -16.032 -22.530  0.00  0.00    +0.252 C 
ATOM      4  H   UNL     1      32.538 -15.814 -23.196  0.00  0.00    +0.155 HD
ENDROOT
BRANCH   2  14
ATOM      5  N   UNL     1      31.600 -10.766 -22.614  0.00  0.00    -0.333 N 
ATOM      6  C   UNL     1      31.447 -10.592 -20.195  0.00  0.00    +0.038 C 
ATOM      7  C   UNL     1      31.499  -9.791 -21.534  0.00  0.00    +0.091 C 
ATOM      8  C   UNL     1      31.975 -11.933 -20.646  0.00  0.00    -0.008 C 
ATOM      9  C   UNL     1      32.046 -11.956 -22.043  0.00  0.00    +0.042 C 
ATOM     10  C   UNL     1      32.328  -9.941 -19.128  0.00  0.00    +0.006 C 
ATOM     11  C   UNL     1      30.004 -10.727 -19.693  0.00  0.00    +0.006 C 
ATOM     12  C   UNL     1      32.327 -13.040 -19.891  0.00  0.00    -0.002 C 
ATOM     13  C   UNL     1      32.435 -13.104 -22.713  0.00  0.00    +0.029 C 
ATOM     14  C   UNL     1      32.797 -14.225 -21.961  0.00  0.00    +0.052 C 
ATOM     15  C   UNL     1      32.747 -14.191 -20.560  0.00  0.00    +0.014 C 
ATOM     16  H   UNL     1      31.394 -10.613 -23.564  0.00  0.00    +0.147 HD
ENDBRANCH   2  14
BRANCH   3  18
ATOM     17  N   UNL     1      35.246 -19.539 -23.602  0.00  0.00    -0.229 NA
ATOM     18  C   UNL     1      34.592 -17.250 -23.369  0.00  0.00    +0.085 C 
ATOM     19  C   UNL     1      35.104 -18.416 -22.864  0.00  0.00    +0.133 C 
ATOM     20  C   UNL     1      34.196 -17.185 -24.684  0.00  0.00    +0.009 C 
ATOM     21  C   UNL     1      34.326 -18.321 -25.477  0.00  0.00    +0.021 C 
ATOM     22  C   UNL     1      34.852 -19.462 -24.893  0.00  0.00    +0.100 C 
ATOM     23  N   UNL     1      35.506 -18.465 -21.505  0.00  0.00    -0.314 N 
ATOM     24  H   UNL     1      35.408 -17.656 -20.954  0.00  0.00    +0.149 HD
BRANCH  23  25
ATOM     25  C   UNL     1      36.047 -19.641 -20.905  0.00  0.00    +0.115 C 
BRANCH  25  27
ATOM     26  N   UNL     1      33.015 -22.030 -19.044  0.00  0.00    -0.242 NA
ATOM     27  C   UNL     1      34.985 -20.478 -20.253  0.00  0.00    +0.000 C 
ATOM     28  C   UNL     1      33.652 -20.127 -20.391  0.00  0.00    +0.018 C 
ATOM     29  C   UNL     1      35.345 -21.596 -19.519  0.00  0.00    +0.018 C 
ATOM     30  C   UNL     1      32.710 -20.932 -19.770  0.00  0.00    +0.099 C 
ATOM     31  C   UNL     1      34.327 -22.335 -18.936  0.00  0.00    +0.099 C 
ENDBRANCH  25  27
ENDBRANCH  23  25
ENDBRANCH   3  18
TORSDOF 4
ENDMDL
MODEL 9
REMARK VINA RESULT:      -9.9      2.106      2.928
REMARK  Name = 11667893
REMARK  4 active torsions:
REMARK  status: ('A' for Active; 'I' for Inactive)
REMARK    1  A    between atoms: N_2  and  C_14
REMARK    2  A    between atoms: C_3  and  C_18
REMARK    3  A    between atoms: N_23  and  C_25
REMARK    4  A    between atoms: C_25  and  C_27
REMARK                            x       y       z     vdW  Elec       q    Type
REMARK                         _______ _______ _______ _____ _____    ______ ____
ROOT
ATOM      1  O   UNL     1      33.466 -23.465 -18.252  0.00  0.00    -0.270 OA
ATOM      2  N   UNL     1      35.163 -21.868 -17.943  0.00  0.00    -0.280 N 
ATOM      3  C   UNL     1      34.375 -22.972 -17.593  0.00  0.00    +0.252 C 
ATOM      4  H   UNL     1      35.853 -21.606 -17.292  0.00  0.00    +0.155 HD
ENDROOT
BRANCH   2  14
ATOM      5  N   UNL     1      37.200 -19.157 -21.472  0.00  0.00    -0.333 N 
ATOM      6  C   UNL     1      35.121 -18.765 -22.666  0.00  0.00    +0.038 C 
ATOM      7  C   UNL     1      36.596 -18.290 -22.478  0.00  0.00    +0.091 C 
ATOM      8  C   UNL     1      34.922 -19.578 -21.411  0.00  0.00    -0.008 C 
ATOM      9  C   UNL     1      36.154 -19.754 -20.773  0.00  0.00    +0.042 C 
ATOM     10  C   UNL     1      34.165 -17.573 -22.755  0.00  0.00    +0.006 C 
ATOM     11  C   UNL     1      34.986 -19.655 -23.908  0.00  0.00    +0.006 C 
ATOM     12  C   UNL     1      33.762 -20.139 -20.898  0.00  0.00    -0.002 C 
ATOM     13  C   UNL     1      36.256 -20.529 -19.630  0.00  0.00    +0.029 C 
ATOM     14  C   UNL     1      35.092 -21.095 -19.102  0.00  0.00    +0.052 C 
ATOM     15  C   UNL     1      33.854 -20.897 -19.731  0.00  0.00    +0.014 C 
ATOM     16  H   UNL     1      38.162 -19.294 -21.317  0.00  0.00    +0.147 HD
ENDBRANCH   2  14
BRANCH   3  18
ATOM     17  N   UNL     1      33.934 -24.361 -14.134  0.00  0.00    -0.229 NA
ATOM     18  C   UNL     1      34.675 -23.575 -16.267  0.00  0.00    +0.085 C 
ATOM     19  C   UNL     1      33.691 -23.815 -15.346  0.00  0.00    +0.133 C 
ATOM     20  C   UNL     1      35.982 -23.891 -15.977  0.00  0.00    +0.009 C 
ATOM     21  C   UNL     1      36.272 -24.455 -14.739  0.00  0.00    +0.021 C 
ATOM     22  C   UNL     1      35.222 -24.667 -13.862  0.00  0.00    +0.100 C 
ATOM     23  N   UNL     1      32.349 -23.483 -15.662  0.00  0.00    -0.314 N 
ATOM     24  H   UNL     1      32.156 -23.086 -16.542  0.00  0.00    +0.149 HD
BRANCH  23  25
ATOM     25  C   UNL     1      31.269 -23.703 -14.757  0.00  0.00    +0.115 C 
BRANCH  25  27
ATOM     26  N   UNL     1      27.459 -23.153 -16.643  0.00  0.00    -0.242 NA
ATOM     27  C   UNL     1      29.934 -23.510 -15.418  0.00  0.00    +0.000 C 
ATOM     28  C   UNL     1      29.445 -24.481 -16.276  0.00  0.00    +0.018 C 
ATOM     29  C   UNL     1      29.201 -22.363 -15.164  0.00  0.00    +0.018 C 
ATOM     30  C   UNL     1      28.209 -24.257 -16.860  0.00  0.00    +0.099 C 
ATOM     31  C   UNL     1      27.975 -22.233 -15.798  0.00  0.00    +0.099 C 
ENDBRANCH  25  27
ENDBRANCH  23  25
ENDBRANCH   3  18
TORSDOF 4
ENDMDL
