MODEL 1
REMARK VINA RESULT:      -5.4      0.000      0.000
REMARK  Name = 49
REMARK  3 active torsions:
REMARK  status: ('A' for Active; 'I' for Inactive)
REMARK    1  A    between atoms: C_2  and  C_3
REMARK    2  A    between atoms: C_2  and  C_7
REMARK    3  A    between atoms: C_7  and  O_8
REMARK                            x       y       z     vdW  Elec       q    Type
REMARK                         _______ _______ _______ _____ _____    ______ ____
ROOT
ATOM      1  O   UNL     1      38.904 -24.162 -14.971  0.00  0.00    -0.284 OA
ATOM      2  C   UNL     1      39.218 -25.135 -14.299  0.00  0.00    +0.247 C 
ENDROOT
BRANCH   2   3
ATOM      3  C   UNL     1      38.539 -25.586 -13.017  0.00  0.00    +0.069 C 
ATOM      4  C   UNL     1      38.190 -24.385 -12.143  0.00  0.00    +0.008 C 
ATOM      5  C   UNL     1      37.283 -26.398 -13.328  0.00  0.00    +0.008 C 
ENDBRANCH   2   3
BRANCH   2   7
ATOM      6  O   UNL     1      41.142 -26.516 -14.049  0.00  0.00    -0.242 OA
ATOM      7  C   UNL     1      40.369 -25.960 -14.802  0.00  0.00    +0.373 C 
BRANCH   7   8
ATOM      8  O   UNL     1      40.411 -25.916 -16.140  0.00  0.00    -0.475 OA
ATOM      9  H   UNL     1      40.448 -26.711 -16.634  0.00  0.00    +0.295 HD
ENDBRANCH   7   8
ENDBRANCH   2   7
TORSDOF 3
ENDMDL
MODEL 2
REMARK VINA RESULT:      -5.2     10.728     12.132
REMARK  Name = 49
REMARK  3 active torsions:
REMARK  status: ('A' for Active; 'I' for Inactive)
REMARK    1  A    between atoms: C_2  and  C_3
REMARK    2  A    between atoms: C_2  and  C_7
REMARK    3  A    between atoms: C_7  and  O_8
REMARK                            x       y       z     vdW  Elec       q    Type
REMARK                         _______ _______ _______ _____ _____    ______ ____
ROOT
ATOM      1  O   UNL     1      27.769 -24.113 -17.595  0.00  0.00    -0.284 OA
ATOM      2  C   UNL     1      27.949 -23.308 -16.694  0.00  0.00    +0.247 C 
ENDROOT
BRANCH   2   3
ATOM      3  C   UNL     1      29.050 -23.374 -15.648  0.00  0.00    +0.069 C 
ATOM      4  C   UNL     1      29.127 -24.770 -15.037  0.00  0.00    +0.008 C 
ATOM      5  C   UNL     1      30.396 -22.986 -16.258  0.00  0.00    +0.008 C 
ENDBRANCH   2   3
BRANCH   2   7
ATOM      6  O   UNL     1      27.025 -21.245 -17.445  0.00  0.00    -0.242 OA
ATOM      7  C   UNL     1      27.001 -22.143 -16.629  0.00  0.00    +0.373 C 
BRANCH   7   8
ATOM      8  O   UNL     1      26.223 -22.250 -15.544  0.00  0.00    -0.475 OA
ATOM      9  H   UNL     1      25.513 -22.862 -15.534  0.00  0.00    +0.295 HD
ENDBRANCH   7   8
ENDBRANCH   2   7
TORSDOF 3
ENDMDL
MODEL 3
REMARK VINA RESULT:      -5.2     10.759     11.683
REMARK  Name = 49
REMARK  3 active torsions:
REMARK  status: ('A' for Active; 'I' for Inactive)
REMARK    1  A    between atoms: C_2  and  C_3
REMARK    2  A    between atoms: C_2  and  C_7
REMARK    3  A    between atoms: C_7  and  O_8
REMARK                            x       y       z     vdW  Elec       q    Type
REMARK                         _______ _______ _______ _____ _____    ______ ____
ROOT
ATOM      1  O   UNL     1      40.993 -13.611 -14.796  0.00  0.00    -0.284 OA
ATOM      2  C   UNL     1      41.410 -14.334 -15.689  0.00  0.00    +0.247 C 
ENDROOT
BRANCH   2   3
ATOM      3  C   UNL     1      42.055 -13.869 -16.983  0.00  0.00    +0.069 C 
ATOM      4  C   UNL     1      41.182 -14.235 -18.180  0.00  0.00    +0.008 C 
ATOM      5  C   UNL     1      42.304 -12.362 -16.950  0.00  0.00    +0.008 C 
ENDBRANCH   2   3
BRANCH   2   7
ATOM      6  O   UNL     1      42.220 -16.573 -15.615  0.00  0.00    -0.242 OA
ATOM      7  C   UNL     1      41.282 -15.816 -15.472  0.00  0.00    +0.373 C 
BRANCH   7   8
ATOM      8  O   UNL     1      40.013 -16.125 -15.173  0.00  0.00    -0.475 OA
ATOM      9  H   UNL     1      39.502 -15.544 -14.644  0.00  0.00    +0.295 HD
ENDBRANCH   7   8
ENDBRANCH   2   7
TORSDOF 3
ENDMDL
MODEL 4
REMARK VINA RESULT:      -5.1      9.627     11.000
REMARK  Name = 49
REMARK  3 active torsions:
REMARK  status: ('A' for Active; 'I' for Inactive)
REMARK    1  A    between atoms: C_2  and  C_3
REMARK    2  A    between atoms: C_2  and  C_7
REMARK    3  A    between atoms: C_7  and  O_8
REMARK                            x       y       z     vdW  Elec       q    Type
REMARK                         _______ _______ _______ _____ _____    ______ ____
ROOT
ATOM      1  O   UNL     1      30.350 -22.390 -17.166  0.00  0.00    -0.284 OA
ATOM      2  C   UNL     1      29.455 -22.829 -16.458  0.00  0.00    +0.247 C 
ENDROOT
BRANCH   2   3
ATOM      3  C   UNL     1      29.618 -23.360 -15.044  0.00  0.00    +0.069 C 
ATOM      4  C   UNL     1      29.434 -24.874 -15.014  0.00  0.00    +0.008 C 
ATOM      5  C   UNL     1      30.988 -22.981 -14.481  0.00  0.00    +0.008 C 
ENDBRANCH   2   3
BRANCH   2   7
ATOM      6  O   UNL     1      27.629 -23.771 -17.664  0.00  0.00    -0.242 OA
ATOM      7  C   UNL     1      28.070 -22.826 -17.042  0.00  0.00    +0.373 C 
BRANCH   7   8
ATOM      8  O   UNL     1      27.482 -21.645 -16.812  0.00  0.00    -0.475 OA
ATOM      9  H   UNL     1      27.926 -20.850 -17.031  0.00  0.00    +0.295 HD
ENDBRANCH   7   8
ENDBRANCH   2   7
TORSDOF 3
ENDMDL
MODEL 5
REMARK VINA RESULT:      -5.0     10.125     11.149
REMARK  Name = 49
REMARK  3 active torsions:
REMARK  status: ('A' for Active; 'I' for Inactive)
REMARK    1  A    between atoms: C_2  and  C_3
REMARK    2  A    between atoms: C_2  and  C_7
REMARK    3  A    between atoms: C_7  and  O_8
REMARK                            x       y       z     vdW  Elec       q    Type
REMARK                         _______ _______ _______ _____ _____    ______ ____
ROOT
ATOM      1  O   UNL     1      42.739 -16.373 -16.019  0.00  0.00    -0.284 OA
ATOM      2  C   UNL     1      41.784 -15.655 -16.279  0.00  0.00    +0.247 C 
ENDROOT
BRANCH   2   3
ATOM      3  C   UNL     1      41.526 -14.965 -17.608  0.00  0.00    +0.069 C 
ATOM      4  C   UNL     1      42.035 -13.527 -17.575  0.00  0.00    +0.008 C 
ATOM      5  C   UNL     1      42.185 -15.735 -18.752  0.00  0.00    +0.008 C 
ENDBRANCH   2   3
BRANCH   2   7
ATOM      6  O   UNL     1      40.868 -14.550 -14.378  0.00  0.00    -0.242 OA
ATOM      7  C   UNL     1      40.774 -15.452 -15.185  0.00  0.00    +0.373 C 
BRANCH   7   8
ATOM      8  O   UNL     1      39.852 -16.423 -15.232  0.00  0.00    -0.475 OA
ATOM      9  H   UNL     1      38.961 -16.214 -15.435  0.00  0.00    +0.295 HD
ENDBRANCH   7   8
ENDBRANCH   2   7
TORSDOF 3
ENDMDL
MODEL 6
REMARK VINA RESULT:      -5.0      9.641     10.814
REMARK  Name = 49
REMARK  3 active torsions:
REMARK  status: ('A' for Active; 'I' for Inactive)
REMARK    1  A    between atoms: C_2  and  C_3
REMARK    2  A    between atoms: C_2  and  C_7
REMARK    3  A    between atoms: C_7  and  O_8
REMARK                            x       y       z     vdW  Elec       q    Type
REMARK                         _______ _______ _______ _____ _____    ______ ____
ROOT
ATOM      1  O   UNL     1      28.627 -24.618 -15.163  0.00  0.00    -0.284 OA
ATOM      2  C   UNL     1      29.050 -23.597 -15.684  0.00  0.00    +0.247 C 
ENDROOT
BRANCH   2   3
ATOM      3  C   UNL     1      30.337 -22.878 -15.316  0.00  0.00    +0.069 C 
ATOM      4  C   UNL     1      30.886 -23.403 -13.993  0.00  0.00    +0.008 C 
ATOM      5  C   UNL     1      31.379 -23.036 -16.422  0.00  0.00    +0.008 C 
ENDBRANCH   2   3
BRANCH   2   7
ATOM      6  O   UNL     1      28.027 -21.821 -16.899  0.00  0.00    -0.242 OA
ATOM      7  C   UNL     1      28.226 -23.014 -16.798  0.00  0.00    +0.373 C 
BRANCH   7   8
ATOM      8  O   UNL     1      27.737 -23.998 -17.565  0.00  0.00    -0.475 OA
ATOM      9  H   UNL     1      26.816 -24.169 -17.578  0.00  0.00    +0.295 HD
ENDBRANCH   7   8
ENDBRANCH   2   7
TORSDOF 3
ENDMDL
MODEL 7
REMARK VINA RESULT:      -5.0      3.838      4.921
REMARK  Name = 49
REMARK  3 active torsions:
REMARK  status: ('A' for Active; 'I' for Inactive)
REMARK    1  A    between atoms: C_2  and  C_3
REMARK    2  A    between atoms: C_2  and  C_7
REMARK    3  A    between atoms: C_7  and  O_8
REMARK                            x       y       z     vdW  Elec       q    Type
REMARK                         _______ _______ _______ _____ _____    ______ ____
ROOT
ATOM      1  O   UNL     1      37.290 -22.856 -11.049  0.00  0.00    -0.284 OA
ATOM      2  C   UNL     1      36.763 -23.789 -11.637  0.00  0.00    +0.247 C 
ENDROOT
BRANCH   2   3
ATOM      3  C   UNL     1      37.201 -24.359 -12.976  0.00  0.00    +0.069 C 
ATOM      4  C   UNL     1      37.112 -23.296 -14.066  0.00  0.00    +0.008 C 
ATOM      5  C   UNL     1      38.623 -24.910 -12.887  0.00  0.00    +0.008 C 
ENDBRANCH   2   3
BRANCH   2   7
ATOM      6  O   UNL     1      35.477 -24.477  -9.753  0.00  0.00    -0.242 OA
ATOM      7  C   UNL     1      35.585 -24.434 -10.961  0.00  0.00    +0.373 C 
BRANCH   7   8
ATOM      8  O   UNL     1      34.769 -24.967 -11.880  0.00  0.00    -0.475 OA
ATOM      9  H   UNL     1      34.825 -25.880 -12.084  0.00  0.00    +0.295 HD
ENDBRANCH   7   8
ENDBRANCH   2   7
TORSDOF 3
ENDMDL
MODEL 8
REMARK VINA RESULT:      -4.8     10.116     10.964
REMARK  Name = 49
REMARK  3 active torsions:
REMARK  status: ('A' for Active; 'I' for Inactive)
REMARK    1  A    between atoms: C_2  and  C_3
REMARK    2  A    between atoms: C_2  and  C_7
REMARK    3  A    between atoms: C_7  and  O_8
REMARK                            x       y       z     vdW  Elec       q    Type
REMARK                         _______ _______ _______ _____ _____    ______ ____
ROOT
ATOM      1  O   UNL     1      35.676 -18.119 -20.625  0.00  0.00    -0.284 OA
ATOM      2  C   UNL     1      35.156 -18.903 -21.404  0.00  0.00    +0.247 C 
ENDROOT
BRANCH   2   3
ATOM      3  C   UNL     1      34.378 -20.152 -21.024  0.00  0.00    +0.069 C 
ATOM      4  C   UNL     1      35.093 -20.911 -19.910  0.00  0.00    +0.008 C 
ATOM      5  C   UNL     1      32.957 -19.792 -20.593  0.00  0.00    +0.008 C 
ENDBRANCH   2   3
BRANCH   2   7
ATOM      6  O   UNL     1      34.871 -19.335 -23.730  0.00  0.00    -0.242 OA
ATOM      7  C   UNL     1      35.289 -18.589 -22.868  0.00  0.00    +0.373 C 
BRANCH   7   8
ATOM      8  O   UNL     1      35.964 -17.443 -23.028  0.00  0.00    -0.475 OA
ATOM      9  H   UNL     1      36.152 -16.902 -22.286  0.00  0.00    +0.295 HD
ENDBRANCH   7   8
ENDBRANCH   2   7
TORSDOF 3
ENDMDL
MODEL 9
REMARK VINA RESULT:      -4.8     11.344     12.336
REMARK  Name = 49
REMARK  3 active torsions:
REMARK  status: ('A' for Active; 'I' for Inactive)
REMARK    1  A    between atoms: C_2  and  C_3
REMARK    2  A    between atoms: C_2  and  C_7
REMARK    3  A    between atoms: C_7  and  O_8
REMARK                            x       y       z     vdW  Elec       q    Type
REMARK                         _______ _______ _______ _____ _____    ______ ____
ROOT
ATOM      1  O   UNL     1      35.122 -16.398 -20.293  0.00  0.00    -0.284 OA
ATOM      2  C   UNL     1      35.019 -16.961 -21.373  0.00  0.00    +0.247 C 
ENDROOT
BRANCH   2   3
ATOM      3  C   UNL     1      35.097 -18.461 -21.605  0.00  0.00    +0.069 C 
ATOM      4  C   UNL     1      36.329 -19.047 -20.921  0.00  0.00    +0.008 C 
ATOM      5  C   UNL     1      33.831 -19.151 -21.099  0.00  0.00    +0.008 C 
ENDBRANCH   2   3
BRANCH   2   7
ATOM      6  O   UNL     1      33.818 -15.351 -22.653  0.00  0.00    -0.242 OA
ATOM      7  C   UNL     1      34.781 -16.086 -22.571  0.00  0.00    +0.373 C 
BRANCH   7   8
ATOM      8  O   UNL     1      35.731 -16.303 -23.489  0.00  0.00    -0.475 OA
ATOM      9  H   UNL     1      35.871 -17.167 -23.824  0.00  0.00    +0.295 HD
ENDBRANCH   7   8
ENDBRANCH   2   7
TORSDOF 3
ENDMDL
