MODEL 1
REMARK VINA RESULT:      -9.9      0.000      0.000
REMARK  Name = 46936829
REMARK  10 active torsions:
REMARK  status: ('A' for Active; 'I' for Inactive)
REMARK    1  A    between atoms: N_2  and  C_5
REMARK    2  A    between atoms: C_3  and  C_21
REMARK    3  A    between atoms: C_5  and  C_6
REMARK    4  A    between atoms: C_5  and  C_9
REMARK    5  A    between atoms: C_9  and  C_13
REMARK    6  A    between atoms: C_9  and  O_19
REMARK    7  A    between atoms: C_14  and  C_15
REMARK    8  A    between atoms: C_21  and  N_23
REMARK    9  A    between atoms: C_25  and  C_29
REMARK   10  A    between atoms: C_27  and  N_35
REMARK                            x       y       z     vdW  Elec       q    Type
REMARK                         _______ _______ _______ _____ _____    ______ ____
ROOT
ATOM      1  O   UNL     1      34.348 -10.971 -24.047  0.00  0.00    -0.273 OA
ATOM      2  N   UNL     1      33.014 -12.671 -23.194  0.00  0.00    -0.302 N 
ATOM      3  C   UNL     1      33.286 -11.369 -23.574  0.00  0.00    +0.243 C 
ATOM      4  H   UNL     1      32.125 -12.878 -22.825  0.00  0.00    +0.150 HD
ENDROOT
BRANCH   2   5
ATOM      5  C   UNL     1      33.980 -13.748 -23.313  0.00  0.00    +0.107 C 
BRANCH   5   6
ATOM      6  C   UNL     1      33.429 -14.869 -24.235  0.00  0.00    +0.021 C 
ATOM      7  C   UNL     1      32.697 -14.282 -25.448  0.00  0.00    +0.002 C 
ATOM      8  C   UNL     1      34.505 -15.852 -24.709  0.00  0.00    +0.002 C 
ENDBRANCH   5   6
BRANCH   5   9
ATOM      9  C   UNL     1      34.397 -14.225 -21.899  0.00  0.00    +0.206 C 
BRANCH   9  13
ATOM     10  O   UNL     1      34.906 -16.618 -21.788  0.00  0.00    -0.421 OA
ATOM     11  N   UNL     1      32.843 -16.092 -21.098  0.00  0.00    -0.109 NA
ATOM     12  N   UNL     1      32.996 -17.461 -20.983  0.00  0.00    -0.112 NA
ATOM     13  C   UNL     1      33.983 -15.642 -21.571  0.00  0.00    +0.254 A 
ATOM     14  C   UNL     1      34.214 -17.723 -21.396  0.00  0.00    +0.225 A 
BRANCH  14  15
ATOM     15  C   UNL     1      34.913 -19.011 -21.489  0.00  0.00    +0.070 C 
ATOM     16  C   UNL     1      36.413 -19.024 -21.007  0.00  0.00    +0.009 C 
ATOM     17  C   UNL     1      34.214 -20.124 -20.631  0.00  0.00    +0.009 C 
ATOM     18  C   UNL     1      34.967 -19.545 -22.962  0.00  0.00    +0.009 C 
ENDBRANCH  14  15
ENDBRANCH   9  13
BRANCH   9  19
ATOM     19  O   UNL     1      33.788 -13.380 -20.917  0.00  0.00    -0.374 OA
ATOM     20  H   UNL     1      33.154 -12.786 -21.350  0.00  0.00    +0.211 HD
ENDBRANCH   9  19
ENDBRANCH   5   9
ENDBRANCH   2   5
BRANCH   3  21
ATOM     21  C   UNL     1      32.076 -10.478 -23.387  0.00  0.00    +0.185 C 
BRANCH  21  23
ATOM     22  O   UNL     1      31.334 -11.905 -21.095  0.00  0.00    -0.268 OA
ATOM     23  N   UNL     1      32.092  -9.906 -22.039  0.00  0.00    -0.230 N 
ATOM     24  N   UNL     1      32.483  -8.024 -20.630  0.00  0.00    -0.227 NA
ATOM     25  C   UNL     1      32.504  -8.588 -21.799  0.00  0.00    +0.138 C 
ATOM     26  C   UNL     1      31.668 -10.726 -20.986  0.00  0.00    +0.269 C 
ATOM     27  C   UNL     1      31.641 -10.063 -19.648  0.00  0.00    +0.116 C 
ATOM     28  C   UNL     1      32.040  -8.786 -19.589  0.00  0.00    +0.119 C 
BRANCH  25  29
ATOM     29  C   UNL     1      32.998  -7.782 -22.931  0.00  0.00    +0.032 C 
ATOM     30  C   UNL     1      32.108  -7.012 -23.679  0.00  0.00    +0.003 C 
ATOM     31  C   UNL     1      34.355  -7.788 -23.253  0.00  0.00    +0.003 C 
ATOM     32  C   UNL     1      32.574  -6.248 -24.749  0.00  0.00    +0.000 C 
ATOM     33  C   UNL     1      34.822  -7.025 -24.322  0.00  0.00    +0.000 C 
ATOM     34  C   UNL     1      33.932  -6.254 -25.071  0.00  0.00    +0.000 C 
ENDBRANCH  25  29
BRANCH  27  35
ATOM     35  N   UNL     1      31.209 -10.812 -18.593  0.00  0.00    -0.352 N 
ATOM     36  H   UNL     1      31.859 -11.296 -18.035  0.00  0.00    +0.143 HD
ATOM     37  H   UNL     1      30.247 -10.867 -18.390  0.00  0.00    +0.143 HD
ENDBRANCH  27  35
ENDBRANCH  21  23
ENDBRANCH   3  21
TORSDOF 10
ENDMDL
MODEL 2
REMARK VINA RESULT:      -9.6      1.701      2.068
REMARK  Name = 46936829
REMARK  10 active torsions:
REMARK  status: ('A' for Active; 'I' for Inactive)
REMARK    1  A    between atoms: N_2  and  C_5
REMARK    2  A    between atoms: C_3  and  C_21
REMARK    3  A    between atoms: C_5  and  C_6
REMARK    4  A    between atoms: C_5  and  C_9
REMARK    5  A    between atoms: C_9  and  C_13
REMARK    6  A    between atoms: C_9  and  O_19
REMARK    7  A    between atoms: C_14  and  C_15
REMARK    8  A    between atoms: C_21  and  N_23
REMARK    9  A    between atoms: C_25  and  C_29
REMARK   10  A    between atoms: C_27  and  N_35
REMARK                            x       y       z     vdW  Elec       q    Type
REMARK                         _______ _______ _______ _____ _____    ______ ____
ROOT
ATOM      1  O   UNL     1      34.483 -10.376 -23.681  0.00  0.00    -0.273 OA
ATOM      2  N   UNL     1      32.861 -11.722 -24.658  0.00  0.00    -0.302 N 
ATOM      3  C   UNL     1      33.318 -10.590 -24.008  0.00  0.00    +0.243 C 
ATOM      4  H   UNL     1      31.903 -11.787 -24.873  0.00  0.00    +0.150 HD
ENDROOT
BRANCH   2   5
ATOM      5  C   UNL     1      33.730 -12.821 -25.039  0.00  0.00    +0.107 C 
BRANCH   5   6
ATOM      6  C   UNL     1      34.099 -12.723 -26.544  0.00  0.00    +0.021 C 
ATOM      7  C   UNL     1      32.842 -12.702 -27.423  0.00  0.00    +0.002 C 
ATOM      8  C   UNL     1      34.982 -11.517 -26.878  0.00  0.00    +0.002 C 
ENDBRANCH   5   6
BRANCH   5   9
ATOM      9  C   UNL     1      33.078 -14.163 -24.622  0.00  0.00    +0.206 C 
BRANCH   9  13
ATOM     10  O   UNL     1      33.929 -16.259 -23.685  0.00  0.00    -0.421 OA
ATOM     11  N   UNL     1      34.402 -14.452 -22.453  0.00  0.00    -0.109 NA
ATOM     12  N   UNL     1      34.936 -15.556 -21.815  0.00  0.00    -0.112 NA
ATOM     13  C   UNL     1      33.824 -14.910 -23.540  0.00  0.00    +0.254 A 
ATOM     14  C   UNL     1      34.636 -16.588 -22.569  0.00  0.00    +0.225 A 
BRANCH  14  15
ATOM     15  C   UNL     1      34.953 -18.009 -22.379  0.00  0.00    +0.070 C 
ATOM     16  C   UNL     1      36.419 -18.338 -21.908  0.00  0.00    +0.009 C 
ATOM     17  C   UNL     1      34.032 -18.678 -21.299  0.00  0.00    +0.009 C 
ATOM     18  C   UNL     1      34.769 -18.834 -23.701  0.00  0.00    +0.009 C 
ENDBRANCH  14  15
ENDBRANCH   9  13
BRANCH   9  19
ATOM     19  O   UNL     1      33.020 -15.033 -25.758  0.00  0.00    -0.374 OA
ATOM     20  H   UNL     1      33.536 -15.834 -25.578  0.00  0.00    +0.211 HD
ENDBRANCH   9  19
ENDBRANCH   5   9
ENDBRANCH   2   5
BRANCH   3  21
ATOM     21  C   UNL     1      32.199  -9.592 -23.790  0.00  0.00    +0.185 C 
BRANCH  21  23
ATOM     22  O   UNL     1      31.794 -10.869 -21.331  0.00  0.00    -0.268 OA
ATOM     23  N   UNL     1      32.379  -8.930 -22.497  0.00  0.00    -0.230 N 
ATOM     24  N   UNL     1      32.912  -6.952 -21.278  0.00  0.00    -0.227 NA
ATOM     25  C   UNL     1      32.792  -7.594 -22.400  0.00  0.00    +0.138 C 
ATOM     26  C   UNL     1      32.114  -9.681 -21.345  0.00  0.00    +0.269 C 
ATOM     27  C   UNL     1      32.249  -8.930 -20.062  0.00  0.00    +0.116 C 
ATOM     28  C   UNL     1      32.625  -7.647 -20.140  0.00  0.00    +0.119 C 
BRANCH  25  29
ATOM     29  C   UNL     1      33.116  -6.860 -23.638  0.00  0.00    +0.032 C 
ATOM     30  C   UNL     1      32.160  -6.035 -24.231  0.00  0.00    +0.003 C 
ATOM     31  C   UNL     1      34.379  -6.990 -24.215  0.00  0.00    +0.003 C 
ATOM     32  C   UNL     1      32.467  -5.340 -25.400  0.00  0.00    +0.000 C 
ATOM     33  C   UNL     1      34.686  -6.295 -25.385  0.00  0.00    +0.000 C 
ATOM     34  C   UNL     1      33.730  -5.471 -25.977  0.00  0.00    +0.000 C 
ENDBRANCH  25  29
BRANCH  27  35
ATOM     35  N   UNL     1      31.974  -9.610 -18.912  0.00  0.00    -0.352 N 
ATOM     36  H   UNL     1      32.532  -9.472 -18.114  0.00  0.00    +0.143 HD
ATOM     37  H   UNL     1      31.217 -10.239 -18.881  0.00  0.00    +0.143 HD
ENDBRANCH  27  35
ENDBRANCH  21  23
ENDBRANCH   3  21
TORSDOF 10
ENDMDL
MODEL 3
REMARK VINA RESULT:      -8.8      7.501     13.669
REMARK  Name = 46936829
REMARK  10 active torsions:
REMARK  status: ('A' for Active; 'I' for Inactive)
REMARK    1  A    between atoms: N_2  and  C_5
REMARK    2  A    between atoms: C_3  and  C_21
REMARK    3  A    between atoms: C_5  and  C_6
REMARK    4  A    between atoms: C_5  and  C_9
REMARK    5  A    between atoms: C_9  and  C_13
REMARK    6  A    between atoms: C_9  and  O_19
REMARK    7  A    between atoms: C_14  and  C_15
REMARK    8  A    between atoms: C_21  and  N_23
REMARK    9  A    between atoms: C_25  and  C_29
REMARK   10  A    between atoms: C_27  and  N_35
REMARK                            x       y       z     vdW  Elec       q    Type
REMARK                         _______ _______ _______ _____ _____    ______ ____
ROOT
ATOM      1  O   UNL     1      35.926 -22.240 -15.718  0.00  0.00    -0.273 OA
ATOM      2  N   UNL     1      34.613 -23.318 -17.304  0.00  0.00    -0.302 N 
ATOM      3  C   UNL     1      35.344 -23.240 -16.131  0.00  0.00    +0.243 C 
ATOM      4  H   UNL     1      34.187 -24.174 -17.537  0.00  0.00    +0.150 HD
ENDROOT
BRANCH   2   5
ATOM      5  C   UNL     1      34.446 -22.194 -18.207  0.00  0.00    +0.107 C 
BRANCH   5   6
ATOM      6  C   UNL     1      32.996 -22.156 -18.761  0.00  0.00    +0.021 C 
ATOM      7  C   UNL     1      31.972 -22.461 -17.659  0.00  0.00    +0.002 C 
ATOM      8  C   UNL     1      32.638 -20.832 -19.444  0.00  0.00    +0.002 C 
ENDBRANCH   5   6
BRANCH   5   9
ATOM      9  C   UNL     1      35.548 -22.238 -19.295  0.00  0.00    +0.206 C 
BRANCH   9  13
ATOM     10  O   UNL     1      35.075 -20.400 -20.842  0.00  0.00    -0.421 OA
ATOM     11  N   UNL     1      36.910 -20.095 -19.598  0.00  0.00    -0.109 NA
ATOM     12  N   UNL     1      36.762 -18.992 -20.419  0.00  0.00    -0.112 NA
ATOM     13  C   UNL     1      35.903 -20.889 -19.879  0.00  0.00    +0.254 A 
ATOM     14  C   UNL     1      35.679 -19.213 -21.127  0.00  0.00    +0.225 A 
BRANCH  14  15
ATOM     15  C   UNL     1      35.046 -18.377 -22.155  0.00  0.00    +0.070 C 
ATOM     16  C   UNL     1      35.967 -17.297 -22.837  0.00  0.00    +0.009 C 
ATOM     17  C   UNL     1      34.490 -19.231 -23.348  0.00  0.00    +0.009 C 
ATOM     18  C   UNL     1      33.835 -17.560 -21.584  0.00  0.00    +0.009 C 
ENDBRANCH  14  15
ENDBRANCH   9  13
BRANCH   9  19
ATOM     19  O   UNL     1      35.104 -23.054 -20.384  0.00  0.00    -0.374 OA
ATOM     20  H   UNL     1      35.146 -22.544 -21.208  0.00  0.00    +0.211 HD
ENDBRANCH   9  19
ENDBRANCH   5   9
ENDBRANCH   2   5
BRANCH   3  21
ATOM     21  C   UNL     1      35.297 -24.547 -15.367  0.00  0.00    +0.185 C 
BRANCH  21  23
ATOM     22  O   UNL     1      37.857 -24.440 -14.238  0.00  0.00    -0.268 OA
ATOM     23  N   UNL     1      35.543 -24.292 -13.946  0.00  0.00    -0.230 N 
ATOM     24  N   UNL     1      34.665 -23.887 -11.768  0.00  0.00    -0.227 NA
ATOM     25  C   UNL     1      34.496 -24.063 -13.043  0.00  0.00    +0.138 C 
ATOM     26  C   UNL     1      36.875 -24.294 -13.512  0.00  0.00    +0.269 C 
ATOM     27  C   UNL     1      37.055 -24.098 -12.043  0.00  0.00    +0.116 C 
ATOM     28  C   UNL     1      35.950 -23.920 -11.308  0.00  0.00    +0.119 C 
BRANCH  25  29
ATOM     29  C   UNL     1      33.114 -24.012 -13.556  0.00  0.00    +0.032 C 
ATOM     30  C   UNL     1      32.546 -22.788 -13.909  0.00  0.00    +0.003 C 
ATOM     31  C   UNL     1      32.377 -25.188 -13.691  0.00  0.00    +0.003 C 
ATOM     32  C   UNL     1      31.240 -22.740 -14.397  0.00  0.00    +0.000 C 
ATOM     33  C   UNL     1      31.071 -25.140 -14.178  0.00  0.00    +0.000 C 
ATOM     34  C   UNL     1      30.503 -23.916 -14.531  0.00  0.00    +0.000 C 
ENDBRANCH  25  29
BRANCH  27  35
ATOM     35  N   UNL     1      38.332 -24.119 -11.566  0.00  0.00    -0.352 N 
ATOM     36  H   UNL     1      38.601 -24.801 -10.909  0.00  0.00    +0.143 HD
ATOM     37  H   UNL     1      38.986 -23.453 -11.880  0.00  0.00    +0.143 HD
ENDBRANCH  27  35
ENDBRANCH  21  23
ENDBRANCH   3  21
TORSDOF 10
ENDMDL
MODEL 4
REMARK VINA RESULT:      -8.7      6.191     13.197
REMARK  Name = 46936829
REMARK  10 active torsions:
REMARK  status: ('A' for Active; 'I' for Inactive)
REMARK    1  A    between atoms: N_2  and  C_5
REMARK    2  A    between atoms: C_3  and  C_21
REMARK    3  A    between atoms: C_5  and  C_6
REMARK    4  A    between atoms: C_5  and  C_9
REMARK    5  A    between atoms: C_9  and  C_13
REMARK    6  A    between atoms: C_9  and  O_19
REMARK    7  A    between atoms: C_14  and  C_15
REMARK    8  A    between atoms: C_21  and  N_23
REMARK    9  A    between atoms: C_25  and  C_29
REMARK   10  A    between atoms: C_27  and  N_35
REMARK                            x       y       z     vdW  Elec       q    Type
REMARK                         _______ _______ _______ _____ _____    ______ ____
ROOT
ATOM      1  O   UNL     1      33.852 -24.062 -17.918  0.00  0.00    -0.273 OA
ATOM      2  N   UNL     1      34.121 -21.764 -18.138  0.00  0.00    -0.302 N 
ATOM      3  C   UNL     1      33.822 -22.926 -17.449  0.00  0.00    +0.243 C 
ATOM      4  H   UNL     1      34.063 -20.906 -17.660  0.00  0.00    +0.150 HD
ENDROOT
BRANCH   2   5
ATOM      5  C   UNL     1      34.516 -21.752 -19.535  0.00  0.00    +0.107 C 
BRANCH   5   6
ATOM      6  C   UNL     1      35.950 -21.177 -19.686  0.00  0.00    +0.021 C 
ATOM      7  C   UNL     1      36.690 -21.169 -18.342  0.00  0.00    +0.002 C 
ATOM      8  C   UNL     1      36.793 -21.911 -20.734  0.00  0.00    +0.002 C 
ENDBRANCH   5   6
BRANCH   5   9
ATOM      9  C   UNL     1      33.437 -21.018 -20.369  0.00  0.00    +0.206 C 
BRANCH   9  13
ATOM     10  O   UNL     1      33.458 -18.586 -20.661  0.00  0.00    -0.421 OA
ATOM     11  N   UNL     1      34.781 -19.687 -22.091  0.00  0.00    -0.109 NA
ATOM     12  N   UNL     1      34.888 -18.336 -22.364  0.00  0.00    -0.112 NA
ATOM     13  C   UNL     1      33.937 -19.785 -21.090  0.00  0.00    +0.254 A 
ATOM     14  C   UNL     1      34.100 -17.732 -21.505  0.00  0.00    +0.225 A 
BRANCH  14  15
ATOM     15  C   UNL     1      33.824 -16.300 -21.335  0.00  0.00    +0.070 C 
ATOM     16  C   UNL     1      34.752 -15.529 -20.322  0.00  0.00    +0.009 C 
ATOM     17  C   UNL     1      33.968 -15.508 -22.682  0.00  0.00    +0.009 C 
ATOM     18  C   UNL     1      32.368 -16.040 -20.813  0.00  0.00    +0.009 C 
ENDBRANCH  14  15
ENDBRANCH   9  13
BRANCH   9  19
ATOM     19  O   UNL     1      32.382 -20.587 -19.502  0.00  0.00    -0.374 OA
ATOM     20  H   UNL     1      32.759 -20.271 -18.666  0.00  0.00    +0.211 HD
ENDBRANCH   9  19
ENDBRANCH   5   9
ENDBRANCH   2   5
BRANCH   3  21
ATOM     21  C   UNL     1      33.498 -22.637 -15.998  0.00  0.00    +0.185 C 
BRANCH  21  23
ATOM     22  O   UNL     1      30.869 -22.675 -16.963  0.00  0.00    -0.268 OA
ATOM     23  N   UNL     1      32.478 -23.577 -15.527  0.00  0.00    -0.230 N 
ATOM     24  N   UNL     1      31.873 -25.366 -14.074  0.00  0.00    -0.227 NA
ATOM     25  C   UNL     1      32.758 -24.550 -14.558  0.00  0.00    +0.138 C 
ATOM     26  C   UNL     1      31.195 -23.465 -16.078  0.00  0.00    +0.269 C 
ATOM     27  C   UNL     1      30.184 -24.404 -15.507  0.00  0.00    +0.116 C 
ATOM     28  C   UNL     1      30.604 -25.257 -14.564  0.00  0.00    +0.119 C 
BRANCH  25  29
ATOM     29  C   UNL     1      34.138 -24.669 -14.051  0.00  0.00    +0.032 C 
ATOM     30  C   UNL     1      34.458 -24.187 -12.781  0.00  0.00    +0.003 C 
ATOM     31  C   UNL     1      35.123 -25.263 -14.840  0.00  0.00    +0.003 C 
ATOM     32  C   UNL     1      35.763 -24.301 -12.301  0.00  0.00    +0.000 C 
ATOM     33  C   UNL     1      36.427 -25.377 -14.360  0.00  0.00    +0.000 C 
ATOM     34  C   UNL     1      36.747 -24.896 -13.090  0.00  0.00    +0.000 C 
ENDBRANCH  25  29
BRANCH  27  35
ATOM     35  N   UNL     1      28.912 -24.316 -15.990  0.00  0.00    -0.352 N 
ATOM     36  H   UNL     1      28.162 -24.688 -15.472  0.00  0.00    +0.143 HD
ATOM     37  H   UNL     1      28.744 -23.880 -16.857  0.00  0.00    +0.143 HD
ENDBRANCH  27  35
ENDBRANCH  21  23
ENDBRANCH   3  21
TORSDOF 10
ENDMDL
MODEL 5
REMARK VINA RESULT:      -8.5      2.289      3.571
REMARK  Name = 46936829
REMARK  10 active torsions:
REMARK  status: ('A' for Active; 'I' for Inactive)
REMARK    1  A    between atoms: N_2  and  C_5
REMARK    2  A    between atoms: C_3  and  C_21
REMARK    3  A    between atoms: C_5  and  C_6
REMARK    4  A    between atoms: C_5  and  C_9
REMARK    5  A    between atoms: C_9  and  C_13
REMARK    6  A    between atoms: C_9  and  O_19
REMARK    7  A    between atoms: C_14  and  C_15
REMARK    8  A    between atoms: C_21  and  N_23
REMARK    9  A    between atoms: C_25  and  C_29
REMARK   10  A    between atoms: C_27  and  N_35
REMARK                            x       y       z     vdW  Elec       q    Type
REMARK                         _______ _______ _______ _____ _____    ______ ____
ROOT
ATOM      1  O   UNL     1      34.931 -14.081 -22.427  0.00  0.00    -0.273 OA
ATOM      2  N   UNL     1      33.888 -15.935 -23.361  0.00  0.00    -0.302 N 
ATOM      3  C   UNL     1      34.070 -14.580 -23.148  0.00  0.00    +0.243 C 
ATOM      4  H   UNL     1      33.163 -16.223 -23.962  0.00  0.00    +0.150 HD
ENDROOT
BRANCH   2   5
ATOM      5  C   UNL     1      34.717 -16.952 -22.740  0.00  0.00    +0.107 C 
BRANCH   5   6
ATOM      6  C   UNL     1      34.688 -18.259 -23.578  0.00  0.00    +0.021 C 
ATOM      7  C   UNL     1      34.350 -17.971 -25.047  0.00  0.00    +0.002 C 
ATOM      8  C   UNL     1      35.988 -19.064 -23.497  0.00  0.00    +0.002 C 
ENDBRANCH   5   6
BRANCH   5   9
ATOM      9  C   UNL     1      34.296 -17.127 -21.260  0.00  0.00    +0.206 C 
BRANCH   9  13
ATOM     10  O   UNL     1      34.904 -19.332 -20.386  0.00  0.00    -0.421 OA
ATOM     11  N   UNL     1      32.750 -19.143 -20.961  0.00  0.00    -0.109 NA
ATOM     12  N   UNL     1      32.955 -20.425 -20.487  0.00  0.00    -0.112 NA
ATOM     13  C   UNL     1      33.915 -18.541 -20.882  0.00  0.00    +0.254 A 
ATOM     14  C   UNL     1      34.225 -20.491 -20.163  0.00  0.00    +0.225 A 
BRANCH  14  15
ATOM     15  C   UNL     1      34.993 -21.613 -19.607  0.00  0.00    +0.070 C 
ATOM     16  C   UNL     1      36.273 -21.233 -18.773  0.00  0.00    +0.009 C 
ATOM     17  C   UNL     1      34.131 -22.488 -18.630  0.00  0.00    +0.009 C 
ATOM     18  C   UNL     1      35.522 -22.575 -20.726  0.00  0.00    +0.009 C 
ENDBRANCH  14  15
ENDBRANCH   9  13
BRANCH   9  19
ATOM     19  O   UNL     1      33.151 -16.308 -20.995  0.00  0.00    -0.374 OA
ATOM     20  H   UNL     1      32.562 -16.768 -20.376  0.00  0.00    +0.211 HD
ENDBRANCH   9  19
ENDBRANCH   5   9
ENDBRANCH   2   5
BRANCH   3  21
ATOM     21  C   UNL     1      33.097 -13.759 -23.968  0.00  0.00    +0.185 C 
BRANCH  21  23
ATOM     22  O   UNL     1      31.674 -13.715 -21.557  0.00  0.00    -0.268 OA
ATOM     23  N   UNL     1      32.766 -12.528 -23.247  0.00  0.00    -0.230 N 
ATOM     24  N   UNL     1      32.846 -10.148 -23.138  0.00  0.00    -0.227 NA
ATOM     25  C   UNL     1      33.162 -11.267 -23.715  0.00  0.00    +0.138 C 
ATOM     26  C   UNL     1      32.024 -12.652 -22.066  0.00  0.00    +0.269 C 
ATOM     27  C   UNL     1      31.660 -11.357 -21.416  0.00  0.00    +0.116 C 
ATOM     28  C   UNL     1      32.091 -10.234 -22.004  0.00  0.00    +0.119 C 
BRANCH  25  29
ATOM     29  C   UNL     1      33.993 -11.190 -24.932  0.00  0.00    +0.032 C 
ATOM     30  C   UNL     1      35.055 -10.289 -24.995  0.00  0.00    +0.003 C 
ATOM     31  C   UNL     1      33.716 -12.021 -26.018  0.00  0.00    +0.003 C 
ATOM     32  C   UNL     1      35.841 -10.218 -26.145  0.00  0.00    +0.000 C 
ATOM     33  C   UNL     1      34.502 -11.949 -27.168  0.00  0.00    +0.000 C 
ATOM     34  C   UNL     1      35.564 -11.048 -27.232  0.00  0.00    +0.000 C 
ENDBRANCH  25  29
BRANCH  27  35
ATOM     35  N   UNL     1      30.914 -11.423 -20.277  0.00  0.00    -0.352 N 
ATOM     36  H   UNL     1      31.347 -11.331 -19.399  0.00  0.00    +0.143 HD
ATOM     37  H   UNL     1      29.940 -11.562 -20.334  0.00  0.00    +0.143 HD
ENDBRANCH  27  35
ENDBRANCH  21  23
ENDBRANCH   3  21
TORSDOF 10
ENDMDL
MODEL 6
REMARK VINA RESULT:      -8.4      2.196      9.400
REMARK  Name = 46936829
REMARK  10 active torsions:
REMARK  status: ('A' for Active; 'I' for Inactive)
REMARK    1  A    between atoms: N_2  and  C_5
REMARK    2  A    between atoms: C_3  and  C_21
REMARK    3  A    between atoms: C_5  and  C_6
REMARK    4  A    between atoms: C_5  and  C_9
REMARK    5  A    between atoms: C_9  and  C_13
REMARK    6  A    between atoms: C_9  and  O_19
REMARK    7  A    between atoms: C_14  and  C_15
REMARK    8  A    between atoms: C_21  and  N_23
REMARK    9  A    between atoms: C_25  and  C_29
REMARK   10  A    between atoms: C_27  and  N_35
REMARK                            x       y       z     vdW  Elec       q    Type
REMARK                         _______ _______ _______ _____ _____    ______ ____
ROOT
ATOM      1  O   UNL     1      35.262 -14.891 -20.040  0.00  0.00    -0.273 OA
ATOM      2  N   UNL     1      33.865 -15.354 -21.837  0.00  0.00    -0.302 N 
ATOM      3  C   UNL     1      34.822 -15.663 -20.887  0.00  0.00    +0.243 C 
ATOM      4  H   UNL     1      33.585 -16.055 -22.469  0.00  0.00    +0.150 HD
ENDROOT
BRANCH   2   5
ATOM      5  C   UNL     1      33.254 -14.041 -21.946  0.00  0.00    +0.107 C 
BRANCH   5   6
ATOM      6  C   UNL     1      31.968 -13.970 -21.079  0.00  0.00    +0.021 C 
ATOM      7  C   UNL     1      31.836 -15.204 -20.177  0.00  0.00    +0.002 C 
ATOM      8  C   UNL     1      31.874 -12.698 -20.230  0.00  0.00    +0.002 C 
ENDBRANCH   5   6
BRANCH   5   9
ATOM      9  C   UNL     1      33.043 -13.693 -23.440  0.00  0.00    +0.206 C 
BRANCH   9  13
ATOM     10  O   UNL     1      32.792 -11.283 -23.087  0.00  0.00    -0.421 OA
ATOM     11  N   UNL     1      34.214 -11.820 -24.729  0.00  0.00    -0.109 NA
ATOM     12  N   UNL     1      34.167 -10.441 -24.638  0.00  0.00    -0.112 NA
ATOM     13  C   UNL     1      33.396 -12.268 -23.805  0.00  0.00    +0.254 A 
ATOM     14  C   UNL     1      33.326 -10.173 -23.667  0.00  0.00    +0.225 A 
BRANCH  14  15
ATOM     15  C   UNL     1      32.895  -8.874 -23.135  0.00  0.00    +0.070 C 
ATOM     16  C   UNL     1      31.686  -8.186 -23.874  0.00  0.00    +0.009 C 
ATOM     17  C   UNL     1      32.435  -8.975 -21.638  0.00  0.00    +0.009 C 
ATOM     18  C   UNL     1      34.044  -7.808 -23.183  0.00  0.00    +0.009 C 
ENDBRANCH  14  15
ENDBRANCH   9  13
BRANCH   9  19
ATOM     19  O   UNL     1      31.663 -13.874 -23.777  0.00  0.00    -0.374 OA
ATOM     20  H   UNL     1      31.435 -13.301 -24.526  0.00  0.00    +0.211 HD
ENDBRANCH   9  19
ENDBRANCH   5   9
ENDBRANCH   2   5
BRANCH   3  21
ATOM     21  C   UNL     1      35.235 -17.118 -20.977  0.00  0.00    +0.185 C 
BRANCH  21  23
ATOM     22  O   UNL     1      35.688 -15.646 -23.316  0.00  0.00    -0.268 OA
ATOM     23  N   UNL     1      34.948 -17.626 -22.320  0.00  0.00    -0.230 N 
ATOM     24  N   UNL     1      34.116 -19.385 -23.697  0.00  0.00    -0.227 NA
ATOM     25  C   UNL     1      34.436 -18.914 -22.531  0.00  0.00    +0.138 C 
ATOM     26  C   UNL     1      35.197 -16.771 -23.400  0.00  0.00    +0.269 C 
ATOM     27  C   UNL     1      34.819 -17.321 -24.736  0.00  0.00    +0.116 C 
ATOM     28  C   UNL     1      34.314 -18.561 -24.767  0.00  0.00    +0.119 C 
BRANCH  25  29
ATOM     29  C   UNL     1      34.245 -19.800 -21.367  0.00  0.00    +0.032 C 
ATOM     30  C   UNL     1      32.972 -19.973 -20.824  0.00  0.00    +0.003 C 
ATOM     31  C   UNL     1      35.337 -20.467 -20.811  0.00  0.00    +0.003 C 
ATOM     32  C   UNL     1      32.791 -20.813 -19.725  0.00  0.00    +0.000 C 
ATOM     33  C   UNL     1      35.156 -21.306 -19.712  0.00  0.00    +0.000 C 
ATOM     34  C   UNL     1      33.883 -21.479 -19.169  0.00  0.00    +0.000 C 
ENDBRANCH  25  29
BRANCH  27  35
ATOM     35  N   UNL     1      35.017 -16.516 -25.818  0.00  0.00    -0.352 N 
ATOM     36  H   UNL     1      35.015 -16.899 -26.724  0.00  0.00    +0.143 HD
ATOM     37  H   UNL     1      35.160 -15.549 -25.693  0.00  0.00    +0.143 HD
ENDBRANCH  27  35
ENDBRANCH  21  23
ENDBRANCH   3  21
TORSDOF 10
ENDMDL
MODEL 7
REMARK VINA RESULT:      -8.3      2.149      4.020
REMARK  Name = 46936829
REMARK  10 active torsions:
REMARK  status: ('A' for Active; 'I' for Inactive)
REMARK    1  A    between atoms: N_2  and  C_5
REMARK    2  A    between atoms: C_3  and  C_21
REMARK    3  A    between atoms: C_5  and  C_6
REMARK    4  A    between atoms: C_5  and  C_9
REMARK    5  A    between atoms: C_9  and  C_13
REMARK    6  A    between atoms: C_9  and  O_19
REMARK    7  A    between atoms: C_14  and  C_15
REMARK    8  A    between atoms: C_21  and  N_23
REMARK    9  A    between atoms: C_25  and  C_29
REMARK   10  A    between atoms: C_27  and  N_35
REMARK                            x       y       z     vdW  Elec       q    Type
REMARK                         _______ _______ _______ _____ _____    ______ ____
ROOT
ATOM      1  O   UNL     1      32.549 -10.117 -24.696  0.00  0.00    -0.273 OA
ATOM      2  N   UNL     1      34.476 -11.227 -24.022  0.00  0.00    -0.302 N 
ATOM      3  C   UNL     1      33.593 -10.161 -24.051  0.00  0.00    +0.243 C 
ATOM      4  H   UNL     1      35.285 -11.152 -23.467  0.00  0.00    +0.150 HD
ENDROOT
BRANCH   2   5
ATOM      5  C   UNL     1      34.263 -12.450 -24.774  0.00  0.00    +0.107 C 
BRANCH   5   6
ATOM      6  C   UNL     1      33.898 -12.123 -26.247  0.00  0.00    +0.021 C 
ATOM      7  C   UNL     1      35.013 -11.322 -26.931  0.00  0.00    +0.002 C 
ATOM      8  C   UNL     1      33.569 -13.364 -27.083  0.00  0.00    +0.002 C 
ENDBRANCH   5   6
BRANCH   5   9
ATOM      9  C   UNL     1      33.229 -13.336 -24.036  0.00  0.00    +0.206 C 
BRANCH   9  13
ATOM     10  O   UNL     1      34.013 -15.626 -23.665  0.00  0.00    -0.421 OA
ATOM     11  N   UNL     1      34.231 -14.288 -21.885  0.00  0.00    -0.109 NA
ATOM     12  N   UNL     1      34.708 -15.539 -21.540  0.00  0.00    -0.112 NA
ATOM     13  C   UNL     1      33.837 -14.386 -23.133  0.00  0.00    +0.254 A 
ATOM     14  C   UNL     1      34.561 -16.287 -22.608  0.00  0.00    +0.225 A 
BRANCH  14  15
ATOM     15  C   UNL     1      34.901 -17.701 -22.815  0.00  0.00    +0.070 C 
ATOM     16  C   UNL     1      36.396 -18.106 -22.531  0.00  0.00    +0.009 C 
ATOM     17  C   UNL     1      34.054 -18.650 -21.895  0.00  0.00    +0.009 C 
ATOM     18  C   UNL     1      34.642 -18.157 -24.293  0.00  0.00    +0.009 C 
ENDBRANCH  14  15
ENDBRANCH   9  13
BRANCH   9  19
ATOM     19  O   UNL     1      32.433 -14.034 -25.000  0.00  0.00    -0.374 OA
ATOM     20  H   UNL     1      32.740 -14.951 -25.071  0.00  0.00    +0.211 HD
ENDBRANCH   9  19
ENDBRANCH   5   9
ENDBRANCH   2   5
BRANCH   3  21
ATOM     21  C   UNL     1      34.045  -9.048 -23.128  0.00  0.00    +0.185 C 
BRANCH  21  23
ATOM     22  O   UNL     1      34.148  -6.898 -24.918  0.00  0.00    -0.268 OA
ATOM     23  N   UNL     1      33.060  -7.966 -23.147  0.00  0.00    -0.230 N 
ATOM     24  N   UNL     1      31.102  -6.976 -22.214  0.00  0.00    -0.227 NA
ATOM     25  C   UNL     1      31.968  -7.942 -22.268  0.00  0.00    +0.138 C 
ATOM     26  C   UNL     1      33.249  -6.938 -24.079  0.00  0.00    +0.269 C 
ATOM     27  C   UNL     1      32.251  -5.829 -24.002  0.00  0.00    +0.116 C 
ATOM     28  C   UNL     1      31.282  -5.941 -23.085  0.00  0.00    +0.119 C 
BRANCH  25  29
ATOM     29  C   UNL     1      31.777  -9.076 -21.344  0.00  0.00    +0.032 C 
ATOM     30  C   UNL     1      31.115 -10.225 -21.778  0.00  0.00    +0.003 C 
ATOM     31  C   UNL     1      32.259  -9.000 -20.038  0.00  0.00    +0.003 C 
ATOM     32  C   UNL     1      30.936 -11.298 -20.905  0.00  0.00    +0.000 C 
ATOM     33  C   UNL     1      32.080 -10.073 -19.165  0.00  0.00    +0.000 C 
ATOM     34  C   UNL     1      31.418 -11.222 -19.599  0.00  0.00    +0.000 C 
ENDBRANCH  25  29
BRANCH  27  35
ATOM     35  N   UNL     1      32.409  -4.790 -24.870  0.00  0.00    -0.352 N 
ATOM     36  H   UNL     1      33.021  -4.877 -25.636  0.00  0.00    +0.143 HD
ATOM     37  H   UNL     1      31.909  -3.953 -24.732  0.00  0.00    +0.143 HD
ENDBRANCH  27  35
ENDBRANCH  21  23
ENDBRANCH   3  21
TORSDOF 10
ENDMDL
MODEL 8
REMARK VINA RESULT:      -8.1      2.862      5.051
REMARK  Name = 46936829
REMARK  10 active torsions:
REMARK  status: ('A' for Active; 'I' for Inactive)
REMARK    1  A    between atoms: N_2  and  C_5
REMARK    2  A    between atoms: C_3  and  C_21
REMARK    3  A    between atoms: C_5  and  C_6
REMARK    4  A    between atoms: C_5  and  C_9
REMARK    5  A    between atoms: C_9  and  C_13
REMARK    6  A    between atoms: C_9  and  O_19
REMARK    7  A    between atoms: C_14  and  C_15
REMARK    8  A    between atoms: C_21  and  N_23
REMARK    9  A    between atoms: C_25  and  C_29
REMARK   10  A    between atoms: C_27  and  N_35
REMARK                            x       y       z     vdW  Elec       q    Type
REMARK                         _______ _______ _______ _____ _____    ______ ____
ROOT
ATOM      1  O   UNL     1      35.116 -14.735 -22.445  0.00  0.00    -0.273 OA
ATOM      2  N   UNL     1      33.816 -16.619 -22.843  0.00  0.00    -0.302 N 
ATOM      3  C   UNL     1      34.029 -15.264 -22.664  0.00  0.00    +0.243 C 
ATOM      4  H   UNL     1      32.899 -16.933 -23.014  0.00  0.00    +0.150 HD
ENDROOT
BRANCH   2   5
ATOM      5  C   UNL     1      34.884 -17.601 -22.789  0.00  0.00    +0.107 C 
BRANCH   5   6
ATOM      6  C   UNL     1      34.573 -18.792 -23.735  0.00  0.00    +0.021 C 
ATOM      7  C   UNL     1      34.247 -18.304 -25.153  0.00  0.00    +0.002 C 
ATOM      8  C   UNL     1      35.694 -19.834 -23.794  0.00  0.00    +0.002 C 
ENDBRANCH   5   6
BRANCH   5   9
ATOM      9  C   UNL     1      35.142 -18.002 -21.315  0.00  0.00    +0.206 C 
BRANCH   9  13
ATOM     10  O   UNL     1      34.883 -20.132 -20.135  0.00  0.00    -0.421 OA
ATOM     11  N   UNL     1      32.967 -19.288 -20.924  0.00  0.00    -0.109 NA
ATOM     12  N   UNL     1      32.678 -20.480 -20.287  0.00  0.00    -0.112 NA
ATOM     13  C   UNL     1      34.265 -19.125 -20.810  0.00  0.00    +0.254 A 
ATOM     14  C   UNL     1      33.825 -20.937 -19.841  0.00  0.00    +0.225 A 
BRANCH  14  15
ATOM     15  C   UNL     1      34.115 -22.164 -19.089  0.00  0.00    +0.070 C 
ATOM     16  C   UNL     1      34.229 -23.488 -19.934  0.00  0.00    +0.009 C 
ATOM     17  C   UNL     1      35.476 -22.072 -18.314  0.00  0.00    +0.009 C 
ATOM     18  C   UNL     1      33.009 -22.473 -18.020  0.00  0.00    +0.009 C 
ENDBRANCH  14  15
ENDBRANCH   9  13
BRANCH   9  19
ATOM     19  O   UNL     1      34.893 -16.874 -20.469  0.00  0.00    -0.374 OA
ATOM     20  H   UNL     1      34.721 -17.180 -19.564  0.00  0.00    +0.211 HD
ENDBRANCH   9  19
ENDBRANCH   5   9
ENDBRANCH   2   5
BRANCH   3  21
ATOM     21  C   UNL     1      32.744 -14.480 -22.830  0.00  0.00    +0.185 C 
BRANCH  21  23
ATOM     22  O   UNL     1      33.414 -14.985 -25.501  0.00  0.00    -0.268 OA
ATOM     23  N   UNL     1      32.938 -13.425 -23.827  0.00  0.00    -0.230 N 
ATOM     24  N   UNL     1      32.996 -11.100 -24.348  0.00  0.00    -0.227 NA
ATOM     25  C   UNL     1      32.781 -12.069 -23.511  0.00  0.00    +0.138 C 
ATOM     26  C   UNL     1      33.299 -13.821 -25.122  0.00  0.00    +0.269 C 
ATOM     27  C   UNL     1      33.551 -12.697 -26.073  0.00  0.00    +0.116 C 
ATOM     28  C   UNL     1      33.385 -11.452 -25.608  0.00  0.00    +0.119 C 
BRANCH  25  29
ATOM     29  C   UNL     1      32.343 -11.704 -22.151  0.00  0.00    +0.032 C 
ATOM     30  C   UNL     1      32.275 -12.678 -21.155  0.00  0.00    +0.003 C 
ATOM     31  C   UNL     1      31.998 -10.384 -21.860  0.00  0.00    +0.003 C 
ATOM     32  C   UNL     1      31.862 -12.333 -19.868  0.00  0.00    +0.000 C 
ATOM     33  C   UNL     1      31.586 -10.038 -20.573  0.00  0.00    +0.000 C 
ATOM     34  C   UNL     1      31.518 -11.013 -19.577  0.00  0.00    +0.000 C 
ENDBRANCH  25  29
BRANCH  27  35
ATOM     35  N   UNL     1      33.932 -13.029 -27.339  0.00  0.00    -0.352 N 
ATOM     36  H   UNL     1      33.826 -13.954 -27.658  0.00  0.00    +0.143 HD
ATOM     37  H   UNL     1      34.313 -12.343 -27.934  0.00  0.00    +0.143 HD
ENDBRANCH  27  35
ENDBRANCH  21  23
ENDBRANCH   3  21
TORSDOF 10
ENDMDL
MODEL 9
REMARK VINA RESULT:      -8.1      5.996     12.739
REMARK  Name = 46936829
REMARK  10 active torsions:
REMARK  status: ('A' for Active; 'I' for Inactive)
REMARK    1  A    between atoms: N_2  and  C_5
REMARK    2  A    between atoms: C_3  and  C_21
REMARK    3  A    between atoms: C_5  and  C_6
REMARK    4  A    between atoms: C_5  and  C_9
REMARK    5  A    between atoms: C_9  and  C_13
REMARK    6  A    between atoms: C_9  and  O_19
REMARK    7  A    between atoms: C_14  and  C_15
REMARK    8  A    between atoms: C_21  and  N_23
REMARK    9  A    between atoms: C_25  and  C_29
REMARK   10  A    between atoms: C_27  and  N_35
REMARK                            x       y       z     vdW  Elec       q    Type
REMARK                         _______ _______ _______ _____ _____    ______ ____
ROOT
ATOM      1  O   UNL     1      33.398 -23.891 -18.308  0.00  0.00    -0.273 OA
ATOM      2  N   UNL     1      33.756 -21.609 -18.556  0.00  0.00    -0.302 N 
ATOM      3  C   UNL     1      33.201 -22.728 -17.962  0.00  0.00    +0.243 C 
ATOM      4  H   UNL     1      33.527 -20.723 -18.195  0.00  0.00    +0.150 HD
ENDROOT
BRANCH   2   5
ATOM      5  C   UNL     1      34.660 -21.681 -19.689  0.00  0.00    +0.107 C 
BRANCH   5   6
ATOM      6  C   UNL     1      36.099 -21.285 -19.260  0.00  0.00    +0.021 C 
ATOM      7  C   UNL     1      36.423 -21.809 -17.855  0.00  0.00    +0.002 C 
ATOM      8  C   UNL     1      37.178 -21.747 -20.243  0.00  0.00    +0.002 C 
ENDBRANCH   5   6
BRANCH   5   9
ATOM      9  C   UNL     1      34.086 -20.846 -20.861  0.00  0.00    +0.206 C 
BRANCH   9  13
ATOM     10  O   UNL     1      33.665 -18.445 -21.096  0.00  0.00    -0.421 OA
ATOM     11  N   UNL     1      35.824 -18.970 -20.833  0.00  0.00    -0.109 NA
ATOM     12  N   UNL     1      35.730 -17.596 -20.951  0.00  0.00    -0.112 NA
ATOM     13  C   UNL     1      34.595 -19.423 -20.922  0.00  0.00    +0.254 A 
ATOM     14  C   UNL     1      34.453 -17.335 -21.103  0.00  0.00    +0.225 A 
BRANCH  14  15
ATOM     15  C   UNL     1      33.775 -16.042 -21.273  0.00  0.00    +0.070 C 
ATOM     16  C   UNL     1      32.274 -15.978 -20.803  0.00  0.00    +0.009 C 
ATOM     17  C   UNL     1      34.488 -14.895 -20.474  0.00  0.00    +0.009 C 
ATOM     18  C   UNL     1      33.739 -15.591 -22.774  0.00  0.00    +0.009 C 
ENDBRANCH  14  15
ENDBRANCH   9  13
BRANCH   9  19
ATOM     19  O   UNL     1      32.662 -20.768 -20.732  0.00  0.00    -0.374 OA
ATOM     20  H   UNL     1      32.244 -21.243 -21.468  0.00  0.00    +0.211 HD
ENDBRANCH   9  19
ENDBRANCH   5   9
ENDBRANCH   2   5
BRANCH   3  21
ATOM     21  C   UNL     1      32.344 -22.351 -16.771  0.00  0.00    +0.185 C 
BRANCH  21  23
ATOM     22  O   UNL     1      34.865 -22.939 -15.702  0.00  0.00    -0.268 OA
ATOM     23  N   UNL     1      32.559 -23.314 -15.689  0.00  0.00    -0.230 N 
ATOM     24  N   UNL     1      31.644 -24.906 -14.169  0.00  0.00    -0.227 NA
ATOM     25  C   UNL     1      31.495 -24.006 -15.092  0.00  0.00    +0.138 C 
ATOM     26  C   UNL     1      33.877 -23.531 -15.271  0.00  0.00    +0.269 C 
ATOM     27  C   UNL     1      34.036 -24.574 -14.213  0.00  0.00    +0.116 C 
ATOM     28  C   UNL     1      32.921 -25.166 -13.766  0.00  0.00    +0.119 C 
BRANCH  25  29
ATOM     29  C   UNL     1      30.119 -23.701 -15.526  0.00  0.00    +0.032 C 
ATOM     30  C   UNL     1      29.463 -24.552 -16.416  0.00  0.00    +0.003 C 
ATOM     31  C   UNL     1      29.472 -22.563 -15.044  0.00  0.00    +0.003 C 
ATOM     32  C   UNL     1      28.161 -24.265 -16.824  0.00  0.00    +0.000 C 
ATOM     33  C   UNL     1      28.170 -22.276 -15.453  0.00  0.00    +0.000 C 
ATOM     34  C   UNL     1      27.514 -23.127 -16.343  0.00  0.00    +0.000 C 
ENDBRANCH  25  29
BRANCH  27  35
ATOM     35  N   UNL     1      35.304 -24.842 -13.791  0.00  0.00    -0.352 N 
ATOM     36  H   UNL     1      35.544 -24.720 -12.845  0.00  0.00    +0.143 HD
ATOM     37  H   UNL     1      35.980 -25.160 -14.433  0.00  0.00    +0.143 HD
ENDBRANCH  27  35
ENDBRANCH  21  23
ENDBRANCH   3  21
TORSDOF 10
ENDMDL
