MODEL 1
REMARK VINA RESULT:      -9.9      0.000      0.000
REMARK  Name = 447508
REMARK  3 active torsions:
REMARK  status: ('A' for Active; 'I' for Inactive)
REMARK    1  A    between atoms: C_2  and  C_12
REMARK    2  A    between atoms: C_8  and  C_23
REMARK    3  A    between atoms: C_14  and  O_19
REMARK                            x       y       z     vdW  Elec       q    Type
REMARK                         _______ _______ _______ _____ _____    ______ ____
ROOT
ATOM      1  N   UNL     1      32.596 -25.126 -13.914  0.00  0.00    -0.312 N 
ATOM      2  C   UNL     1      33.553 -24.230 -14.309  0.00  0.00    +0.051 C 
ATOM      3  C   UNL     1      31.573 -23.638 -15.225  0.00  0.00    +0.015 C 
ATOM      4  C   UNL     1      31.377 -24.789 -14.458  0.00  0.00    +0.048 C 
ATOM      5  C   UNL     1      32.951 -23.298 -15.121  0.00  0.00    +0.016 C 
ATOM      6  C   UNL     1      30.471 -23.077 -15.899  0.00  0.00    +0.004 C 
ATOM      7  C   UNL     1      30.129 -25.409 -14.331  0.00  0.00    +0.015 C 
ATOM      8  C   UNL     1      29.216 -23.686 -15.781  0.00  0.00    +0.031 C 
ATOM      9  C   UNL     1      29.050 -24.834 -15.009  0.00  0.00    +0.004 C 
ATOM     10  H   UNL     1      32.756 -25.899 -13.326  0.00  0.00    +0.152 HD
ENDROOT
BRANCH   2  12
ATOM     11 BR   UNL     1      38.331 -26.565 -14.865  0.00  0.00    -0.046 Br
ATOM     12  C   UNL     1      34.928 -24.343 -13.885  0.00  0.00    +0.047 C 
ATOM     13  C   UNL     1      35.387 -23.528 -12.849  0.00  0.00    +0.000 C 
ATOM     14  C   UNL     1      35.797 -25.251 -14.492  0.00  0.00    +0.141 C 
ATOM     15  C   UNL     1      36.713 -23.620 -12.423  0.00  0.00    -0.021 C 
ATOM     16  C   UNL     1      37.122 -25.344 -14.065  0.00  0.00    +0.068 C 
ATOM     17  C   UNL     1      37.579 -24.528 -13.031  0.00  0.00    +0.005 C 
ATOM     18  C   UNL     1      37.202 -22.749 -11.316  0.00  0.00    +0.031 C 
BRANCH  14  19
ATOM     19  O   UNL     1      35.345 -26.048 -15.506  0.00  0.00    -0.505 OA
ATOM     20  H   UNL     1      34.946 -25.662 -16.261  0.00  0.00    +0.292 HD
ENDBRANCH  14  19
ENDBRANCH   2  12
BRANCH   8  23
ATOM     21  N   UNL     1      27.196 -22.244 -15.828  0.00  0.00    -0.343 N 
ATOM     22  N   UNL     1      27.850 -23.416 -17.740  0.00  0.00    -0.285 NA
ATOM     23  C   UNL     1      28.073 -23.111 -16.474  0.00  0.00    +0.117 C 
ATOM     24  H   UNL     1      26.428 -21.866 -16.315  0.00  0.00    +0.144 HD
ATOM     25  H   UNL     1      27.343 -22.007 -14.883  0.00  0.00    +0.144 HD
ATOM     26  H   UNL     1      27.076 -23.029 -18.211  0.00  0.00    +0.188 HD
ENDBRANCH   8  23
TORSDOF 3
ENDMDL
MODEL 2
REMARK VINA RESULT:      -9.7      4.815      5.872
REMARK  Name = 447508
REMARK  3 active torsions:
REMARK  status: ('A' for Active; 'I' for Inactive)
REMARK    1  A    between atoms: C_2  and  C_12
REMARK    2  A    between atoms: C_8  and  C_23
REMARK    3  A    between atoms: C_14  and  O_19
REMARK                            x       y       z     vdW  Elec       q    Type
REMARK                         _______ _______ _______ _____ _____    ______ ____
ROOT
ATOM      1  N   UNL     1      35.314 -23.124 -16.673  0.00  0.00    -0.312 N 
ATOM      2  C   UNL     1      36.584 -22.956 -16.192  0.00  0.00    +0.051 C 
ATOM      3  C   UNL     1      36.325 -21.676 -18.037  0.00  0.00    +0.015 C 
ATOM      4  C   UNL     1      35.126 -22.354 -17.799  0.00  0.00    +0.048 C 
ATOM      5  C   UNL     1      37.234 -22.066 -17.014  0.00  0.00    +0.016 C 
ATOM      6  C   UNL     1      36.404 -20.809 -19.144  0.00  0.00    +0.004 C 
ATOM      7  C   UNL     1      34.001 -22.208 -18.617  0.00  0.00    +0.015 C 
ATOM      8  C   UNL     1      35.285 -20.653 -19.971  0.00  0.00    +0.031 C 
ATOM      9  C   UNL     1      34.104 -21.342 -19.710  0.00  0.00    +0.004 C 
ATOM     10  H   UNL     1      34.633 -23.710 -16.272  0.00  0.00    +0.152 HD
ENDROOT
BRANCH   2  12
ATOM     11 BR   UNL     1      35.790 -24.363 -11.095  0.00  0.00    -0.046 Br
ATOM     12  C   UNL     1      37.055 -23.646 -15.015  0.00  0.00    +0.047 C 
ATOM     13  C   UNL     1      38.281 -24.310 -15.062  0.00  0.00    +0.000 C 
ATOM     14  C   UNL     1      36.305 -23.656 -13.838  0.00  0.00    +0.141 C 
ATOM     15  C   UNL     1      38.756 -24.984 -13.936  0.00  0.00    -0.021 C 
ATOM     16  C   UNL     1      36.779 -24.328 -12.712  0.00  0.00    +0.068 C 
ATOM     17  C   UNL     1      38.005 -24.992 -12.761  0.00  0.00    +0.005 C 
ATOM     18  C   UNL     1      40.066 -25.693 -13.989  0.00  0.00    +0.031 C 
BRANCH  14  19
ATOM     19  O   UNL     1      35.104 -23.005 -13.794  0.00  0.00    -0.505 OA
ATOM     20  H   UNL     1      34.446 -23.194 -14.432  0.00  0.00    +0.292 HD
ENDBRANCH  14  19
ENDBRANCH   2  12
BRANCH   8  23
ATOM     21  N   UNL     1      36.461 -18.928 -21.316  0.00  0.00    -0.343 N 
ATOM     22  N   UNL     1      34.368 -19.720 -21.986  0.00  0.00    -0.285 NA
ATOM     23  C   UNL     1      35.360 -19.758 -21.116  0.00  0.00    +0.117 C 
ATOM     24  H   UNL     1      36.492 -18.330 -22.098  0.00  0.00    +0.144 HD
ATOM     25  H   UNL     1      37.209 -18.940 -20.676  0.00  0.00    +0.144 HD
ATOM     26  H   UNL     1      34.416 -19.115 -22.762  0.00  0.00    +0.188 HD
ENDBRANCH   8  23
TORSDOF 3
ENDMDL
MODEL 3
REMARK VINA RESULT:      -9.6     10.070     11.890
REMARK  Name = 447508
REMARK  3 active torsions:
REMARK  status: ('A' for Active; 'I' for Inactive)
REMARK    1  A    between atoms: C_2  and  C_12
REMARK    2  A    between atoms: C_8  and  C_23
REMARK    3  A    between atoms: C_14  and  O_19
REMARK                            x       y       z     vdW  Elec       q    Type
REMARK                         _______ _______ _______ _____ _____    ______ ____
ROOT
ATOM      1  N   UNL     1      35.272 -17.191 -21.881  0.00  0.00    -0.312 N 
ATOM      2  C   UNL     1      33.950 -16.839 -21.944  0.00  0.00    +0.051 C 
ATOM      3  C   UNL     1      34.127 -18.835 -20.899  0.00  0.00    +0.015 C 
ATOM      4  C   UNL     1      35.410 -18.406 -21.248  0.00  0.00    +0.048 C 
ATOM      5  C   UNL     1      33.217 -17.836 -21.345  0.00  0.00    +0.016 C 
ATOM      6  C   UNL     1      33.984 -20.067 -20.230  0.00  0.00    +0.004 C 
ATOM      7  C   UNL     1      36.560 -19.150 -20.961  0.00  0.00    +0.015 C 
ATOM      8  C   UNL     1      35.125 -20.821 -19.937  0.00  0.00    +0.031 C 
ATOM      9  C   UNL     1      36.392 -20.368 -20.297  0.00  0.00    +0.004 C 
ATOM     10  H   UNL     1      36.015 -16.654 -22.237  0.00  0.00    +0.152 HD
ENDROOT
BRANCH   2  12
ATOM     11 BR   UNL     1      33.396 -13.882 -26.365  0.00  0.00    -0.046 Br
ATOM     12  C   UNL     1      33.515 -15.607 -22.558  0.00  0.00    +0.047 C 
ATOM     13  C   UNL     1      32.951 -14.613 -21.758  0.00  0.00    +0.000 C 
ATOM     14  C   UNL     1      33.652 -15.400 -23.932  0.00  0.00    +0.141 C 
ATOM     15  C   UNL     1      32.523 -13.414 -22.331  0.00  0.00    -0.021 C 
ATOM     16  C   UNL     1      33.226 -14.201 -24.504  0.00  0.00    +0.068 C 
ATOM     17  C   UNL     1      32.661 -13.208 -23.703  0.00  0.00    +0.005 C 
ATOM     18  C   UNL     1      31.920 -12.353 -21.474  0.00  0.00    +0.031 C 
BRANCH  14  19
ATOM     19  O   UNL     1      34.206 -16.375 -24.713  0.00  0.00    -0.505 OA
ATOM     20  H   UNL     1      33.969 -17.271 -24.579  0.00  0.00    +0.292 HD
ENDBRANCH  14  19
ENDBRANCH   2  12
BRANCH   8  23
ATOM     21  N   UNL     1      33.991 -23.004 -19.599  0.00  0.00    -0.343 N 
ATOM     22  N   UNL     1      35.806 -22.401 -18.259  0.00  0.00    -0.285 NA
ATOM     23  C   UNL     1      34.984 -22.094 -19.246  0.00  0.00    +0.117 C 
ATOM     24  H   UNL     1      33.912 -23.860 -19.118  0.00  0.00    +0.144 HD
ATOM     25  H   UNL     1      33.366 -22.792 -20.330  0.00  0.00    +0.144 HD
ATOM     26  H   UNL     1      35.713 -23.261 -17.789  0.00  0.00    +0.188 HD
ENDBRANCH   8  23
TORSDOF 3
ENDMDL
MODEL 4
REMARK VINA RESULT:      -9.4     10.516     12.252
REMARK  Name = 447508
REMARK  3 active torsions:
REMARK  status: ('A' for Active; 'I' for Inactive)
REMARK    1  A    between atoms: C_2  and  C_12
REMARK    2  A    between atoms: C_8  and  C_23
REMARK    3  A    between atoms: C_14  and  O_19
REMARK                            x       y       z     vdW  Elec       q    Type
REMARK                         _______ _______ _______ _____ _____    ______ ____
ROOT
ATOM      1  N   UNL     1      34.840 -16.307 -21.804  0.00  0.00    -0.312 N 
ATOM      2  C   UNL     1      33.567 -15.824 -21.663  0.00  0.00    +0.051 C 
ATOM      3  C   UNL     1      33.620 -17.968 -20.949  0.00  0.00    +0.015 C 
ATOM      4  C   UNL     1      34.902 -17.615 -21.377  0.00  0.00    +0.048 C 
ATOM      5  C   UNL     1      32.789 -16.829 -21.136  0.00  0.00    +0.016 C 
ATOM      6  C   UNL     1      33.405 -19.271 -20.456  0.00  0.00    +0.004 C 
ATOM      7  C   UNL     1      35.983 -18.502 -21.336  0.00  0.00    +0.015 C 
ATOM      8  C   UNL     1      34.478 -20.169 -20.410  0.00  0.00    +0.031 C 
ATOM      9  C   UNL     1      35.746 -19.788 -20.843  0.00  0.00    +0.004 C 
ATOM     10  H   UNL     1      35.600 -15.795 -22.161  0.00  0.00    +0.152 HD
ENDROOT
BRANCH   2  12
ATOM     11 BR   UNL     1      33.958 -11.798 -25.159  0.00  0.00    -0.046 Br
ATOM     12  C   UNL     1      33.215 -14.475 -22.035  0.00  0.00    +0.047 C 
ATOM     13  C   UNL     1      32.389 -13.732 -21.191  0.00  0.00    +0.000 C 
ATOM     14  C   UNL     1      33.688 -13.908 -23.220  0.00  0.00    +0.141 C 
ATOM     15  C   UNL     1      32.036 -12.425 -21.531  0.00  0.00    -0.021 C 
ATOM     16  C   UNL     1      33.335 -12.602 -23.559  0.00  0.00    +0.068 C 
ATOM     17  C   UNL     1      32.510 -11.861 -22.715  0.00  0.00    +0.005 C 
ATOM     18  C   UNL     1      31.154 -11.632 -20.627  0.00  0.00    +0.031 C 
BRANCH  14  19
ATOM     19  O   UNL     1      34.496 -14.638 -24.045  0.00  0.00    -0.505 OA
ATOM     20  H   UNL     1      34.346 -14.635 -24.970  0.00  0.00    +0.292 HD
ENDBRANCH  14  19
ENDBRANCH   2  12
BRANCH   8  23
ATOM     21  N   UNL     1      32.982 -22.045 -19.771  0.00  0.00    -0.343 N 
ATOM     22  N   UNL     1      35.297 -22.257 -19.548  0.00  0.00    -0.285 NA
ATOM     23  C   UNL     1      34.263 -21.515 -19.901  0.00  0.00    +0.117 C 
ATOM     24  H   UNL     1      32.858 -22.958 -19.425  0.00  0.00    +0.144 HD
ATOM     25  H   UNL     1      32.198 -21.506 -20.027  0.00  0.00    +0.144 HD
ATOM     26  H   UNL     1      35.155 -23.168 -19.202  0.00  0.00    +0.188 HD
ENDBRANCH   8  23
TORSDOF 3
ENDMDL
MODEL 5
REMARK VINA RESULT:      -9.3      1.685      1.954
REMARK  Name = 447508
REMARK  3 active torsions:
REMARK  status: ('A' for Active; 'I' for Inactive)
REMARK    1  A    between atoms: C_2  and  C_12
REMARK    2  A    between atoms: C_8  and  C_23
REMARK    3  A    between atoms: C_14  and  O_19
REMARK                            x       y       z     vdW  Elec       q    Type
REMARK                         _______ _______ _______ _____ _____    ______ ____
ROOT
ATOM      1  N   UNL     1      32.498 -24.498 -14.526  0.00  0.00    -0.312 N 
ATOM      2  C   UNL     1      33.348 -23.617 -15.139  0.00  0.00    +0.051 C 
ATOM      3  C   UNL     1      31.232 -23.173 -15.798  0.00  0.00    +0.015 C 
ATOM      4  C   UNL     1      31.199 -24.251 -14.910  0.00  0.00    +0.048 C 
ATOM      5  C   UNL     1      32.594 -22.784 -15.933  0.00  0.00    +0.016 C 
ATOM      6  C   UNL     1      30.019 -22.711 -16.348  0.00  0.00    +0.004 C 
ATOM      7  C   UNL     1      30.011 -24.892 -14.543  0.00  0.00    +0.015 C 
ATOM      8  C   UNL     1      28.823 -23.343 -15.990  0.00  0.00    +0.031 C 
ATOM      9  C   UNL     1      28.821 -24.416 -15.101  0.00  0.00    +0.004 C 
ATOM     10  H   UNL     1      32.775 -25.207 -13.902  0.00  0.00    +0.152 HD
ENDROOT
BRANCH   2  12
ATOM     11 BR   UNL     1      37.475 -25.257 -12.160  0.00  0.00    -0.046 Br
ATOM     12  C   UNL     1      34.773 -23.649 -14.917  0.00  0.00    +0.047 C 
ATOM     13  C   UNL     1      35.614 -22.983 -15.810  0.00  0.00    +0.000 C 
ATOM     14  C   UNL     1      35.318 -24.329 -13.826  0.00  0.00    +0.141 C 
ATOM     15  C   UNL     1      36.996 -23.000 -15.615  0.00  0.00    -0.021 C 
ATOM     16  C   UNL     1      36.699 -24.345 -13.630  0.00  0.00    +0.068 C 
ATOM     17  C   UNL     1      37.537 -23.680 -14.525  0.00  0.00    +0.005 C 
ATOM     18  C   UNL     1      37.892 -22.289 -16.571  0.00  0.00    +0.031 C 
BRANCH  14  19
ATOM     19  O   UNL     1      34.492 -24.979 -12.952  0.00  0.00    -0.505 OA
ATOM     20  H   UNL     1      34.660 -24.937 -12.032  0.00  0.00    +0.292 HD
ENDBRANCH  14  19
ENDBRANCH   2  12
BRANCH   8  23
ATOM     21  N   UNL     1      26.660 -22.139 -15.789  0.00  0.00    -0.343 N 
ATOM     22  N   UNL     1      27.268 -23.138 -17.811  0.00  0.00    -0.285 NA
ATOM     23  C   UNL     1      27.567 -22.870 -16.553  0.00  0.00    +0.117 C 
ATOM     24  H   UNL     1      25.816 -21.829 -16.189  0.00  0.00    +0.144 HD
ATOM     25  H   UNL     1      26.864 -21.932 -14.847  0.00  0.00    +0.144 HD
ATOM     26  H   UNL     1      26.418 -22.820 -18.194  0.00  0.00    +0.188 HD
ENDBRANCH   8  23
TORSDOF 3
ENDMDL
MODEL 6
REMARK VINA RESULT:      -9.3     15.427     16.857
REMARK  Name = 447508
REMARK  3 active torsions:
REMARK  status: ('A' for Active; 'I' for Inactive)
REMARK    1  A    between atoms: C_2  and  C_12
REMARK    2  A    between atoms: C_8  and  C_23
REMARK    3  A    between atoms: C_14  and  O_19
REMARK                            x       y       z     vdW  Elec       q    Type
REMARK                         _______ _______ _______ _____ _____    ______ ____
ROOT
ATOM      1  N   UNL     1      33.540 -10.252 -23.544  0.00  0.00    -0.312 N 
ATOM      2  C   UNL     1      32.588 -11.069 -22.997  0.00  0.00    +0.051 C 
ATOM      3  C   UNL     1      31.828  -8.940 -22.974  0.00  0.00    +0.015 C 
ATOM      4  C   UNL     1      33.104  -8.946 -23.543  0.00  0.00    +0.048 C 
ATOM      5  C   UNL     1      31.516 -10.286 -22.634  0.00  0.00    +0.016 C 
ATOM      6  C   UNL     1      31.146  -7.713 -22.852  0.00  0.00    +0.004 C 
ATOM      7  C   UNL     1      33.733  -7.782 -23.998  0.00  0.00    +0.015 C 
ATOM      8  C   UNL     1      31.763  -6.541 -23.303  0.00  0.00    +0.031 C 
ATOM      9  C   UNL     1      33.037  -6.577 -23.866  0.00  0.00    +0.004 C 
ATOM     10  H   UNL     1      34.412 -10.554 -23.888  0.00  0.00    +0.152 HD
ENDROOT
BRANCH   2  12
ATOM     11 BR   UNL     1      33.964 -15.712 -25.264  0.00  0.00    -0.046 Br
ATOM     12  C   UNL     1      32.782 -12.493 -22.871  0.00  0.00    +0.047 C 
ATOM     13  C   UNL     1      32.536 -13.106 -21.642  0.00  0.00    +0.000 C 
ATOM     14  C   UNL     1      33.208 -13.261 -23.957  0.00  0.00    +0.141 C 
ATOM     15  C   UNL     1      32.717 -14.482 -21.497  0.00  0.00    -0.021 C 
ATOM     16  C   UNL     1      33.388 -14.636 -23.813  0.00  0.00    +0.068 C 
ATOM     17  C   UNL     1      33.142 -15.247 -22.583  0.00  0.00    +0.005 C 
ATOM     18  C   UNL     1      32.454 -15.135 -20.183  0.00  0.00    +0.031 C 
BRANCH  14  19
ATOM     19  O   UNL     1      33.448 -12.659 -25.160  0.00  0.00    -0.505 OA
ATOM     20  H   UNL     1      34.329 -12.486 -25.429  0.00  0.00    +0.292 HD
ENDBRANCH  14  19
ENDBRANCH   2  12
BRANCH   8  23
ATOM     21  N   UNL     1      30.712  -4.755 -21.936  0.00  0.00    -0.343 N 
ATOM     22  N   UNL     1      30.749  -4.587 -24.266  0.00  0.00    -0.285 NA
ATOM     23  C   UNL     1      31.065  -5.271 -23.181  0.00  0.00    +0.117 C 
ATOM     24  H   UNL     1      30.239  -3.893 -21.875  0.00  0.00    +0.144 HD
ATOM     25  H   UNL     1      30.936  -5.251 -21.115  0.00  0.00    +0.144 HD
ATOM     26  H   UNL     1      30.275  -3.727 -24.186  0.00  0.00    +0.188 HD
ENDBRANCH   8  23
TORSDOF 3
ENDMDL
MODEL 7
REMARK VINA RESULT:      -9.2      6.678      8.008
REMARK  Name = 447508
REMARK  3 active torsions:
REMARK  status: ('A' for Active; 'I' for Inactive)
REMARK    1  A    between atoms: C_2  and  C_12
REMARK    2  A    between atoms: C_8  and  C_23
REMARK    3  A    between atoms: C_14  and  O_19
REMARK                            x       y       z     vdW  Elec       q    Type
REMARK                         _______ _______ _______ _____ _____    ______ ____
ROOT
ATOM      1  N   UNL     1      35.658 -20.879 -19.279  0.00  0.00    -0.312 N 
ATOM      2  C   UNL     1      34.395 -21.371 -19.089  0.00  0.00    +0.051 C 
ATOM      3  C   UNL     1      34.410 -20.093 -20.953  0.00  0.00    +0.015 C 
ATOM      4  C   UNL     1      35.697 -20.095 -20.410  0.00  0.00    +0.048 C 
ATOM      5  C   UNL     1      33.600 -20.903 -20.109  0.00  0.00    +0.016 C 
ATOM      6  C   UNL     1      34.172 -19.357 -22.131  0.00  0.00    +0.004 C 
ATOM      7  C   UNL     1      36.761 -19.395 -20.988  0.00  0.00    +0.015 C 
ATOM      8  C   UNL     1      35.228 -18.652 -22.720  0.00  0.00    +0.031 C 
ATOM      9  C   UNL     1      36.501 -18.672 -22.156  0.00  0.00    +0.004 C 
ATOM     10  H   UNL     1      36.427 -21.059 -18.692  0.00  0.00    +0.152 HD
ENDROOT
BRANCH   2  12
ATOM     11 BR   UNL     1      36.053 -24.334 -14.958  0.00  0.00    -0.046 Br
ATOM     12  C   UNL     1      34.066 -22.227 -17.974  0.00  0.00    +0.047 C 
ATOM     13  C   UNL     1      32.727 -22.520 -17.715  0.00  0.00    +0.000 C 
ATOM     14  C   UNL     1      35.065 -22.762 -17.158  0.00  0.00    +0.141 C 
ATOM     15  C   UNL     1      32.386 -23.346 -16.642  0.00  0.00    -0.021 C 
ATOM     16  C   UNL     1      34.725 -23.588 -16.087  0.00  0.00    +0.068 C 
ATOM     17  C   UNL     1      33.385 -23.879 -15.829  0.00  0.00    +0.005 C 
ATOM     18  C   UNL     1      30.955 -23.658 -16.368  0.00  0.00    +0.031 C 
BRANCH  14  19
ATOM     19  O   UNL     1      36.376 -22.473 -17.414  0.00  0.00    -0.505 OA
ATOM     20  H   UNL     1      37.032 -23.131 -17.294  0.00  0.00    +0.292 HD
ENDBRANCH  14  19
ENDBRANCH   2  12
BRANCH   8  23
ATOM     21  N   UNL     1      35.377 -16.557 -24.044  0.00  0.00    -0.343 N 
ATOM     22  N   UNL     1      34.391 -18.463 -24.964  0.00  0.00    -0.285 NA
ATOM     23  C   UNL     1      34.990 -17.890 -23.936  0.00  0.00    +0.117 C 
ATOM     24  H   UNL     1      35.207 -16.059 -24.876  0.00  0.00    +0.144 HD
ATOM     25  H   UNL     1      35.823 -16.111 -23.286  0.00  0.00    +0.144 HD
ATOM     26  H   UNL     1      34.228 -17.949 -25.789  0.00  0.00    +0.188 HD
ENDBRANCH   8  23
TORSDOF 3
ENDMDL
MODEL 8
REMARK VINA RESULT:      -9.2     10.049     11.953
REMARK  Name = 447508
REMARK  3 active torsions:
REMARK  status: ('A' for Active; 'I' for Inactive)
REMARK    1  A    between atoms: C_2  and  C_12
REMARK    2  A    between atoms: C_8  and  C_23
REMARK    3  A    between atoms: C_14  and  O_19
REMARK                            x       y       z     vdW  Elec       q    Type
REMARK                         _______ _______ _______ _____ _____    ______ ____
ROOT
ATOM      1  N   UNL     1      35.350 -17.340 -21.899  0.00  0.00    -0.312 N 
ATOM      2  C   UNL     1      34.030 -17.007 -22.041  0.00  0.00    +0.051 C 
ATOM      3  C   UNL     1      34.174 -18.967 -20.926  0.00  0.00    +0.015 C 
ATOM      4  C   UNL     1      35.469 -18.533 -21.222  0.00  0.00    +0.048 C 
ATOM      5  C   UNL     1      33.278 -17.994 -21.449  0.00  0.00    +0.016 C 
ATOM      6  C   UNL     1      34.010 -20.179 -20.226  0.00  0.00    +0.004 C 
ATOM      7  C   UNL     1      36.610 -19.253 -20.852  0.00  0.00    +0.015 C 
ATOM      8  C   UNL     1      35.143 -20.910 -19.851  0.00  0.00    +0.031 C 
ATOM      9  C   UNL     1      36.422 -20.453 -20.159  0.00  0.00    +0.004 C 
ATOM     10  H   UNL     1      36.106 -16.805 -22.233  0.00  0.00    +0.152 HD
ENDROOT
BRANCH   2  12
ATOM     11 BR   UNL     1      31.944 -12.092 -21.745  0.00  0.00    -0.046 Br
ATOM     12  C   UNL     1      33.614 -15.800 -22.715  0.00  0.00    +0.047 C 
ATOM     13  C   UNL     1      33.752 -15.716 -24.101  0.00  0.00    +0.000 C 
ATOM     14  C   UNL     1      33.076 -14.727 -22.004  0.00  0.00    +0.141 C 
ATOM     15  C   UNL     1      33.356 -14.559 -24.774  0.00  0.00    -0.021 C 
ATOM     16  C   UNL     1      32.679 -13.571 -22.677  0.00  0.00    +0.068 C 
ATOM     17  C   UNL     1      32.819 -13.488 -24.062  0.00  0.00    +0.005 C 
ATOM     18  C   UNL     1      33.505 -14.470 -26.255  0.00  0.00    +0.031 C 
BRANCH  14  19
ATOM     19  O   UNL     1      32.941 -14.812 -20.647  0.00  0.00    -0.505 OA
ATOM     20  H   UNL     1      33.092 -15.629 -20.212  0.00  0.00    +0.292 HD
ENDBRANCH  14  19
ENDBRANCH   2  12
BRANCH   8  23
ATOM     21  N   UNL     1      34.040 -23.111 -19.523  0.00  0.00    -0.343 N 
ATOM     22  N   UNL     1      35.730 -22.413 -18.070  0.00  0.00    -0.285 NA
ATOM     23  C   UNL     1      34.980 -22.162 -19.128  0.00  0.00    +0.117 C 
ATOM     24  H   UNL     1      33.945 -23.952 -19.020  0.00  0.00    +0.144 HD
ATOM     25  H   UNL     1      33.468 -22.940 -20.308  0.00  0.00    +0.144 HD
ATOM     26  H   UNL     1      35.622 -23.260 -17.579  0.00  0.00    +0.188 HD
ENDBRANCH   8  23
TORSDOF 3
ENDMDL
MODEL 9
REMARK VINA RESULT:      -9.1      7.878      9.900
REMARK  Name = 447508
REMARK  3 active torsions:
REMARK  status: ('A' for Active; 'I' for Inactive)
REMARK    1  A    between atoms: C_2  and  C_12
REMARK    2  A    between atoms: C_8  and  C_23
REMARK    3  A    between atoms: C_14  and  O_19
REMARK                            x       y       z     vdW  Elec       q    Type
REMARK                         _______ _______ _______ _____ _____    ______ ____
ROOT
ATOM      1  N   UNL     1      34.315 -20.788 -20.162  0.00  0.00    -0.312 N 
ATOM      2  C   UNL     1      35.302 -20.001 -20.692  0.00  0.00    +0.051 C 
ATOM      3  C   UNL     1      36.127 -21.100 -18.897  0.00  0.00    +0.015 C 
ATOM      4  C   UNL     1      34.791 -21.471 -19.065  0.00  0.00    +0.048 C 
ATOM      5  C   UNL     1      36.435 -20.172 -19.932  0.00  0.00    +0.016 C 
ATOM      6  C   UNL     1      36.859 -21.662 -17.833  0.00  0.00    +0.004 C 
ATOM      7  C   UNL     1      34.147 -22.379 -18.217  0.00  0.00    +0.015 C 
ATOM      8  C   UNL     1      36.227 -22.571 -16.976  0.00  0.00    +0.031 C 
ATOM      9  C   UNL     1      34.893 -22.923 -17.167  0.00  0.00    +0.004 C 
ATOM     10  H   UNL     1      33.399 -20.856 -20.513  0.00  0.00    +0.152 HD
ENDROOT
BRANCH   2  12
ATOM     11 BR   UNL     1      34.601 -15.119 -22.757  0.00  0.00    -0.046 Br
ATOM     12  C   UNL     1      35.079 -19.173 -21.853  0.00  0.00    +0.047 C 
ATOM     13  C   UNL     1      34.968 -19.777 -23.106  0.00  0.00    +0.000 C 
ATOM     14  C   UNL     1      34.971 -17.786 -21.738  0.00  0.00    +0.141 C 
ATOM     15  C   UNL     1      34.752 -18.995 -24.242  0.00  0.00    -0.021 C 
ATOM     16  C   UNL     1      34.754 -17.005 -22.873  0.00  0.00    +0.068 C 
ATOM     17  C   UNL     1      34.645 -17.610 -24.125  0.00  0.00    +0.005 C 
ATOM     18  C   UNL     1      34.635 -19.642 -25.580  0.00  0.00    +0.031 C 
BRANCH  14  19
ATOM     19  O   UNL     1      35.079 -17.197 -20.510  0.00  0.00    -0.505 OA
ATOM     20  H   UNL     1      34.556 -16.447 -20.303  0.00  0.00    +0.292 HD
ENDBRANCH  14  19
ENDBRANCH   2  12
BRANCH   8  23
ATOM     21  N   UNL     1      36.333 -23.649 -14.741  0.00  0.00    -0.343 N 
ATOM     22  N   UNL     1      38.294 -23.222 -15.937  0.00  0.00    -0.285 NA
ATOM     23  C   UNL     1      36.977 -23.156 -15.874  0.00  0.00    +0.117 C 
ATOM     24  H   UNL     1      36.859 -24.041 -14.007  0.00  0.00    +0.144 HD
ATOM     25  H   UNL     1      35.351 -23.605 -14.675  0.00  0.00    +0.144 HD
ATOM     26  H   UNL     1      38.804 -23.617 -15.192  0.00  0.00    +0.188 HD
ENDBRANCH   8  23
TORSDOF 3
ENDMDL
