MODEL 1
REMARK VINA RESULT:      -8.9      0.000      0.000
REMARK  Name = 447206
REMARK  9 active torsions:
REMARK  status: ('A' for Active; 'I' for Inactive)
REMARK    1  A    between atoms: C_2  and  O_18
REMARK    2  A    between atoms: C_3  and  C_20
REMARK    3  A    between atoms: C_4  and  N_8
REMARK    4  A    between atoms: C_12  and  C_15
REMARK    5  A    between atoms: C_15  and  O_16
REMARK    6  A    between atoms: C_20  and  O_21
REMARK    7  A    between atoms: O_21  and  P_22
REMARK    8  A    between atoms: P_22  and  O_24
REMARK    9  A    between atoms: P_22  and  O_26
REMARK                            x       y       z     vdW  Elec       q    Type
REMARK                         _______ _______ _______ _____ _____    ______ ____
ROOT
ATOM      1  O   UNL     1      35.841 -24.941 -15.816  0.00  0.00    -0.335 OA
ATOM      2  C   UNL     1      37.422 -23.486 -14.814  0.00  0.00    +0.144 C 
ATOM      3  C   UNL     1      36.825 -24.885 -14.765  0.00  0.00    +0.174 C 
ATOM      4  C   UNL     1      35.587 -23.613 -16.298  0.00  0.00    +0.202 C 
ATOM      5  C   UNL     1      36.288 -22.648 -15.357  0.00  0.00    +0.083 C 
ENDROOT
BRANCH   4   8
ATOM      6  O   UNL     1      34.110 -23.115 -18.681  0.00  0.00    -0.252 OA
ATOM      7  O   UNL     1      30.151 -22.802 -16.362  0.00  0.00    -0.270 OA
ATOM      8  N   UNL     1      34.171 -23.396 -16.364  0.00  0.00    -0.219 N 
ATOM      9  N   UNL     1      32.143 -22.961 -17.512  0.00  0.00    -0.236 N 
ATOM     10  C   UNL     1      33.440 -23.427 -15.183  0.00  0.00    +0.074 C 
ATOM     11  C   UNL     1      33.526 -23.156 -17.596  0.00  0.00    +0.315 C 
ATOM     12  C   UNL     1      32.117 -23.239 -15.106  0.00  0.00    +0.076 C 
ATOM     13  C   UNL     1      31.366 -22.981 -16.363  0.00  0.00    +0.252 C 
ATOM     14  H   UNL     1      31.670 -22.792 -18.359  0.00  0.00    +0.159 HD
BRANCH  12  15
ATOM     15  C   UNL     1      31.349 -23.276 -13.824  0.00  0.00    +0.169 C 
BRANCH  15  16
ATOM     16  O   UNL     1      32.192 -22.907 -12.746  0.00  0.00    -0.377 OA
ATOM     17  H   UNL     1      31.783 -22.181 -12.250  0.00  0.00    +0.211 HD
ENDBRANCH  15  16
ENDBRANCH  12  15
ENDBRANCH   4   8
BRANCH   2  18
ATOM     18  O   UNL     1      38.519 -23.459 -15.725  0.00  0.00    -0.382 OA
ATOM     19  H   UNL     1      38.498 -22.631 -16.230  0.00  0.00    +0.210 HD
ENDBRANCH   2  18
BRANCH   3  20
ATOM     20  C   UNL     1      36.118 -25.181 -13.447  0.00  0.00    +0.186 C 
BRANCH  20  21
ATOM     21  O   UNL     1      36.925 -24.713 -12.379  0.00  0.00    -0.271 OA
BRANCH  21  22
ATOM     22  P   UNL     1      36.259 -23.721 -11.288  0.00  0.00    +0.473 P 
ATOM     23  O   UNL     1      36.182 -24.271  -9.894  0.00  0.00    -0.227 OA
BRANCH  22  24
ATOM     24  O   UNL     1      34.841 -23.316 -11.951  0.00  0.00    -0.303 OA
ATOM     25  H   UNL     1      34.799 -23.657 -12.858  0.00  0.00    +0.222 HD
ENDBRANCH  22  24
BRANCH  22  26
ATOM     26  O   UNL     1      37.141 -22.374 -11.442  0.00  0.00    -0.303 OA
ATOM     27  H   UNL     1      36.868 -21.730 -10.769  0.00  0.00    +0.222 HD
ENDBRANCH  22  26
ENDBRANCH  21  22
ENDBRANCH  20  21
ENDBRANCH   3  20
TORSDOF 9
ENDMDL
MODEL 2
REMARK VINA RESULT:      -8.6      2.923      6.581
REMARK  Name = 447206
REMARK  9 active torsions:
REMARK  status: ('A' for Active; 'I' for Inactive)
REMARK    1  A    between atoms: C_2  and  O_18
REMARK    2  A    between atoms: C_3  and  C_20
REMARK    3  A    between atoms: C_4  and  N_8
REMARK    4  A    between atoms: C_12  and  C_15
REMARK    5  A    between atoms: C_15  and  O_16
REMARK    6  A    between atoms: C_20  and  O_21
REMARK    7  A    between atoms: O_21  and  P_22
REMARK    8  A    between atoms: P_22  and  O_24
REMARK    9  A    between atoms: P_22  and  O_26
REMARK                            x       y       z     vdW  Elec       q    Type
REMARK                         _______ _______ _______ _____ _____    ______ ____
ROOT
ATOM      1  O   UNL     1      31.886 -25.421 -14.568  0.00  0.00    -0.335 OA
ATOM      2  C   UNL     1      30.256 -24.127 -13.432  0.00  0.00    +0.144 C 
ATOM      3  C   UNL     1      30.461 -25.258 -14.430  0.00  0.00    +0.174 C 
ATOM      4  C   UNL     1      32.551 -24.298 -13.972  0.00  0.00    +0.202 C 
ATOM      5  C   UNL     1      31.486 -23.271 -13.629  0.00  0.00    +0.083 C 
ENDROOT
BRANCH   4   8
ATOM      6  O   UNL     1      35.304 -23.905 -13.358  0.00  0.00    -0.252 OA
ATOM      7  O   UNL     1      36.200 -22.351 -17.593  0.00  0.00    -0.270 OA
ATOM      8  N   UNL     1      33.538 -23.794 -14.881  0.00  0.00    -0.219 N 
ATOM      9  N   UNL     1      35.737 -23.132 -15.474  0.00  0.00    -0.236 N 
ATOM     10  C   UNL     1      33.143 -23.464 -16.171  0.00  0.00    +0.074 C 
ATOM     11  C   UNL     1      34.883 -23.633 -14.485  0.00  0.00    +0.315 C 
ATOM     12  C   UNL     1      33.962 -22.984 -17.115  0.00  0.00    +0.076 C 
ATOM     13  C   UNL     1      35.396 -22.787 -16.774  0.00  0.00    +0.252 C 
ATOM     14  H   UNL     1      36.680 -23.011 -15.221  0.00  0.00    +0.159 HD
BRANCH  12  15
ATOM     15  C   UNL     1      33.515 -22.634 -18.499  0.00  0.00    +0.169 C 
BRANCH  15  16
ATOM     16  O   UNL     1      34.082 -23.538 -19.431  0.00  0.00    -0.377 OA
ATOM     17  H   UNL     1      33.509 -24.317 -19.515  0.00  0.00    +0.211 HD
ENDBRANCH  15  16
ENDBRANCH  12  15
ENDBRANCH   4   8
BRANCH   2  18
ATOM     18  O   UNL     1      30.240 -24.647 -12.105  0.00  0.00    -0.382 OA
ATOM     19  H   UNL     1      29.654 -25.419 -12.067  0.00  0.00    +0.210 HD
ENDBRANCH   2  18
BRANCH   3  20
ATOM     20  C   UNL     1      29.891 -24.944 -15.808  0.00  0.00    +0.186 C 
BRANCH  20  21
ATOM     21  O   UNL     1      28.665 -24.249 -15.648  0.00  0.00    -0.271 OA
BRANCH  21  22
ATOM     22  P   UNL     1      28.325 -23.041 -16.669  0.00  0.00    +0.473 P 
ATOM     23  O   UNL     1      27.448 -23.417 -17.828  0.00  0.00    -0.227 OA
BRANCH  22  24
ATOM     24  O   UNL     1      29.778 -22.451 -17.064  0.00  0.00    -0.303 OA
ATOM     25  H   UNL     1      30.468 -23.064 -16.767  0.00  0.00    +0.222 HD
ENDBRANCH  22  24
BRANCH  22  26
ATOM     26  O   UNL     1      27.715 -21.905 -15.692  0.00  0.00    -0.303 OA
ATOM     27  H   UNL     1      27.872 -22.155 -14.768  0.00  0.00    +0.222 HD
ENDBRANCH  22  26
ENDBRANCH  21  22
ENDBRANCH  20  21
ENDBRANCH   3  20
TORSDOF 9
ENDMDL
MODEL 3
REMARK VINA RESULT:      -8.5      2.345      4.318
REMARK  Name = 447206
REMARK  9 active torsions:
REMARK  status: ('A' for Active; 'I' for Inactive)
REMARK    1  A    between atoms: C_2  and  O_18
REMARK    2  A    between atoms: C_3  and  C_20
REMARK    3  A    between atoms: C_4  and  N_8
REMARK    4  A    between atoms: C_12  and  C_15
REMARK    5  A    between atoms: C_15  and  O_16
REMARK    6  A    between atoms: C_20  and  O_21
REMARK    7  A    between atoms: O_21  and  P_22
REMARK    8  A    between atoms: P_22  and  O_24
REMARK    9  A    between atoms: P_22  and  O_26
REMARK                            x       y       z     vdW  Elec       q    Type
REMARK                         _______ _______ _______ _____ _____    ______ ____
ROOT
ATOM      1  O   UNL     1      35.871 -22.920 -14.490  0.00  0.00    -0.335 OA
ATOM      2  C   UNL     1      35.967 -25.139 -13.660  0.00  0.00    +0.144 C 
ATOM      3  C   UNL     1      36.794 -23.900 -13.976  0.00  0.00    +0.174 C 
ATOM      4  C   UNL     1      34.620 -23.556 -14.785  0.00  0.00    +0.202 C 
ATOM      5  C   UNL     1      34.831 -25.055 -14.653  0.00  0.00    +0.083 C 
ENDROOT
BRANCH   4   8
ATOM      6  O   UNL     1      31.948 -23.726 -15.756  0.00  0.00    -0.252 OA
ATOM      7  O   UNL     1      33.151 -22.021 -19.855  0.00  0.00    -0.270 OA
ATOM      8  N   UNL     1      34.190 -23.169 -16.097  0.00  0.00    -0.219 N 
ATOM      9  N   UNL     1      32.562 -22.875 -17.796  0.00  0.00    -0.236 N 
ATOM     10  C   UNL     1      35.135 -22.667 -16.983  0.00  0.00    +0.074 C 
ATOM     11  C   UNL     1      32.840 -23.290 -16.488  0.00  0.00    +0.315 C 
ATOM     12  C   UNL     1      34.867 -22.272 -18.233  0.00  0.00    +0.076 C 
ATOM     13  C   UNL     1      33.465 -22.368 -18.719  0.00  0.00    +0.252 C 
ATOM     14  H   UNL     1      31.626 -22.951 -18.092  0.00  0.00    +0.159 HD
BRANCH  12  15
ATOM     15  C   UNL     1      35.900 -21.734 -19.171  0.00  0.00    +0.169 C 
BRANCH  15  16
ATOM     16  O   UNL     1      35.469 -20.494 -19.704  0.00  0.00    -0.377 OA
ATOM     17  H   UNL     1      35.198 -20.617 -20.628  0.00  0.00    +0.211 HD
ENDBRANCH  15  16
ENDBRANCH  12  15
ENDBRANCH   4   8
BRANCH   2  18
ATOM     18  O   UNL     1      35.453 -25.052 -12.333  0.00  0.00    -0.382 OA
ATOM     19  H   UNL     1      36.102 -24.613 -11.762  0.00  0.00    +0.210 HD
ENDBRANCH   2  18
BRANCH   3  20
ATOM     20  C   UNL     1      37.852 -24.151 -15.044  0.00  0.00    +0.186 C 
BRANCH  20  21
ATOM     21  O   UNL     1      39.089 -24.426 -14.408  0.00  0.00    -0.271 OA
BRANCH  21  22
ATOM     22  P   UNL     1      39.807 -25.846 -14.699  0.00  0.00    +0.473 P 
ATOM     23  O   UNL     1      40.886 -26.223 -13.726  0.00  0.00    -0.227 OA
BRANCH  22  24
ATOM     24  O   UNL     1      40.277 -25.730 -16.242  0.00  0.00    -0.303 OA
ATOM     25  H   UNL     1      39.630 -26.173 -16.812  0.00  0.00    +0.222 HD
ENDBRANCH  22  24
BRANCH  22  26
ATOM     26  O   UNL     1      38.559 -26.873 -14.766  0.00  0.00    -0.303 OA
ATOM     27  H   UNL     1      38.307 -27.135 -13.867  0.00  0.00    +0.222 HD
ENDBRANCH  22  26
ENDBRANCH  21  22
ENDBRANCH  20  21
ENDBRANCH   3  20
TORSDOF 9
ENDMDL
MODEL 4
REMARK VINA RESULT:      -8.0      2.094      4.074
REMARK  Name = 447206
REMARK  9 active torsions:
REMARK  status: ('A' for Active; 'I' for Inactive)
REMARK    1  A    between atoms: C_2  and  O_18
REMARK    2  A    between atoms: C_3  and  C_20
REMARK    3  A    between atoms: C_4  and  N_8
REMARK    4  A    between atoms: C_12  and  C_15
REMARK    5  A    between atoms: C_15  and  O_16
REMARK    6  A    between atoms: C_20  and  O_21
REMARK    7  A    between atoms: O_21  and  P_22
REMARK    8  A    between atoms: P_22  and  O_24
REMARK    9  A    between atoms: P_22  and  O_26
REMARK                            x       y       z     vdW  Elec       q    Type
REMARK                         _______ _______ _______ _____ _____    ______ ____
ROOT
ATOM      1  O   UNL     1      35.934 -22.993 -13.853  0.00  0.00    -0.335 OA
ATOM      2  C   UNL     1      36.438 -24.960 -12.628  0.00  0.00    +0.144 C 
ATOM      3  C   UNL     1      36.988 -23.950 -13.625  0.00  0.00    +0.174 C 
ATOM      4  C   UNL     1      34.707 -23.502 -13.312  0.00  0.00    +0.202 C 
ATOM      5  C   UNL     1      34.953 -24.947 -12.911  0.00  0.00    +0.083 C 
ENDROOT
BRANCH   4   8
ATOM      6  O   UNL     1      31.932 -23.244 -12.729  0.00  0.00    -0.252 OA
ATOM      7  O   UNL     1      30.848 -22.985 -17.192  0.00  0.00    -0.270 OA
ATOM      8  N   UNL     1      33.666 -23.365 -14.288  0.00  0.00    -0.219 N 
ATOM      9  N   UNL     1      31.405 -23.116 -14.958  0.00  0.00    -0.236 N 
ATOM     10  C   UNL     1      34.015 -23.355 -15.632  0.00  0.00    +0.074 C 
ATOM     11  C   UNL     1      32.314 -23.243 -13.902  0.00  0.00    +0.315 C 
ATOM     12  C   UNL     1      33.144 -23.235 -16.641  0.00  0.00    +0.076 C 
ATOM     13  C   UNL     1      31.699 -23.100 -16.314  0.00  0.00    +0.252 C 
ATOM     14  H   UNL     1      30.456 -23.030 -14.714  0.00  0.00    +0.159 HD
BRANCH  12  15
ATOM     15  C   UNL     1      33.542 -23.226 -18.082  0.00  0.00    +0.169 C 
BRANCH  15  16
ATOM     16  O   UNL     1      32.888 -22.166 -18.757  0.00  0.00    -0.377 OA
ATOM     17  H   UNL     1      32.680 -21.460 -18.124  0.00  0.00    +0.211 HD
ENDBRANCH  15  16
ENDBRANCH  12  15
ENDBRANCH   4   8
BRANCH   2  18
ATOM     18  O   UNL     1      36.676 -24.507 -11.297  0.00  0.00    -0.382 OA
ATOM     19  H   UNL     1      36.471 -23.561 -11.236  0.00  0.00    +0.210 HD
ENDBRANCH   2  18
BRANCH   3  20
ATOM     20  C   UNL     1      37.348 -24.578 -14.966  0.00  0.00    +0.186 C 
BRANCH  20  21
ATOM     21  O   UNL     1      38.714 -24.319 -15.241  0.00  0.00    -0.271 OA
BRANCH  21  22
ATOM     22  P   UNL     1      39.808 -25.440 -14.835  0.00  0.00    +0.473 P 
ATOM     23  O   UNL     1      40.802 -25.010 -13.795  0.00  0.00    -0.227 OA
BRANCH  22  24
ATOM     24  O   UNL     1      40.442 -25.889 -16.253  0.00  0.00    -0.303 OA
ATOM     25  H   UNL     1      40.009 -26.701 -16.559  0.00  0.00    +0.222 HD
ENDBRANCH  22  24
BRANCH  22  26
ATOM     26  O   UNL     1      38.890 -26.705 -14.421  0.00  0.00    -0.303 OA
ATOM     27  H   UNL     1      38.217 -26.421 -13.783  0.00  0.00    +0.222 HD
ENDBRANCH  22  26
ENDBRANCH  21  22
ENDBRANCH  20  21
ENDBRANCH   3  20
TORSDOF 9
ENDMDL
MODEL 5
REMARK VINA RESULT:      -8.0      2.098      3.579
REMARK  Name = 447206
REMARK  9 active torsions:
REMARK  status: ('A' for Active; 'I' for Inactive)
REMARK    1  A    between atoms: C_2  and  O_18
REMARK    2  A    between atoms: C_3  and  C_20
REMARK    3  A    between atoms: C_4  and  N_8
REMARK    4  A    between atoms: C_12  and  C_15
REMARK    5  A    between atoms: C_15  and  O_16
REMARK    6  A    between atoms: C_20  and  O_21
REMARK    7  A    between atoms: O_21  and  P_22
REMARK    8  A    between atoms: P_22  and  O_24
REMARK    9  A    between atoms: P_22  and  O_26
REMARK                            x       y       z     vdW  Elec       q    Type
REMARK                         _______ _______ _______ _____ _____    ______ ____
ROOT
ATOM      1  O   UNL     1      36.851 -23.663 -13.895  0.00  0.00    -0.335 OA
ATOM      2  C   UNL     1      36.451 -25.067 -12.027  0.00  0.00    +0.144 C 
ATOM      3  C   UNL     1      37.416 -24.771 -13.166  0.00  0.00    +0.174 C 
ATOM      4  C   UNL     1      35.495 -23.461 -13.474  0.00  0.00    +0.202 C 
ATOM      5  C   UNL     1      35.116 -24.636 -12.588  0.00  0.00    +0.083 C 
ENDROOT
BRANCH   4   8
ATOM      6  O   UNL     1      36.413 -23.154 -16.152  0.00  0.00    -0.252 OA
ATOM      7  O   UNL     1      32.117 -23.013 -17.787  0.00  0.00    -0.270 OA
ATOM      8  N   UNL     1      34.654 -23.341 -14.628  0.00  0.00    -0.219 N 
ATOM      9  N   UNL     1      34.265 -23.084 -16.954  0.00  0.00    -0.236 N 
ATOM     10  C   UNL     1      33.276 -23.374 -14.452  0.00  0.00    +0.074 C 
ATOM     11  C   UNL     1      35.203 -23.192 -15.920  0.00  0.00    +0.315 C 
ATOM     12  C   UNL     1      32.382 -23.271 -15.442  0.00  0.00    +0.076 C 
ATOM     13  C   UNL     1      32.884 -23.112 -16.833  0.00  0.00    +0.252 C 
ATOM     14  H   UNL     1      34.624 -22.980 -17.864  0.00  0.00    +0.159 HD
BRANCH  12  15
ATOM     15  C   UNL     1      30.903 -23.308 -15.229  0.00  0.00    +0.169 C 
BRANCH  15  16
ATOM     16  O   UNL     1      30.340 -24.396 -15.942  0.00  0.00    -0.377 OA
ATOM     17  H   UNL     1      29.386 -24.434 -15.772  0.00  0.00    +0.211 HD
ENDBRANCH  15  16
ENDBRANCH  12  15
ENDBRANCH   4   8
BRANCH   2  18
ATOM     18  O   UNL     1      36.777 -24.264 -10.894  0.00  0.00    -0.382 OA
ATOM     19  H   UNL     1      36.431 -24.683 -10.091  0.00  0.00    +0.210 HD
ENDBRANCH   2  18
BRANCH   3  20
ATOM     20  C   UNL     1      37.567 -25.939 -14.133  0.00  0.00    +0.186 C 
BRANCH  20  21
ATOM     21  O   UNL     1      38.937 -26.298 -14.208  0.00  0.00    -0.271 OA
BRANCH  21  22
ATOM     22  P   UNL     1      39.974 -25.249 -14.873  0.00  0.00    +0.473 P 
ATOM     23  O   UNL     1      40.944 -24.621 -13.915  0.00  0.00    -0.227 OA
BRANCH  22  24
ATOM     24  O   UNL     1      39.017 -24.214 -15.666  0.00  0.00    -0.303 OA
ATOM     25  H   UNL     1      39.299 -24.157 -16.592  0.00  0.00    +0.222 HD
ENDBRANCH  22  24
BRANCH  22  26
ATOM     26  O   UNL     1      40.650 -26.115 -16.060  0.00  0.00    -0.303 OA
ATOM     27  H   UNL     1      40.314 -27.024 -16.029  0.00  0.00    +0.222 HD
ENDBRANCH  22  26
ENDBRANCH  21  22
ENDBRANCH  20  21
ENDBRANCH   3  20
TORSDOF 9
ENDMDL
MODEL 6
REMARK VINA RESULT:      -7.8      8.406     11.136
REMARK  Name = 447206
REMARK  9 active torsions:
REMARK  status: ('A' for Active; 'I' for Inactive)
REMARK    1  A    between atoms: C_2  and  O_18
REMARK    2  A    between atoms: C_3  and  C_20
REMARK    3  A    between atoms: C_4  and  N_8
REMARK    4  A    between atoms: C_12  and  C_15
REMARK    5  A    between atoms: C_15  and  O_16
REMARK    6  A    between atoms: C_20  and  O_21
REMARK    7  A    between atoms: O_21  and  P_22
REMARK    8  A    between atoms: P_22  and  O_24
REMARK    9  A    between atoms: P_22  and  O_26
REMARK                            x       y       z     vdW  Elec       q    Type
REMARK                         _______ _______ _______ _____ _____    ______ ____
ROOT
ATOM      1  O   UNL     1      35.796 -16.728 -22.791  0.00  0.00    -0.335 OA
ATOM      2  C   UNL     1      34.407 -16.930 -24.703  0.00  0.00    +0.144 C 
ATOM      3  C   UNL     1      34.817 -16.006 -23.564  0.00  0.00    +0.174 C 
ATOM      4  C   UNL     1      35.791 -18.107 -23.190  0.00  0.00    +0.202 C 
ATOM      5  C   UNL     1      34.600 -18.307 -24.112  0.00  0.00    +0.083 C 
ENDROOT
BRANCH   4   8
ATOM      6  O   UNL     1      38.038 -18.883 -21.623  0.00  0.00    -0.252 OA
ATOM      7  O   UNL     1      35.399 -21.304 -18.736  0.00  0.00    -0.270 OA
ATOM      8  N   UNL     1      35.738 -18.937 -22.023  0.00  0.00    -0.219 N 
ATOM      9  N   UNL     1      36.710 -20.087 -20.191  0.00  0.00    -0.236 N 
ATOM     10  C   UNL     1      34.503 -19.413 -21.604  0.00  0.00    +0.074 C 
ATOM     11  C   UNL     1      36.910 -19.269 -21.309  0.00  0.00    +0.315 C 
ATOM     12  C   UNL     1      34.315 -20.196 -20.535  0.00  0.00    +0.076 C 
ATOM     13  C   UNL     1      35.502 -20.589 -19.730  0.00  0.00    +0.252 C 
ATOM     14  H   UNL     1      37.513 -20.333 -19.677  0.00  0.00    +0.159 HD
BRANCH  12  15
ATOM     15  C   UNL     1      32.975 -20.698 -20.101  0.00  0.00    +0.169 C 
BRANCH  15  16
ATOM     16  O   UNL     1      33.039 -22.091 -19.852  0.00  0.00    -0.377 OA
ATOM     17  H   UNL     1      32.233 -22.516 -20.184  0.00  0.00    +0.211 HD
ENDBRANCH  15  16
ENDBRANCH  12  15
ENDBRANCH   4   8
BRANCH   2  18
ATOM     18  O   UNL     1      35.287 -16.755 -25.811  0.00  0.00    -0.382 OA
ATOM     19  H   UNL     1      36.193 -16.634 -25.487  0.00  0.00    +0.210 HD
ENDBRANCH   2  18
BRANCH   3  20
ATOM     20  C   UNL     1      33.658 -15.654 -22.639  0.00  0.00    +0.186 C 
BRANCH  20  21
ATOM     21  O   UNL     1      33.680 -14.259 -22.388  0.00  0.00    -0.271 OA
BRANCH  21  22
ATOM     22  P   UNL     1      33.006 -13.268 -23.475  0.00  0.00    +0.473 P 
ATOM     23  O   UNL     1      32.552 -13.932 -24.742  0.00  0.00    -0.227 OA
BRANCH  22  24
ATOM     24  O   UNL     1      34.107 -12.099 -23.663  0.00  0.00    -0.303 OA
ATOM     25  H   UNL     1      33.862 -11.333 -23.121  0.00  0.00    +0.222 HD
ENDBRANCH  22  24
BRANCH  22  26
ATOM     26  O   UNL     1      31.836 -12.545 -22.625  0.00  0.00    -0.303 OA
ATOM     27  H   UNL     1      31.230 -12.089 -23.231  0.00  0.00    +0.222 HD
ENDBRANCH  22  26
ENDBRANCH  21  22
ENDBRANCH  20  21
ENDBRANCH   3  20
TORSDOF 9
ENDMDL
MODEL 7
REMARK VINA RESULT:      -7.4      2.509      5.150
REMARK  Name = 447206
REMARK  9 active torsions:
REMARK  status: ('A' for Active; 'I' for Inactive)
REMARK    1  A    between atoms: C_2  and  O_18
REMARK    2  A    between atoms: C_3  and  C_20
REMARK    3  A    between atoms: C_4  and  N_8
REMARK    4  A    between atoms: C_12  and  C_15
REMARK    5  A    between atoms: C_15  and  O_16
REMARK    6  A    between atoms: C_20  and  O_21
REMARK    7  A    between atoms: O_21  and  P_22
REMARK    8  A    between atoms: P_22  and  O_24
REMARK    9  A    between atoms: P_22  and  O_26
REMARK                            x       y       z     vdW  Elec       q    Type
REMARK                         _______ _______ _______ _____ _____    ______ ____
ROOT
ATOM      1  O   UNL     1      34.056 -24.594 -14.893  0.00  0.00    -0.335 OA
ATOM      2  C   UNL     1      34.435 -23.975 -12.635  0.00  0.00    +0.144 C 
ATOM      3  C   UNL     1      33.368 -24.372 -13.646  0.00  0.00    +0.174 C 
ATOM      4  C   UNL     1      35.393 -24.082 -14.793  0.00  0.00    +0.202 C 
ATOM      5  C   UNL     1      35.485 -23.305 -13.491  0.00  0.00    +0.083 C 
ENDROOT
BRANCH   4   8
ATOM      6  O   UNL     1      37.895 -22.845 -15.356  0.00  0.00    -0.252 OA
ATOM      7  O   UNL     1      36.303 -21.016 -19.264  0.00  0.00    -0.270 OA
ATOM      8  N   UNL     1      35.677 -23.275 -15.944  0.00  0.00    -0.219 N 
ATOM      9  N   UNL     1      37.088 -21.938 -17.302  0.00  0.00    -0.236 N 
ATOM     10  C   UNL     1      34.666 -23.066 -16.873  0.00  0.00    +0.074 C 
ATOM     11  C   UNL     1      36.952 -22.702 -16.137  0.00  0.00    +0.315 C 
ATOM     12  C   UNL     1      34.799 -22.335 -17.986  0.00  0.00    +0.076 C 
ATOM     13  C   UNL     1      36.114 -21.699 -18.261  0.00  0.00    +0.252 C 
ATOM     14  H   UNL     1      37.969 -21.528 -17.459  0.00  0.00    +0.159 HD
BRANCH  12  15
ATOM     15  C   UNL     1      33.696 -22.123 -18.974  0.00  0.00    +0.169 C 
BRANCH  15  16
ATOM     16  O   UNL     1      32.443 -22.356 -18.355  0.00  0.00    -0.377 OA
ATOM     17  H   UNL     1      32.002 -21.508 -18.191  0.00  0.00    +0.211 HD
ENDBRANCH  15  16
ENDBRANCH  12  15
ENDBRANCH   4   8
BRANCH   2  18
ATOM     18  O   UNL     1      34.984 -25.142 -12.026  0.00  0.00    -0.382 OA
ATOM     19  H   UNL     1      35.664 -24.882 -11.385  0.00  0.00    +0.210 HD
ENDBRANCH   2  18
BRANCH   3  20
ATOM     20  C   UNL     1      32.331 -23.278 -13.873  0.00  0.00    +0.186 C 
BRANCH  20  21
ATOM     21  O   UNL     1      31.036 -23.838 -13.730  0.00  0.00    -0.271 OA
BRANCH  21  22
ATOM     22  P   UNL     1      30.234 -24.277 -15.065  0.00  0.00    +0.473 P 
ATOM     23  O   UNL     1      28.870 -23.670 -15.214  0.00  0.00    -0.227 OA
BRANCH  22  24
ATOM     24  O   UNL     1      30.270 -25.893 -15.020  0.00  0.00    -0.303 OA
ATOM     25  H   UNL     1      31.041 -26.214 -15.514  0.00  0.00    +0.222 HD
ENDBRANCH  22  24
BRANCH  22  26
ATOM     26  O   UNL     1      31.277 -23.914 -16.247  0.00  0.00    -0.303 OA
ATOM     27  H   UNL     1      31.128 -24.505 -17.001  0.00  0.00    +0.222 HD
ENDBRANCH  22  26
ENDBRANCH  21  22
ENDBRANCH  20  21
ENDBRANCH   3  20
TORSDOF 9
ENDMDL
MODEL 8
REMARK VINA RESULT:      -7.1      2.890      6.628
REMARK  Name = 447206
REMARK  9 active torsions:
REMARK  status: ('A' for Active; 'I' for Inactive)
REMARK    1  A    between atoms: C_2  and  O_18
REMARK    2  A    between atoms: C_3  and  C_20
REMARK    3  A    between atoms: C_4  and  N_8
REMARK    4  A    between atoms: C_12  and  C_15
REMARK    5  A    between atoms: C_15  and  O_16
REMARK    6  A    between atoms: C_20  and  O_21
REMARK    7  A    between atoms: O_21  and  P_22
REMARK    8  A    between atoms: P_22  and  O_24
REMARK    9  A    between atoms: P_22  and  O_26
REMARK                            x       y       z     vdW  Elec       q    Type
REMARK                         _______ _______ _______ _____ _____    ______ ____
ROOT
ATOM      1  O   UNL     1      32.799 -22.740 -14.992  0.00  0.00    -0.335 OA
ATOM      2  C   UNL     1      32.419 -23.321 -17.259  0.00  0.00    +0.144 C 
ATOM      3  C   UNL     1      31.742 -23.029 -15.927  0.00  0.00    +0.174 C 
ATOM      4  C   UNL     1      34.057 -23.121 -15.568  0.00  0.00    +0.202 C 
ATOM      5  C   UNL     1      33.758 -23.886 -16.846  0.00  0.00    +0.083 C 
ENDROOT
BRANCH   4   8
ATOM      6  O   UNL     1      33.226 -23.683 -12.903  0.00  0.00    -0.252 OA
ATOM      7  O   UNL     1      37.034 -26.115 -12.048  0.00  0.00    -0.270 OA
ATOM      8  N   UNL     1      34.798 -23.895 -14.616  0.00  0.00    -0.219 N 
ATOM      9  N   UNL     1      35.130 -24.893 -12.490  0.00  0.00    -0.236 N 
ATOM     10  C   UNL     1      36.023 -24.425 -15.001  0.00  0.00    +0.074 C 
ATOM     11  C   UNL     1      34.303 -24.120 -13.314  0.00  0.00    +0.315 C 
ATOM     12  C   UNL     1      36.812 -25.162 -14.212  0.00  0.00    +0.076 C 
ATOM     13  C   UNL     1      36.358 -25.444 -12.824  0.00  0.00    +0.252 C 
ATOM     14  H   UNL     1      34.806 -25.063 -11.577  0.00  0.00    +0.159 HD
BRANCH  12  15
ATOM     15  C   UNL     1      38.128 -25.723 -14.647  0.00  0.00    +0.169 C 
BRANCH  15  16
ATOM     16  O   UNL     1      38.076 -27.138 -14.641  0.00  0.00    -0.377 OA
ATOM     17  H   UNL     1      38.440 -27.479 -15.474  0.00  0.00    +0.211 HD
ENDBRANCH  15  16
ENDBRANCH  12  15
ENDBRANCH   4   8
BRANCH   2  18
ATOM     18  O   UNL     1      32.612 -22.107 -17.982  0.00  0.00    -0.382 OA
ATOM     19  H   UNL     1      33.066 -22.298 -18.818  0.00  0.00    +0.210 HD
ENDBRANCH   2  18
BRANCH   3  20
ATOM     20  C   UNL     1      30.954 -24.217 -15.390  0.00  0.00    +0.186 C 
BRANCH  20  21
ATOM     21  O   UNL     1      29.980 -24.593 -16.349  0.00  0.00    -0.271 OA
BRANCH  21  22
ATOM     22  P   UNL     1      28.688 -23.639 -16.552  0.00  0.00    +0.473 P 
ATOM     23  O   UNL     1      28.987 -22.274 -17.101  0.00  0.00    -0.227 OA
BRANCH  22  24
ATOM     24  O   UNL     1      27.965 -23.660 -15.106  0.00  0.00    -0.303 OA
ATOM     25  H   UNL     1      28.116 -22.815 -14.656  0.00  0.00    +0.222 HD
ENDBRANCH  22  24
BRANCH  22  26
ATOM     26  O   UNL     1      27.712 -24.545 -17.470  0.00  0.00    -0.303 OA
ATOM     27  H   UNL     1      27.790 -24.268 -18.396  0.00  0.00    +0.222 HD
ENDBRANCH  22  26
ENDBRANCH  21  22
ENDBRANCH  20  21
ENDBRANCH   3  20
TORSDOF 9
ENDMDL
MODEL 9
REMARK VINA RESULT:      -7.1     10.900     13.316
REMARK  Name = 447206
REMARK  9 active torsions:
REMARK  status: ('A' for Active; 'I' for Inactive)
REMARK    1  A    between atoms: C_2  and  O_18
REMARK    2  A    between atoms: C_3  and  C_20
REMARK    3  A    between atoms: C_4  and  N_8
REMARK    4  A    between atoms: C_12  and  C_15
REMARK    5  A    between atoms: C_15  and  O_16
REMARK    6  A    between atoms: C_20  and  O_21
REMARK    7  A    between atoms: O_21  and  P_22
REMARK    8  A    between atoms: P_22  and  O_24
REMARK    9  A    between atoms: P_22  and  O_26
REMARK                            x       y       z     vdW  Elec       q    Type
REMARK                         _______ _______ _______ _____ _____    ______ ____
ROOT
ATOM      1  O   UNL     1      34.329 -13.953 -21.931  0.00  0.00    -0.335 OA
ATOM      2  C   UNL     1      32.337 -14.088 -20.651  0.00  0.00    +0.144 C 
ATOM      3  C   UNL     1      33.684 -14.747 -20.917  0.00  0.00    +0.174 C 
ATOM      4  C   UNL     1      33.372 -13.052 -22.507  0.00  0.00    +0.202 C 
ATOM      5  C   UNL     1      32.003 -13.446 -21.977  0.00  0.00    +0.083 C 
ENDROOT
BRANCH   4   8
ATOM      6  O   UNL     1      34.115 -10.898 -24.215  0.00  0.00    -0.252 OA
ATOM      7  O   UNL     1      33.643 -13.498 -27.979  0.00  0.00    -0.270 OA
ATOM      8  N   UNL     1      33.456 -13.121 -23.936  0.00  0.00    -0.219 N 
ATOM      9  N   UNL     1      33.875 -12.206 -26.084  0.00  0.00    -0.236 N 
ATOM     10  C   UNL     1      33.156 -14.324 -24.561  0.00  0.00    +0.074 C 
ATOM     11  C   UNL     1      33.835 -11.996 -24.700  0.00  0.00    +0.315 C 
ATOM     12  C   UNL     1      33.195 -14.522 -25.884  0.00  0.00    +0.076 C 
ATOM     13  C   UNL     1      33.587 -13.384 -26.757  0.00  0.00    +0.252 C 
ATOM     14  H   UNL     1      34.137 -11.436 -26.638  0.00  0.00    +0.159 HD
BRANCH  12  15
ATOM     15  C   UNL     1      32.868 -15.827 -26.536  0.00  0.00    +0.169 C 
BRANCH  15  16
ATOM     16  O   UNL     1      33.678 -16.855 -25.992  0.00  0.00    -0.377 OA
ATOM     17  H   UNL     1      34.533 -16.483 -25.723  0.00  0.00    +0.211 HD
ENDBRANCH  15  16
ENDBRANCH  12  15
ENDBRANCH   4   8
BRANCH   2  18
ATOM     18  O   UNL     1      32.480 -13.081 -19.652  0.00  0.00    -0.382 OA
ATOM     19  H   UNL     1      32.866 -12.284 -20.049  0.00  0.00    +0.210 HD
ENDBRANCH   2  18
BRANCH   3  20
ATOM     20  C   UNL     1      33.552 -16.169 -21.450  0.00  0.00    +0.186 C 
BRANCH  20  21
ATOM     21  O   UNL     1      34.837 -16.769 -21.475  0.00  0.00    -0.271 OA
BRANCH  21  22
ATOM     22  P   UNL     1      35.346 -17.443 -22.856  0.00  0.00    +0.473 P 
ATOM     23  O   UNL     1      34.374 -18.390 -23.496  0.00  0.00    -0.227 OA
BRANCH  22  24
ATOM     24  O   UNL     1      36.779 -18.082 -22.465  0.00  0.00    -0.303 OA
ATOM     25  H   UNL     1      37.485 -17.597 -22.920  0.00  0.00    +0.222 HD
ENDBRANCH  22  24
BRANCH  22  26
ATOM     26  O   UNL     1      35.743 -16.160 -23.757  0.00  0.00    -0.303 OA
ATOM     27  H   UNL     1      35.304 -16.222 -24.619  0.00  0.00    +0.222 HD
ENDBRANCH  22  26
ENDBRANCH  21  22
ENDBRANCH  20  21
ENDBRANCH   3  20
TORSDOF 9
ENDMDL
