MODEL 1
REMARK VINA RESULT:      -9.5      0.000      0.000
REMARK  Name = 6083
REMARK  8 active torsions:
REMARK  status: ('A' for Active; 'I' for Inactive)
REMARK    1  A    between atoms: C_2  and  O_18
REMARK    2  A    between atoms: C_3  and  O_20
REMARK    3  A    between atoms: C_4  and  N_6
REMARK    4  A    between atoms: C_5  and  C_22
REMARK    5  A    between atoms: C_22  and  O_23
REMARK    6  A    between atoms: O_23  and  P_24
REMARK    7  A    between atoms: P_24  and  O_26
REMARK    8  A    between atoms: P_24  and  O_28
REMARK                            x       y       z     vdW  Elec       q    Type
REMARK                         _______ _______ _______ _____ _____    ______ ____
ROOT
ATOM      1  O   UNL     1      31.906 -25.472 -14.653  0.00  0.00    -0.333 OA
ATOM      2  C   UNL     1      31.694 -23.339 -13.645  0.00  0.00    +0.187 C 
ATOM      3  C   UNL     1      30.378 -24.074 -13.479  0.00  0.00    +0.171 C 
ATOM      4  C   UNL     1      32.653 -24.491 -13.907  0.00  0.00    +0.225 C 
ATOM      5  C   UNL     1      30.495 -25.186 -14.516  0.00  0.00    +0.176 C 
ENDROOT
BRANCH   4   6
ATOM      6  N   UNL     1      33.850 -24.110 -14.652  0.00  0.00    -0.247 N 
ATOM      7  N   UNL     1      35.117 -23.431 -16.359  0.00  0.00    -0.242 NA
ATOM      8  N   UNL     1      35.564 -24.402 -12.954  0.00  0.00    -0.228 NA
ATOM      9  N   UNL     1      37.776 -23.852 -13.823  0.00  0.00    -0.229 NA
ATOM     10  C   UNL     1      35.135 -24.085 -14.186  0.00  0.00    +0.152 C 
ATOM     11  C   UNL     1      33.893 -23.710 -15.963  0.00  0.00    +0.223 C 
ATOM     12  C   UNL     1      35.903 -23.661 -15.258  0.00  0.00    +0.140 C 
ATOM     13  C   UNL     1      37.273 -23.549 -15.043  0.00  0.00    +0.143 C 
ATOM     14  C   UNL     1      36.903 -24.254 -12.868  0.00  0.00    +0.253 C 
ATOM     15  N   UNL     1      38.129 -23.124 -16.075  0.00  0.00    -0.342 N 
ATOM     16  H   UNL     1      39.097 -23.048 -15.912  0.00  0.00    +0.144 HD
ATOM     17  H   UNL     1      37.760 -22.904 -16.961  0.00  0.00    +0.144 HD
ENDBRANCH   4   6
BRANCH   2  18
ATOM     18  O   UNL     1      32.062 -22.597 -12.500  0.00  0.00    -0.378 OA
ATOM     19  H   UNL     1      31.505 -22.861 -11.750  0.00  0.00    +0.211 HD
ENDBRANCH   2  18
BRANCH   3  20
ATOM     20  O   UNL     1      30.320 -24.659 -12.178  0.00  0.00    -0.379 OA
ATOM     21  H   UNL     1      31.219 -24.842 -11.865  0.00  0.00    +0.211 HD
ENDBRANCH   3  20
BRANCH   5  22
ATOM     22  C   UNL     1      29.950 -24.788 -15.880  0.00  0.00    +0.186 C 
BRANCH  22  23
ATOM     23  O   UNL     1      28.680 -24.183 -15.701  0.00  0.00    -0.271 OA
BRANCH  23  24
ATOM     24  P   UNL     1      28.323 -22.867 -16.574  0.00  0.00    +0.473 P 
ATOM     25  O   UNL     1      27.467 -21.854 -15.871  0.00  0.00    -0.227 OA
BRANCH  24  26
ATOM     26  O   UNL     1      27.700 -23.471 -17.939  0.00  0.00    -0.303 OA
ATOM     27  H   UNL     1      26.809 -23.811 -17.765  0.00  0.00    +0.222 HD
ENDBRANCH  24  26
BRANCH  24  28
ATOM     28  O   UNL     1      29.777 -22.331 -17.034  0.00  0.00    -0.303 OA
ATOM     29  H   UNL     1      29.825 -21.372 -16.901  0.00  0.00    +0.222 HD
ENDBRANCH  24  28
ENDBRANCH  23  24
ENDBRANCH  22  23
ENDBRANCH   5  22
TORSDOF 8
ENDMDL
MODEL 2
REMARK VINA RESULT:      -9.4      4.542      6.937
REMARK  Name = 6083
REMARK  8 active torsions:
REMARK  status: ('A' for Active; 'I' for Inactive)
REMARK    1  A    between atoms: C_2  and  O_18
REMARK    2  A    between atoms: C_3  and  O_20
REMARK    3  A    between atoms: C_4  and  N_6
REMARK    4  A    between atoms: C_5  and  C_22
REMARK    5  A    between atoms: C_22  and  O_23
REMARK    6  A    between atoms: O_23  and  P_24
REMARK    7  A    between atoms: P_24  and  O_26
REMARK    8  A    between atoms: P_24  and  O_28
REMARK                            x       y       z     vdW  Elec       q    Type
REMARK                         _______ _______ _______ _____ _____    ______ ____
ROOT
ATOM      1  O   UNL     1      36.854 -23.342 -13.166  0.00  0.00    -0.333 OA
ATOM      2  C   UNL     1      34.948 -24.734 -12.973  0.00  0.00    +0.187 C 
ATOM      3  C   UNL     1      35.792 -24.911 -11.726  0.00  0.00    +0.171 C 
ATOM      4  C   UNL     1      35.452 -23.395 -13.491  0.00  0.00    +0.225 C 
ATOM      5  C   UNL     1      37.138 -24.343 -12.161  0.00  0.00    +0.176 C 
ENDROOT
BRANCH   4   6
ATOM      6  N   UNL     1      35.271 -23.208 -14.928  0.00  0.00    -0.247 N 
ATOM      7  N   UNL     1      35.796 -22.881 -17.072  0.00  0.00    -0.242 NA
ATOM      8  N   UNL     1      32.850 -23.322 -15.108  0.00  0.00    -0.228 NA
ATOM      9  N   UNL     1      32.118 -23.047 -17.419  0.00  0.00    -0.229 NA
ATOM     10  C   UNL     1      34.087 -23.182 -15.611  0.00  0.00    +0.152 C 
ATOM     11  C   UNL     1      36.268 -23.022 -15.851  0.00  0.00    +0.223 C 
ATOM     12  C   UNL     1      34.434 -22.979 -16.937  0.00  0.00    +0.140 C 
ATOM     13  C   UNL     1      33.393 -22.913 -17.856  0.00  0.00    +0.143 C 
ATOM     14  C   UNL     1      31.929 -23.241 -16.091  0.00  0.00    +0.253 C 
ATOM     15  N   UNL     1      33.654 -22.711 -19.223  0.00  0.00    -0.342 N 
ATOM     16  H   UNL     1      32.909 -22.666 -19.866  0.00  0.00    +0.144 HD
ATOM     17  H   UNL     1      34.582 -22.615 -19.538  0.00  0.00    +0.144 HD
ENDBRANCH   4   6
BRANCH   2  18
ATOM     18  O   UNL     1      33.561 -24.707 -12.703  0.00  0.00    -0.378 OA
ATOM     19  H   UNL     1      33.387 -25.149 -11.858  0.00  0.00    +0.211 HD
ENDBRANCH   2  18
BRANCH   3  20
ATOM     20  O   UNL     1      35.265 -24.099 -10.676  0.00  0.00    -0.379 OA
ATOM     21  H   UNL     1      34.579 -24.591 -10.199  0.00  0.00    +0.211 HD
ENDBRANCH   3  20
BRANCH   5  22
ATOM     22  C   UNL     1      38.056 -25.392 -12.772  0.00  0.00    +0.186 C 
BRANCH  22  23
ATOM     23  O   UNL     1      39.151 -24.734 -13.387  0.00  0.00    -0.271 OA
BRANCH  23  24
ATOM     24  P   UNL     1      39.666 -25.272 -14.824  0.00  0.00    +0.473 P 
ATOM     25  O   UNL     1      41.042 -25.873 -14.820  0.00  0.00    -0.227 OA
BRANCH  24  26
ATOM     26  O   UNL     1      39.472 -23.998 -15.801  0.00  0.00    -0.303 OA
ATOM     27  H   UNL     1      39.021 -24.279 -16.612  0.00  0.00    +0.222 HD
ENDBRANCH  24  26
BRANCH  24  28
ATOM     28  O   UNL     1      38.484 -26.276 -15.281  0.00  0.00    -0.303 OA
ATOM     29  H   UNL     1      37.742 -26.206 -14.659  0.00  0.00    +0.222 HD
ENDBRANCH  24  28
ENDBRANCH  23  24
ENDBRANCH  22  23
ENDBRANCH   5  22
TORSDOF 8
ENDMDL
MODEL 3
REMARK VINA RESULT:      -9.1      5.008      7.333
REMARK  Name = 6083
REMARK  8 active torsions:
REMARK  status: ('A' for Active; 'I' for Inactive)
REMARK    1  A    between atoms: C_2  and  O_18
REMARK    2  A    between atoms: C_3  and  O_20
REMARK    3  A    between atoms: C_4  and  N_6
REMARK    4  A    between atoms: C_5  and  C_22
REMARK    5  A    between atoms: C_22  and  O_23
REMARK    6  A    between atoms: O_23  and  P_24
REMARK    7  A    between atoms: P_24  and  O_26
REMARK    8  A    between atoms: P_24  and  O_28
REMARK                            x       y       z     vdW  Elec       q    Type
REMARK                         _______ _______ _______ _____ _____    ______ ____
ROOT
ATOM      1  O   UNL     1      37.557 -23.531 -13.788  0.00  0.00    -0.333 OA
ATOM      2  C   UNL     1      35.727 -24.061 -12.380  0.00  0.00    +0.187 C 
ATOM      3  C   UNL     1      37.005 -24.251 -11.587  0.00  0.00    +0.171 C 
ATOM      4  C   UNL     1      36.199 -23.145 -13.499  0.00  0.00    +0.225 C 
ATOM      5  C   UNL     1      38.062 -24.318 -12.684  0.00  0.00    +0.176 C 
ENDROOT
BRANCH   4   6
ATOM      6  N   UNL     1      35.393 -23.228 -14.715  0.00  0.00    -0.247 N 
ATOM      7  N   UNL     1      33.685 -23.743 -16.055  0.00  0.00    -0.242 NA
ATOM      8  N   UNL     1      36.823 -22.063 -16.296  0.00  0.00    -0.228 NA
ATOM      9  N   UNL     1      35.810 -21.979 -18.515  0.00  0.00    -0.229 NA
ATOM     10  C   UNL     1      35.712 -22.729 -15.947  0.00  0.00    +0.152 C 
ATOM     11  C   UNL     1      34.166 -23.829 -14.832  0.00  0.00    +0.223 C 
ATOM     12  C   UNL     1      34.641 -23.058 -16.762  0.00  0.00    +0.140 C 
ATOM     13  C   UNL     1      34.717 -22.657 -18.092  0.00  0.00    +0.143 C 
ATOM     14  C   UNL     1      36.782 -21.727 -17.603  0.00  0.00    +0.253 C 
ATOM     15  N   UNL     1      33.674 -22.947 -18.990  0.00  0.00    -0.342 N 
ATOM     16  H   UNL     1      33.738 -22.658 -19.929  0.00  0.00    +0.144 HD
ATOM     17  H   UNL     1      32.880 -23.439 -18.679  0.00  0.00    +0.144 HD
ENDBRANCH   4   6
BRANCH   2  18
ATOM     18  O   UNL     1      34.687 -23.476 -11.623  0.00  0.00    -0.378 OA
ATOM     19  H   UNL     1      35.068 -22.935 -10.913  0.00  0.00    +0.211 HD
ENDBRANCH   2  18
BRANCH   3  20
ATOM     20  O   UNL     1      37.244 -23.093 -10.786  0.00  0.00    -0.379 OA
ATOM     21  H   UNL     1      36.446 -22.542 -10.767  0.00  0.00    +0.211 HD
ENDBRANCH   3  20
BRANCH   5  22
ATOM     22  C   UNL     1      38.315 -25.735 -13.179  0.00  0.00    +0.186 C 
BRANCH  22  23
ATOM     23  O   UNL     1      38.785 -25.671 -14.515  0.00  0.00    -0.271 OA
BRANCH  23  24
ATOM     24  P   UNL     1      40.381 -25.572 -14.767  0.00  0.00    +0.473 P 
ATOM     25  O   UNL     1      40.998 -24.252 -14.410  0.00  0.00    -0.227 OA
BRANCH  24  26
ATOM     26  O   UNL     1      40.553 -26.020 -16.311  0.00  0.00    -0.303 OA
ATOM     27  H   UNL     1      39.818 -26.601 -16.563  0.00  0.00    +0.222 HD
ENDBRANCH  24  26
BRANCH  24  28
ATOM     28  O   UNL     1      40.957 -26.840 -13.946  0.00  0.00    -0.303 OA
ATOM     29  H   UNL     1      41.368 -27.466 -14.563  0.00  0.00    +0.222 HD
ENDBRANCH  24  28
ENDBRANCH  23  24
ENDBRANCH  22  23
ENDBRANCH   5  22
TORSDOF 8
ENDMDL
MODEL 4
REMARK VINA RESULT:      -9.0      1.145      2.446
REMARK  Name = 6083
REMARK  8 active torsions:
REMARK  status: ('A' for Active; 'I' for Inactive)
REMARK    1  A    between atoms: C_2  and  O_18
REMARK    2  A    between atoms: C_3  and  O_20
REMARK    3  A    between atoms: C_4  and  N_6
REMARK    4  A    between atoms: C_5  and  C_22
REMARK    5  A    between atoms: C_22  and  O_23
REMARK    6  A    between atoms: O_23  and  P_24
REMARK    7  A    between atoms: P_24  and  O_26
REMARK    8  A    between atoms: P_24  and  O_28
REMARK                            x       y       z     vdW  Elec       q    Type
REMARK                         _______ _______ _______ _____ _____    ______ ____
ROOT
ATOM      1  O   UNL     1      32.080 -25.371 -14.596  0.00  0.00    -0.333 OA
ATOM      2  C   UNL     1      31.611 -23.299 -13.550  0.00  0.00    +0.187 C 
ATOM      3  C   UNL     1      30.373 -24.168 -13.453  0.00  0.00    +0.171 C 
ATOM      4  C   UNL     1      32.693 -24.339 -13.799  0.00  0.00    +0.225 C 
ATOM      5  C   UNL     1      30.643 -25.236 -14.508  0.00  0.00    +0.176 C 
ENDROOT
BRANCH   4   6
ATOM      6  N   UNL     1      33.871 -23.818 -14.488  0.00  0.00    -0.247 N 
ATOM      7  N   UNL     1      35.980 -23.166 -14.811  0.00  0.00    -0.242 NA
ATOM      8  N   UNL     1      32.956 -23.371 -16.694  0.00  0.00    -0.228 NA
ATOM      9  N   UNL     1      34.655 -22.463 -18.192  0.00  0.00    -0.229 NA
ATOM     10  C   UNL     1      33.944 -23.395 -15.786  0.00  0.00    +0.152 C 
ATOM     11  C   UNL     1      35.120 -23.659 -13.945  0.00  0.00    +0.223 C 
ATOM     12  C   UNL     1      35.258 -22.996 -15.966  0.00  0.00    +0.140 C 
ATOM     13  C   UNL     1      35.602 -22.516 -17.225  0.00  0.00    +0.143 C 
ATOM     14  C   UNL     1      33.408 -22.888 -17.871  0.00  0.00    +0.253 C 
ATOM     15  N   UNL     1      36.914 -22.091 -17.498  0.00  0.00    -0.342 N 
ATOM     16  H   UNL     1      37.147 -21.753 -18.393  0.00  0.00    +0.144 HD
ATOM     17  H   UNL     1      37.601 -22.131 -16.794  0.00  0.00    +0.144 HD
ENDBRANCH   4   6
BRANCH   2  18
ATOM     18  O   UNL     1      31.857 -22.553 -12.375  0.00  0.00    -0.378 OA
ATOM     19  H   UNL     1      32.808 -22.562 -12.180  0.00  0.00    +0.211 HD
ENDBRANCH   2  18
BRANCH   3  20
ATOM     20  O   UNL     1      30.327 -24.790 -12.168  0.00  0.00    -0.379 OA
ATOM     21  H   UNL     1      29.965 -25.685 -12.255  0.00  0.00    +0.211 HD
ENDBRANCH   3  20
BRANCH   5  22
ATOM     22  C   UNL     1      30.110 -24.860 -15.884  0.00  0.00    +0.186 C 
BRANCH  22  23
ATOM     23  O   UNL     1      28.827 -24.279 -15.730  0.00  0.00    -0.271 OA
BRANCH  23  24
ATOM     24  P   UNL     1      28.444 -23.000 -16.646  0.00  0.00    +0.473 P 
ATOM     25  O   UNL     1      27.465 -23.281 -17.748  0.00  0.00    -0.227 OA
BRANCH  24  26
ATOM     26  O   UNL     1      29.879 -22.429 -17.125  0.00  0.00    -0.303 OA
ATOM     27  H   UNL     1      29.849 -21.460 -17.150  0.00  0.00    +0.222 HD
ENDBRANCH  24  26
BRANCH  24  28
ATOM     28  O   UNL     1      27.953 -21.909 -15.558  0.00  0.00    -0.303 OA
ATOM     29  H   UNL     1      28.409 -21.067 -15.716  0.00  0.00    +0.222 HD
ENDBRANCH  24  28
ENDBRANCH  23  24
ENDBRANCH  22  23
ENDBRANCH   5  22
TORSDOF 8
ENDMDL
MODEL 5
REMARK VINA RESULT:      -8.9      1.704      2.236
REMARK  Name = 6083
REMARK  8 active torsions:
REMARK  status: ('A' for Active; 'I' for Inactive)
REMARK    1  A    between atoms: C_2  and  O_18
REMARK    2  A    between atoms: C_3  and  O_20
REMARK    3  A    between atoms: C_4  and  N_6
REMARK    4  A    between atoms: C_5  and  C_22
REMARK    5  A    between atoms: C_22  and  O_23
REMARK    6  A    between atoms: O_23  and  P_24
REMARK    7  A    between atoms: P_24  and  O_26
REMARK    8  A    between atoms: P_24  and  O_28
REMARK                            x       y       z     vdW  Elec       q    Type
REMARK                         _______ _______ _______ _____ _____    ______ ____
ROOT
ATOM      1  O   UNL     1      30.958 -23.999 -15.850  0.00  0.00    -0.333 OA
ATOM      2  C   UNL     1      32.215 -23.239 -13.992  0.00  0.00    +0.187 C 
ATOM      3  C   UNL     1      30.841 -23.649 -13.498  0.00  0.00    +0.171 C 
ATOM      4  C   UNL     1      32.296 -23.985 -15.315  0.00  0.00    +0.225 C 
ATOM      5  C   UNL     1      30.029 -23.681 -14.788  0.00  0.00    +0.176 C 
ENDROOT
BRANCH   4   6
ATOM      6  N   UNL     1      33.208 -23.381 -16.283  0.00  0.00    -0.247 N 
ATOM      7  N   UNL     1      33.917 -22.452 -18.184  0.00  0.00    -0.242 NA
ATOM      8  N   UNL     1      35.289 -23.396 -15.028  0.00  0.00    -0.228 NA
ATOM      9  N   UNL     1      37.118 -22.441 -16.332  0.00  0.00    -0.229 NA
ATOM     10  C   UNL     1      34.542 -23.136 -16.113  0.00  0.00    +0.152 C 
ATOM     11  C   UNL     1      32.881 -22.954 -17.544  0.00  0.00    +0.223 C 
ATOM     12  C   UNL     1      34.962 -22.560 -17.301  0.00  0.00    +0.140 C 
ATOM     13  C   UNL     1      36.304 -22.208 -17.389  0.00  0.00    +0.143 C 
ATOM     14  C   UNL     1      36.567 -23.012 -15.232  0.00  0.00    +0.253 C 
ATOM     15  N   UNL     1      36.817 -21.617 -18.558  0.00  0.00    -0.342 N 
ATOM     16  H   UNL     1      37.769 -21.371 -18.609  0.00  0.00    +0.144 HD
ATOM     17  H   UNL     1      36.222 -21.448 -19.325  0.00  0.00    +0.144 HD
ENDBRANCH   4   6
BRANCH   2  18
ATOM     18  O   UNL     1      33.255 -23.613 -13.111  0.00  0.00    -0.378 OA
ATOM     19  H   UNL     1      32.886 -23.781 -12.229  0.00  0.00    +0.211 HD
ENDBRANCH   2  18
BRANCH   3  20
ATOM     20  O   UNL     1      30.904 -24.970 -12.959  0.00  0.00    -0.379 OA
ATOM     21  H   UNL     1      31.775 -25.115 -12.559  0.00  0.00    +0.211 HD
ENDBRANCH   3  20
BRANCH   5  22
ATOM     22  C   UNL     1      29.370 -22.347 -15.109  0.00  0.00    +0.186 C 
BRANCH  22  23
ATOM     23  O   UNL     1      29.059 -22.315 -16.491  0.00  0.00    -0.271 OA
BRANCH  23  24
ATOM     24  P   UNL     1      27.551 -22.682 -16.952  0.00  0.00    +0.473 P 
ATOM     25  O   UNL     1      27.424 -23.941 -17.760  0.00  0.00    -0.227 OA
BRANCH  24  26
ATOM     26  O   UNL     1      27.035 -21.336 -17.683  0.00  0.00    -0.303 OA
ATOM     27  H   UNL     1      26.113 -21.167 -17.437  0.00  0.00    +0.222 HD
ENDBRANCH  24  26
BRANCH  24  28
ATOM     28  O   UNL     1      26.736 -22.683 -15.555  0.00  0.00    -0.303 OA
ATOM     29  H   UNL     1      26.822 -21.815 -15.130  0.00  0.00    +0.222 HD
ENDBRANCH  24  28
ENDBRANCH  23  24
ENDBRANCH  22  23
ENDBRANCH   5  22
TORSDOF 8
ENDMDL
MODEL 6
REMARK VINA RESULT:      -8.8      8.293     10.053
REMARK  Name = 6083
REMARK  8 active torsions:
REMARK  status: ('A' for Active; 'I' for Inactive)
REMARK    1  A    between atoms: C_2  and  O_18
REMARK    2  A    between atoms: C_3  and  O_20
REMARK    3  A    between atoms: C_4  and  N_6
REMARK    4  A    between atoms: C_5  and  C_22
REMARK    5  A    between atoms: C_22  and  O_23
REMARK    6  A    between atoms: O_23  and  P_24
REMARK    7  A    between atoms: P_24  and  O_26
REMARK    8  A    between atoms: P_24  and  O_28
REMARK                            x       y       z     vdW  Elec       q    Type
REMARK                         _______ _______ _______ _____ _____    ______ ____
ROOT
ATOM      1  O   UNL     1      34.775 -17.106 -20.877  0.00  0.00    -0.333 OA
ATOM      2  C   UNL     1      34.252 -17.992 -23.010  0.00  0.00    +0.187 C 
ATOM      3  C   UNL     1      34.602 -16.527 -23.179  0.00  0.00    +0.171 C 
ATOM      4  C   UNL     1      34.896 -18.305 -21.668  0.00  0.00    +0.225 C 
ATOM      5  C   UNL     1      34.476 -15.997 -21.755  0.00  0.00    +0.176 C 
ENDROOT
BRANCH   4   6
ATOM      6  N   UNL     1      34.283 -19.426 -20.961  0.00  0.00    -0.247 N 
ATOM      7  N   UNL     1      32.702 -20.832 -20.250  0.00  0.00    -0.242 NA
ATOM      8  N   UNL     1      36.216 -20.372 -19.832  0.00  0.00    -0.228 NA
ATOM      9  N   UNL     1      35.601 -22.325 -18.504  0.00  0.00    -0.229 NA
ATOM     10  C   UNL     1      34.912 -20.328 -20.149  0.00  0.00    +0.152 C 
ATOM     11  C   UNL     1      32.956 -19.771 -20.988  0.00  0.00    +0.223 C 
ATOM     12  C   UNL     1      33.916 -21.190 -19.720  0.00  0.00    +0.140 C 
ATOM     13  C   UNL     1      34.300 -22.219 -18.866  0.00  0.00    +0.143 C 
ATOM     14  C   UNL     1      36.466 -21.408 -19.003  0.00  0.00    +0.253 C 
ATOM     15  N   UNL     1      33.355 -23.141 -18.382  0.00  0.00    -0.342 N 
ATOM     16  H   UNL     1      33.638 -23.866 -17.779  0.00  0.00    +0.144 HD
ATOM     17  H   UNL     1      32.410 -23.062 -18.648  0.00  0.00    +0.144 HD
ENDBRANCH   4   6
BRANCH   2  18
ATOM     18  O   UNL     1      34.766 -18.807 -24.044  0.00  0.00    -0.378 OA
ATOM     19  H   UNL     1      34.090 -18.923 -24.730  0.00  0.00    +0.211 HD
ENDBRANCH   2  18
BRANCH   3  20
ATOM     20  O   UNL     1      35.962 -16.408 -23.598  0.00  0.00    -0.379 OA
ATOM     21  H   UNL     1      36.072 -15.594 -24.113  0.00  0.00    +0.211 HD
ENDBRANCH   3  20
BRANCH   5  22
ATOM     22  C   UNL     1      33.078 -15.489 -21.431  0.00  0.00    +0.186 C 
BRANCH  22  23
ATOM     23  O   UNL     1      33.132 -14.082 -21.270  0.00  0.00    -0.271 OA
BRANCH  23  24
ATOM     24  P   UNL     1      32.724 -13.145 -22.526  0.00  0.00    +0.473 P 
ATOM     25  O   UNL     1      31.993 -11.885 -22.165  0.00  0.00    -0.227 OA
BRANCH  24  26
ATOM     26  O   UNL     1      31.926 -14.150 -23.510  0.00  0.00    -0.303 OA
ATOM     27  H   UNL     1      31.902 -13.775 -24.404  0.00  0.00    +0.222 HD
ENDBRANCH  24  26
BRANCH  24  28
ATOM     28  O   UNL     1      34.135 -12.923 -23.285  0.00  0.00    -0.303 OA
ATOM     29  H   UNL     1      34.029 -13.122 -24.228  0.00  0.00    +0.222 HD
ENDBRANCH  24  28
ENDBRANCH  23  24
ENDBRANCH  22  23
ENDBRANCH   5  22
TORSDOF 8
ENDMDL
MODEL 7
REMARK VINA RESULT:      -8.7      4.672      6.952
REMARK  Name = 6083
REMARK  8 active torsions:
REMARK  status: ('A' for Active; 'I' for Inactive)
REMARK    1  A    between atoms: C_2  and  O_18
REMARK    2  A    between atoms: C_3  and  O_20
REMARK    3  A    between atoms: C_4  and  N_6
REMARK    4  A    between atoms: C_5  and  C_22
REMARK    5  A    between atoms: C_22  and  O_23
REMARK    6  A    between atoms: O_23  and  P_24
REMARK    7  A    between atoms: P_24  and  O_26
REMARK    8  A    between atoms: P_24  and  O_28
REMARK                            x       y       z     vdW  Elec       q    Type
REMARK                         _______ _______ _______ _____ _____    ______ ____
ROOT
ATOM      1  O   UNL     1      35.333 -24.226 -15.850  0.00  0.00    -0.333 OA
ATOM      2  C   UNL     1      36.479 -22.157 -15.749  0.00  0.00    +0.187 C 
ATOM      3  C   UNL     1      36.971 -23.026 -14.608  0.00  0.00    +0.171 C 
ATOM      4  C   UNL     1      35.890 -23.196 -16.690  0.00  0.00    +0.225 C 
ATOM      5  C   UNL     1      35.882 -24.091 -14.519  0.00  0.00    +0.176 C 
ENDROOT
BRANCH   4   6
ATOM      6  N   UNL     1      34.858 -22.674 -17.581  0.00  0.00    -0.247 N 
ATOM      7  N   UNL     1      32.835 -22.346 -18.464  0.00  0.00    -0.242 NA
ATOM      8  N   UNL     1      36.183 -21.256 -19.043  0.00  0.00    -0.228 NA
ATOM      9  N   UNL     1      34.791 -20.167 -20.725  0.00  0.00    -0.229 NA
ATOM     10  C   UNL     1      35.033 -21.807 -18.623  0.00  0.00    +0.152 C 
ATOM     11  C   UNL     1      33.519 -22.969 -17.528  0.00  0.00    +0.223 C 
ATOM     12  C   UNL     1      33.769 -21.616 -19.156  0.00  0.00    +0.140 C 
ATOM     13  C   UNL     1      33.670 -20.759 -20.247  0.00  0.00    +0.143 C 
ATOM     14  C   UNL     1      35.961 -20.449 -20.101  0.00  0.00    +0.253 C 
ATOM     15  N   UNL     1      32.425 -20.506 -20.851  0.00  0.00    -0.342 N 
ATOM     16  H   UNL     1      32.366 -19.897 -21.623  0.00  0.00    +0.144 HD
ATOM     17  H   UNL     1      31.612 -20.937 -20.501  0.00  0.00    +0.144 HD
ENDBRANCH   4   6
BRANCH   2  18
ATOM     18  O   UNL     1      37.513 -21.415 -16.364  0.00  0.00    -0.378 OA
ATOM     19  H   UNL     1      38.056 -22.007 -16.909  0.00  0.00    +0.211 HD
ENDBRANCH   2  18
BRANCH   3  20
ATOM     20  O   UNL     1      38.199 -23.652 -14.981  0.00  0.00    -0.379 OA
ATOM     21  H   UNL     1      38.549 -23.227 -15.779  0.00  0.00    +0.211 HD
ENDBRANCH   3  20
BRANCH   5  22
ATOM     22  C   UNL     1      34.755 -23.710 -13.569  0.00  0.00    +0.186 C 
BRANCH  22  23
ATOM     23  O   UNL     1      34.760 -24.612 -12.476  0.00  0.00    -0.271 OA
BRANCH  23  24
ATOM     24  P   UNL     1      35.943 -24.488 -11.378  0.00  0.00    +0.473 P 
ATOM     25  O   UNL     1      36.663 -23.171 -11.368  0.00  0.00    -0.227 OA
BRANCH  24  26
ATOM     26  O   UNL     1      36.870 -25.780 -11.667  0.00  0.00    -0.303 OA
ATOM     27  H   UNL     1      37.343 -25.658 -12.504  0.00  0.00    +0.222 HD
ENDBRANCH  24  26
BRANCH  24  28
ATOM     28  O   UNL     1      35.194 -24.868  -9.995  0.00  0.00    -0.303 OA
ATOM     29  H   UNL     1      34.791 -25.746 -10.077  0.00  0.00    +0.222 HD
ENDBRANCH  24  28
ENDBRANCH  23  24
ENDBRANCH  22  23
ENDBRANCH   5  22
TORSDOF 8
ENDMDL
MODEL 8
REMARK VINA RESULT:      -8.7      3.582      5.615
REMARK  Name = 6083
REMARK  8 active torsions:
REMARK  status: ('A' for Active; 'I' for Inactive)
REMARK    1  A    between atoms: C_2  and  O_18
REMARK    2  A    between atoms: C_3  and  O_20
REMARK    3  A    between atoms: C_4  and  N_6
REMARK    4  A    between atoms: C_5  and  C_22
REMARK    5  A    between atoms: C_22  and  O_23
REMARK    6  A    between atoms: O_23  and  P_24
REMARK    7  A    between atoms: P_24  and  O_26
REMARK    8  A    between atoms: P_24  and  O_28
REMARK                            x       y       z     vdW  Elec       q    Type
REMARK                         _______ _______ _______ _____ _____    ______ ____
ROOT
ATOM      1  O   UNL     1      35.004 -24.480 -15.835  0.00  0.00    -0.333 OA
ATOM      2  C   UNL     1      36.108 -22.415 -15.478  0.00  0.00    +0.187 C 
ATOM      3  C   UNL     1      36.515 -23.367 -14.371  0.00  0.00    +0.171 C 
ATOM      4  C   UNL     1      35.614 -23.383 -16.543  0.00  0.00    +0.225 C 
ATOM      5  C   UNL     1      35.439 -24.444 -14.456  0.00  0.00    +0.176 C 
ENDROOT
BRANCH   4   6
ATOM      6  N   UNL     1      34.652 -22.801 -17.475  0.00  0.00    -0.247 N 
ATOM      7  N   UNL     1      32.689 -22.342 -18.431  0.00  0.00    -0.242 NA
ATOM      8  N   UNL     1      36.124 -21.500 -18.906  0.00  0.00    -0.228 NA
ATOM      9  N   UNL     1      34.870 -20.338 -20.647  0.00  0.00    -0.229 NA
ATOM     10  C   UNL     1      34.924 -21.962 -18.520  0.00  0.00    +0.152 C 
ATOM     11  C   UNL     1      33.295 -22.999 -17.465  0.00  0.00    +0.223 C 
ATOM     12  C   UNL     1      33.695 -21.689 -19.098  0.00  0.00    +0.140 C 
ATOM     13  C   UNL     1      33.694 -20.842 -20.202  0.00  0.00    +0.143 C 
ATOM     14  C   UNL     1      35.996 -20.692 -19.980  0.00  0.00    +0.253 C 
ATOM     15  N   UNL     1      32.492 -20.510 -20.851  0.00  0.00    -0.342 N 
ATOM     16  H   UNL     1      32.503 -19.909 -21.631  0.00  0.00    +0.144 HD
ATOM     17  H   UNL     1      31.639 -20.878 -20.524  0.00  0.00    +0.144 HD
ENDBRANCH   4   6
BRANCH   2  18
ATOM     18  O   UNL     1      37.179 -21.619 -15.946  0.00  0.00    -0.378 OA
ATOM     19  H   UNL     1      36.970 -21.286 -16.833  0.00  0.00    +0.211 HD
ENDBRANCH   2  18
BRANCH   3  20
ATOM     20  O   UNL     1      37.779 -23.951 -14.686  0.00  0.00    -0.379 OA
ATOM     21  H   UNL     1      37.801 -24.867 -14.370  0.00  0.00    +0.211 HD
ENDBRANCH   3  20
BRANCH   5  22
ATOM     22  C   UNL     1      34.231 -24.148 -13.578  0.00  0.00    +0.186 C 
BRANCH  22  23
ATOM     23  O   UNL     1      33.055 -24.436 -14.313  0.00  0.00    -0.271 OA
BRANCH  23  24
ATOM     24  P   UNL     1      31.652 -23.810 -13.801  0.00  0.00    +0.473 P 
ATOM     25  O   UNL     1      30.803 -23.195 -14.876  0.00  0.00    -0.227 OA
BRANCH  24  26
ATOM     26  O   UNL     1      32.091 -22.809 -12.610  0.00  0.00    -0.303 OA
ATOM     27  H   UNL     1      32.895 -22.331 -12.869  0.00  0.00    +0.222 HD
ENDBRANCH  24  26
BRANCH  24  28
ATOM     28  O   UNL     1      30.968 -25.047 -13.015  0.00  0.00    -0.303 OA
ATOM     29  H   UNL     1      30.726 -24.766 -12.119  0.00  0.00    +0.222 HD
ENDBRANCH  24  28
ENDBRANCH  23  24
ENDBRANCH  22  23
ENDBRANCH   5  22
TORSDOF 8
ENDMDL
MODEL 9
REMARK VINA RESULT:      -8.5      4.862      7.253
REMARK  Name = 6083
REMARK  8 active torsions:
REMARK  status: ('A' for Active; 'I' for Inactive)
REMARK    1  A    between atoms: C_2  and  O_18
REMARK    2  A    between atoms: C_3  and  O_20
REMARK    3  A    between atoms: C_4  and  N_6
REMARK    4  A    between atoms: C_5  and  C_22
REMARK    5  A    between atoms: C_22  and  O_23
REMARK    6  A    between atoms: O_23  and  P_24
REMARK    7  A    between atoms: P_24  and  O_26
REMARK    8  A    between atoms: P_24  and  O_28
REMARK                            x       y       z     vdW  Elec       q    Type
REMARK                         _______ _______ _______ _____ _____    ______ ____
ROOT
ATOM      1  O   UNL     1      36.634 -23.886 -14.279  0.00  0.00    -0.333 OA
ATOM      2  C   UNL     1      35.186 -24.991 -12.764  0.00  0.00    +0.187 C 
ATOM      3  C   UNL     1      36.615 -25.276 -12.346  0.00  0.00    +0.171 C 
ATOM      4  C   UNL     1      35.363 -23.743 -13.615  0.00  0.00    +0.225 C 
ATOM      5  C   UNL     1      37.400 -24.909 -13.601  0.00  0.00    +0.176 C 
ENDROOT
BRANCH   4   6
ATOM      6  N   UNL     1      34.309 -23.544 -14.605  0.00  0.00    -0.247 N 
ATOM      7  N   UNL     1      33.344 -23.258 -16.597  0.00  0.00    -0.242 NA
ATOM      8  N   UNL     1      32.341 -23.481 -13.180  0.00  0.00    -0.228 NA
ATOM      9  N   UNL     1      30.307 -23.155 -14.488  0.00  0.00    -0.229 NA
ATOM     10  C   UNL     1      32.967 -23.432 -14.367  0.00  0.00    +0.152 C 
ATOM     11  C   UNL     1      34.484 -23.431 -15.961  0.00  0.00    +0.223 C 
ATOM     12  C   UNL     1      32.388 -23.256 -15.613  0.00  0.00    +0.140 C 
ATOM     13  C   UNL     1      31.005 -23.115 -15.649  0.00  0.00    +0.143 C 
ATOM     14  C   UNL     1      31.009 -23.334 -13.342  0.00  0.00    +0.253 C 
ATOM     15  N   UNL     1      30.333 -22.933 -16.871  0.00  0.00    -0.342 N 
ATOM     16  H   UNL     1      29.353 -22.835 -16.885  0.00  0.00    +0.144 HD
ATOM     17  H   UNL     1      30.842 -22.906 -17.713  0.00  0.00    +0.144 HD
ENDBRANCH   4   6
BRANCH   2  18
ATOM     18  O   UNL     1      34.323 -24.765 -11.668  0.00  0.00    -0.378 OA
ATOM     19  H   UNL     1      34.344 -25.533 -11.077  0.00  0.00    +0.211 HD
ENDBRANCH   2  18
BRANCH   3  20
ATOM     20  O   UNL     1      36.989 -24.389 -11.292  0.00  0.00    -0.379 OA
ATOM     21  H   UNL     1      36.540 -23.538 -11.411  0.00  0.00    +0.211 HD
ENDBRANCH   3  20
BRANCH   5  22
ATOM     22  C   UNL     1      37.584 -26.083 -14.552  0.00  0.00    +0.186 C 
BRANCH  22  23
ATOM     23  O   UNL     1      38.950 -26.457 -14.553  0.00  0.00    -0.271 OA
BRANCH  23  24
ATOM     24  P   UNL     1      40.051 -25.359 -15.006  0.00  0.00    +0.473 P 
ATOM     25  O   UNL     1      40.979 -24.905 -13.917  0.00  0.00    -0.227 OA
BRANCH  24  26
ATOM     26  O   UNL     1      39.168 -24.192 -15.693  0.00  0.00    -0.303 OA
ATOM     27  H   UNL     1      38.484 -24.591 -16.252  0.00  0.00    +0.222 HD
ENDBRANCH  24  26
BRANCH  24  28
ATOM     28  O   UNL     1      40.774 -26.070 -16.266  0.00  0.00    -0.303 OA
ATOM     29  H   UNL     1      40.441 -25.682 -17.090  0.00  0.00    +0.222 HD
ENDBRANCH  24  28
ENDBRANCH  23  24
ENDBRANCH  22  23
ENDBRANCH   5  22
TORSDOF 8
ENDMDL
