MODEL 1
REMARK VINA RESULT:     -10.0      0.000      0.000
REMARK  Name = 37801
REMARK  4 active torsions:
REMARK  status: ('A' for Active; 'I' for Inactive)
REMARK    1  A    between atoms: C_2  and  C_16
REMARK    2  A    between atoms: C_5  and  C_10
REMARK    3  A    between atoms: C_16  and  C_19
REMARK    4  A    between atoms: C_19  and  O_20
REMARK                            x       y       z     vdW  Elec       q    Type
REMARK                         _______ _______ _______ _____ _____    ______ ____
ROOT
ATOM      1  O   UNL     1      34.717 -16.316 -21.922  0.00  0.00    -0.451 OA
ATOM      2  C   UNL     1      34.316 -16.448 -24.337  0.00  0.00    +0.023 C 
ATOM      3  C   UNL     1      34.566 -17.008 -23.085  0.00  0.00    +0.142 C 
ATOM      4  C   UNL     1      34.695 -18.374 -22.855  0.00  0.00    +0.037 C 
ATOM      5  C   UNL     1      34.941 -18.508 -21.462  0.00  0.00    +0.041 C 
ATOM      6  C   UNL     1      34.194 -17.342 -25.406  0.00  0.00    -0.001 C 
ATOM      7  C   UNL     1      34.570 -19.255 -23.943  0.00  0.00    +0.003 C 
ATOM      8  C   UNL     1      34.945 -17.234 -20.945  0.00  0.00    +0.179 C 
ATOM      9  C   UNL     1      34.318 -18.720 -25.214  0.00  0.00    -0.000 C 
ENDROOT
BRANCH   5  10
ATOM     10  C   UNL     1      35.155 -19.676 -20.662  0.00  0.00    +0.003 C 
ATOM     11  C   UNL     1      34.068 -20.448 -20.243  0.00  0.00    +0.000 C 
ATOM     12  C   UNL     1      36.451 -20.048 -20.295  0.00  0.00    +0.000 C 
ATOM     13  C   UNL     1      34.276 -21.585 -19.463  0.00  0.00    +0.000 C 
ATOM     14  C   UNL     1      36.658 -21.185 -19.515  0.00  0.00    +0.000 C 
ATOM     15  C   UNL     1      35.572 -21.954 -19.098  0.00  0.00    +0.000 C 
ENDBRANCH   5  10
BRANCH   2  16
ATOM     16  C   UNL     1      34.179 -14.982 -24.562  0.00  0.00    +0.124 C 
ATOM     17  C   UNL     1      33.321 -14.613 -25.791  0.00  0.00    +0.017 C 
BRANCH  16  19
ATOM     18  O   UNL     1      32.420 -14.208 -23.054  0.00  0.00    -0.250 OA
ATOM     19  C   UNL     1      33.609 -14.243 -23.345  0.00  0.00    +0.318 C 
BRANCH  19  20
ATOM     20  O   UNL     1      34.560 -13.610 -22.610  0.00  0.00    -0.480 OA
ATOM     21  H   UNL     1      34.532 -13.647 -21.673  0.00  0.00    +0.295 HD
ENDBRANCH  19  20
ENDBRANCH  16  19
ENDBRANCH   2  16
TORSDOF 4
ENDMDL
MODEL 2
REMARK VINA RESULT:      -9.9      5.197      9.579
REMARK  Name = 37801
REMARK  4 active torsions:
REMARK  status: ('A' for Active; 'I' for Inactive)
REMARK    1  A    between atoms: C_2  and  C_16
REMARK    2  A    between atoms: C_5  and  C_10
REMARK    3  A    between atoms: C_16  and  C_19
REMARK    4  A    between atoms: C_19  and  O_20
REMARK                            x       y       z     vdW  Elec       q    Type
REMARK                         _______ _______ _______ _____ _____    ______ ____
ROOT
ATOM      1  O   UNL     1      33.920 -23.682 -16.941  0.00  0.00    -0.451 OA
ATOM      2  C   UNL     1      35.904 -23.694 -15.500  0.00  0.00    +0.023 C 
ATOM      3  C   UNL     1      35.155 -23.233 -16.582  0.00  0.00    +0.142 C 
ATOM      4  C   UNL     1      35.578 -22.236 -17.454  0.00  0.00    +0.037 C 
ATOM      5  C   UNL     1      34.527 -22.077 -18.397  0.00  0.00    +0.041 C 
ATOM      6  C   UNL     1      37.153 -23.095 -15.309  0.00  0.00    -0.001 C 
ATOM      7  C   UNL     1      36.838 -21.648 -17.244  0.00  0.00    +0.003 C 
ATOM      8  C   UNL     1      33.548 -22.975 -18.041  0.00  0.00    +0.179 C 
ATOM      9  C   UNL     1      37.613 -22.090 -16.163  0.00  0.00    -0.000 C 
ENDROOT
BRANCH   5  10
ATOM     10  C   UNL     1      34.408 -21.197 -19.520  0.00  0.00    +0.003 C 
ATOM     11  C   UNL     1      35.551 -20.777 -20.206  0.00  0.00    +0.000 C 
ATOM     12  C   UNL     1      33.150 -20.754 -19.935  0.00  0.00    +0.000 C 
ATOM     13  C   UNL     1      35.435 -19.920 -21.300  0.00  0.00    +0.000 C 
ATOM     14  C   UNL     1      33.035 -19.897 -21.028  0.00  0.00    +0.000 C 
ATOM     15  C   UNL     1      34.176 -19.479 -21.712  0.00  0.00    +0.000 C 
ENDBRANCH   5  10
BRANCH   2  16
ATOM     16  C   UNL     1      35.432 -24.763 -14.577  0.00  0.00    +0.124 C 
ATOM     17  C   UNL     1      36.567 -25.615 -13.971  0.00  0.00    +0.017 C 
BRANCH  16  19
ATOM     18  O   UNL     1      34.762 -24.487 -12.244  0.00  0.00    -0.250 OA
ATOM     19  C   UNL     1      34.577 -24.221 -13.425  0.00  0.00    +0.318 C 
BRANCH  19  20
ATOM     20  O   UNL     1      33.569 -23.410 -13.842  0.00  0.00    -0.480 OA
ATOM     21  H   UNL     1      33.076 -22.915 -13.217  0.00  0.00    +0.295 HD
ENDBRANCH  19  20
ENDBRANCH  16  19
ENDBRANCH   2  16
TORSDOF 4
ENDMDL
MODEL 3
REMARK VINA RESULT:      -9.8      1.183      1.652
REMARK  Name = 37801
REMARK  4 active torsions:
REMARK  status: ('A' for Active; 'I' for Inactive)
REMARK    1  A    between atoms: C_2  and  C_16
REMARK    2  A    between atoms: C_5  and  C_10
REMARK    3  A    between atoms: C_16  and  C_19
REMARK    4  A    between atoms: C_19  and  O_20
REMARK                            x       y       z     vdW  Elec       q    Type
REMARK                         _______ _______ _______ _____ _____    ______ ____
ROOT
ATOM      1  O   UNL     1      34.483 -15.168 -21.429  0.00  0.00    -0.451 OA
ATOM      2  C   UNL     1      34.054 -14.746 -23.806  0.00  0.00    +0.023 C 
ATOM      3  C   UNL     1      34.355 -15.571 -22.724  0.00  0.00    +0.142 C 
ATOM      4  C   UNL     1      34.570 -16.942 -22.826  0.00  0.00    +0.037 C 
ATOM      5  C   UNL     1      34.844 -17.388 -21.506  0.00  0.00    +0.041 C 
ATOM      6  C   UNL     1      33.969 -15.366 -25.057  0.00  0.00    -0.001 C 
ATOM      7  C   UNL     1      34.481 -17.545 -24.093  0.00  0.00    +0.003 C 
ATOM      8  C   UNL     1      34.779 -16.275 -20.699  0.00  0.00    +0.179 C 
ATOM      9  C   UNL     1      34.178 -16.740 -25.200  0.00  0.00    -0.000 C 
ENDROOT
BRANCH   5  10
ATOM     10  C   UNL     1      35.139 -18.698 -21.007  0.00  0.00    +0.003 C 
ATOM     11  C   UNL     1      34.102 -19.587 -20.716  0.00  0.00    +0.000 C 
ATOM     12  C   UNL     1      36.465 -19.090 -20.808  0.00  0.00    +0.000 C 
ATOM     13  C   UNL     1      34.390 -20.863 -20.229  0.00  0.00    +0.000 C 
ATOM     14  C   UNL     1      36.752 -20.365 -20.321  0.00  0.00    +0.000 C 
ATOM     15  C   UNL     1      35.715 -21.252 -20.031  0.00  0.00    +0.000 C 
ENDBRANCH   5  10
BRANCH   2  16
ATOM     16  C   UNL     1      33.827 -13.280 -23.676  0.00  0.00    +0.124 C 
ATOM     17  C   UNL     1      33.757 -12.533 -25.025  0.00  0.00    +0.017 C 
BRANCH  16  19
ATOM     18  O   UNL     1      32.152 -11.804 -22.683  0.00  0.00    -0.250 OA
ATOM     19  C   UNL     1      32.560 -12.941 -22.879  0.00  0.00    +0.318 C 
BRANCH  19  20
ATOM     20  O   UNL     1      31.925 -14.040 -22.393  0.00  0.00    -0.480 OA
ATOM     21  H   UNL     1      31.091 -13.952 -21.974  0.00  0.00    +0.295 HD
ENDBRANCH  19  20
ENDBRANCH  16  19
ENDBRANCH   2  16
TORSDOF 4
ENDMDL
MODEL 4
REMARK VINA RESULT:      -9.8      1.679      2.779
REMARK  Name = 37801
REMARK  4 active torsions:
REMARK  status: ('A' for Active; 'I' for Inactive)
REMARK    1  A    between atoms: C_2  and  C_16
REMARK    2  A    between atoms: C_5  and  C_10
REMARK    3  A    between atoms: C_16  and  C_19
REMARK    4  A    between atoms: C_19  and  O_20
REMARK                            x       y       z     vdW  Elec       q    Type
REMARK                         _______ _______ _______ _____ _____    ______ ____
ROOT
ATOM      1  O   UNL     1      34.971 -16.101 -23.843  0.00  0.00    -0.451 OA
ATOM      2  C   UNL     1      33.684 -14.176 -23.039  0.00  0.00    +0.023 C 
ATOM      3  C   UNL     1      34.198 -15.465 -22.919  0.00  0.00    +0.142 C 
ATOM      4  C   UNL     1      33.985 -16.290 -21.819  0.00  0.00    +0.037 C 
ATOM      5  C   UNL     1      34.676 -17.498 -22.104  0.00  0.00    +0.041 C 
ATOM      6  C   UNL     1      32.910 -13.712 -21.970  0.00  0.00    -0.001 C 
ATOM      7  C   UNL     1      33.204 -15.805 -20.756  0.00  0.00    +0.003 C 
ATOM      8  C   UNL     1      35.256 -17.331 -23.340  0.00  0.00    +0.179 C 
ATOM      9  C   UNL     1      32.673 -14.511 -20.848  0.00  0.00    -0.000 C 
ENDROOT
BRANCH   5  10
ATOM     10  C   UNL     1      34.808 -18.700 -21.336  0.00  0.00    +0.003 C 
ATOM     11  C   UNL     1      33.671 -19.424 -20.967  0.00  0.00    +0.000 C 
ATOM     12  C   UNL     1      36.072 -19.153 -20.953  0.00  0.00    +0.000 C 
ATOM     13  C   UNL     1      33.799 -20.594 -20.219  0.00  0.00    +0.000 C 
ATOM     14  C   UNL     1      36.199 -20.323 -20.205  0.00  0.00    +0.000 C 
ATOM     15  C   UNL     1      35.063 -21.044 -19.838  0.00  0.00    +0.000 C 
ENDBRANCH   5  10
BRANCH   2  16
ATOM     16  C   UNL     1      33.924 -13.308 -24.225  0.00  0.00    +0.124 C 
ATOM     17  C   UNL     1      33.044 -13.655 -25.445  0.00  0.00    +0.017 C 
BRANCH  16  19
ATOM     18  O   UNL     1      32.733 -11.329 -23.431  0.00  0.00    -0.250 OA
ATOM     19  C   UNL     1      33.745 -11.816 -23.919  0.00  0.00    +0.318 C 
BRANCH  19  20
ATOM     20  O   UNL     1      34.828 -11.067 -24.252  0.00  0.00    -0.480 OA
ATOM     21  H   UNL     1      34.715 -10.247 -24.692  0.00  0.00    +0.295 HD
ENDBRANCH  19  20
ENDBRANCH  16  19
ENDBRANCH   2  16
TORSDOF 4
ENDMDL
MODEL 5
REMARK VINA RESULT:      -9.7      2.150      4.145
REMARK  Name = 37801
REMARK  4 active torsions:
REMARK  status: ('A' for Active; 'I' for Inactive)
REMARK    1  A    between atoms: C_2  and  C_16
REMARK    2  A    between atoms: C_5  and  C_10
REMARK    3  A    between atoms: C_16  and  C_19
REMARK    4  A    between atoms: C_19  and  O_20
REMARK                            x       y       z     vdW  Elec       q    Type
REMARK                         _______ _______ _______ _____ _____    ______ ____
ROOT
ATOM      1  O   UNL     1      36.743 -20.115 -20.572  0.00  0.00    -0.451 OA
ATOM      2  C   UNL     1      34.697 -19.443 -21.744  0.00  0.00    +0.023 C 
ATOM      3  C   UNL     1      35.390 -20.095 -20.725  0.00  0.00    +0.142 C 
ATOM      4  C   UNL     1      34.779 -20.826 -19.711  0.00  0.00    +0.037 C 
ATOM      5  C   UNL     1      35.836 -21.315 -18.898  0.00  0.00    +0.041 C 
ATOM      6  C   UNL     1      33.302 -19.551 -21.715  0.00  0.00    -0.001 C 
ATOM      7  C   UNL     1      33.376 -20.922 -19.702  0.00  0.00    +0.003 C 
ATOM      8  C   UNL     1      37.003 -20.856 -19.463  0.00  0.00    +0.179 C 
ATOM      9  C   UNL     1      32.652 -20.276 -20.713  0.00  0.00    -0.000 C 
ENDROOT
BRANCH   5  10
ATOM     10  C   UNL     1      35.806 -22.124 -17.717  0.00  0.00    +0.003 C 
ATOM     11  C   UNL     1      34.633 -22.793 -17.355  0.00  0.00    +0.000 C 
ATOM     12  C   UNL     1      36.947 -22.247 -16.921  0.00  0.00    +0.000 C 
ATOM     13  C   UNL     1      34.604 -23.580 -16.204  0.00  0.00    +0.000 C 
ATOM     14  C   UNL     1      36.917 -23.034 -15.771  0.00  0.00    +0.000 C 
ATOM     15  C   UNL     1      35.746 -23.701 -15.411  0.00  0.00    +0.000 C 
ENDBRANCH   5  10
BRANCH   2  16
ATOM     16  C   UNL     1      35.370 -18.665 -22.820  0.00  0.00    +0.124 C 
ATOM     17  C   UNL     1      34.751 -18.865 -24.220  0.00  0.00    +0.017 C 
BRANCH  16  19
ATOM     18  O   UNL     1      35.132 -16.658 -21.448  0.00  0.00    -0.250 OA
ATOM     19  C   UNL     1      35.412 -17.159 -22.529  0.00  0.00    +0.318 C 
BRANCH  19  20
ATOM     20  O   UNL     1      35.786 -16.417 -23.604  0.00  0.00    -0.480 OA
ATOM     21  H   UNL     1      36.561 -16.641 -24.082  0.00  0.00    +0.295 HD
ENDBRANCH  19  20
ENDBRANCH  16  19
ENDBRANCH   2  16
TORSDOF 4
ENDMDL
MODEL 6
REMARK VINA RESULT:      -9.4      9.359     11.498
REMARK  Name = 37801
REMARK  4 active torsions:
REMARK  status: ('A' for Active; 'I' for Inactive)
REMARK    1  A    between atoms: C_2  and  C_16
REMARK    2  A    between atoms: C_5  and  C_10
REMARK    3  A    between atoms: C_16  and  C_19
REMARK    4  A    between atoms: C_19  and  O_20
REMARK                            x       y       z     vdW  Elec       q    Type
REMARK                         _______ _______ _______ _____ _____    ______ ____
ROOT
ATOM      1  O   UNL     1      35.001 -24.718 -13.057  0.00  0.00    -0.451 OA
ATOM      2  C   UNL     1      37.115 -24.124 -14.147  0.00  0.00    +0.023 C 
ATOM      3  C   UNL     1      35.725 -24.127 -14.048  0.00  0.00    +0.142 C 
ATOM      4  C   UNL     1      34.877 -23.514 -14.965  0.00  0.00    +0.037 C 
ATOM      5  C   UNL     1      33.559 -23.755 -14.492  0.00  0.00    +0.041 C 
ATOM      6  C   UNL     1      37.659 -23.456 -15.249  0.00  0.00    -0.001 C 
ATOM      7  C   UNL     1      35.444 -22.849 -16.066  0.00  0.00    +0.003 C 
ATOM      8  C   UNL     1      33.690 -24.487 -13.335  0.00  0.00    +0.179 C 
ATOM      9  C   UNL     1      36.840 -22.829 -16.192  0.00  0.00    -0.000 C 
ENDROOT
BRANCH   5  10
ATOM     10  C   UNL     1      32.290 -23.364 -15.028  0.00  0.00    +0.003 C 
ATOM     11  C   UNL     1      32.132 -23.200 -16.407  0.00  0.00    +0.000 C 
ATOM     12  C   UNL     1      31.205 -23.145 -14.176  0.00  0.00    +0.000 C 
ATOM     13  C   UNL     1      30.897 -22.819 -16.930  0.00  0.00    +0.000 C 
ATOM     14  C   UNL     1      29.971 -22.763 -14.699  0.00  0.00    +0.000 C 
ATOM     15  C   UNL     1      29.815 -22.600 -16.075  0.00  0.00    +0.000 C 
ENDBRANCH   5  10
BRANCH   2  16
ATOM     16  C   UNL     1      38.005 -24.785 -13.153  0.00  0.00    +0.124 C 
ATOM     17  C   UNL     1      39.413 -25.114 -13.693  0.00  0.00    +0.017 C 
BRANCH  16  19
ATOM     18  O   UNL     1      39.063 -23.153 -11.673  0.00  0.00    -0.250 OA
ATOM     19  C   UNL     1      38.169 -23.969 -11.864  0.00  0.00    +0.318 C 
BRANCH  19  20
ATOM     20  O   UNL     1      37.220 -24.245 -10.932  0.00  0.00    -0.480 OA
ATOM     21  H   UNL     1      36.371 -24.537 -11.199  0.00  0.00    +0.295 HD
ENDBRANCH  19  20
ENDBRANCH  16  19
ENDBRANCH   2  16
TORSDOF 4
ENDMDL
MODEL 7
REMARK VINA RESULT:      -9.4      2.243      4.085
REMARK  Name = 37801
REMARK  4 active torsions:
REMARK  status: ('A' for Active; 'I' for Inactive)
REMARK    1  A    between atoms: C_2  and  C_16
REMARK    2  A    between atoms: C_5  and  C_10
REMARK    3  A    between atoms: C_16  and  C_19
REMARK    4  A    between atoms: C_19  and  O_20
REMARK                            x       y       z     vdW  Elec       q    Type
REMARK                         _______ _______ _______ _____ _____    ______ ____
ROOT
ATOM      1  O   UNL     1      34.268 -13.307 -22.946  0.00  0.00    -0.451 OA
ATOM      2  C   UNL     1      33.546 -12.662 -25.198  0.00  0.00    +0.023 C 
ATOM      3  C   UNL     1      33.885 -13.595 -24.221  0.00  0.00    +0.142 C 
ATOM      4  C   UNL     1      33.877 -14.972 -24.422  0.00  0.00    +0.037 C 
ATOM      5  C   UNL     1      34.282 -15.545 -23.186  0.00  0.00    +0.041 C 
ATOM      6  C   UNL     1      33.179 -13.173 -26.447  0.00  0.00    -0.001 C 
ATOM      7  C   UNL     1      33.506 -15.465 -25.685  0.00  0.00    +0.003 C 
ATOM      8  C   UNL     1      34.507 -14.494 -22.327  0.00  0.00    +0.179 C 
ATOM      9  C   UNL     1      33.159 -14.550 -26.688  0.00  0.00    -0.000 C 
ENDROOT
BRANCH   5  10
ATOM     10  C   UNL     1      34.454 -16.914 -22.806  0.00  0.00    +0.003 C 
ATOM     11  C   UNL     1      34.815 -17.867 -23.761  0.00  0.00    +0.000 C 
ATOM     12  C   UNL     1      34.260 -17.303 -21.478  0.00  0.00    +0.000 C 
ATOM     13  C   UNL     1      34.982 -19.202 -23.390  0.00  0.00    +0.000 C 
ATOM     14  C   UNL     1      34.427 -18.637 -21.108  0.00  0.00    +0.000 C 
ATOM     15  C   UNL     1      34.788 -19.587 -22.063  0.00  0.00    +0.000 C 
ENDBRANCH   5  10
BRANCH   2  16
ATOM     16  C   UNL     1      33.560 -11.191 -24.962  0.00  0.00    +0.124 C 
ATOM     17  C   UNL     1      33.060 -10.776 -23.562  0.00  0.00    +0.017 C 
BRANCH  16  19
ATOM     18  O   UNL     1      35.540 -10.558 -26.246  0.00  0.00    -0.250 OA
ATOM     19  C   UNL     1      34.945 -10.567 -25.176  0.00  0.00    +0.318 C 
BRANCH  19  20
ATOM     20  O   UNL     1      35.467 -10.023 -24.045  0.00  0.00    -0.480 OA
ATOM     21  H   UNL     1      35.433 -10.497 -23.237  0.00  0.00    +0.295 HD
ENDBRANCH  19  20
ENDBRANCH  16  19
ENDBRANCH   2  16
TORSDOF 4
ENDMDL
MODEL 8
REMARK VINA RESULT:      -9.3      1.902      3.284
REMARK  Name = 37801
REMARK  4 active torsions:
REMARK  status: ('A' for Active; 'I' for Inactive)
REMARK    1  A    between atoms: C_2  and  C_16
REMARK    2  A    between atoms: C_5  and  C_10
REMARK    3  A    between atoms: C_16  and  C_19
REMARK    4  A    between atoms: C_19  and  O_20
REMARK                            x       y       z     vdW  Elec       q    Type
REMARK                         _______ _______ _______ _____ _____    ______ ____
ROOT
ATOM      1  O   UNL     1      34.460 -15.859 -24.720  0.00  0.00    -0.451 OA
ATOM      2  C   UNL     1      33.085 -14.000 -23.906  0.00  0.00    +0.023 C 
ATOM      3  C   UNL     1      33.758 -15.210 -23.750  0.00  0.00    +0.142 C 
ATOM      4  C   UNL     1      33.802 -15.929 -22.560  0.00  0.00    +0.037 C 
ATOM      5  C   UNL     1      34.582 -17.084 -22.837  0.00  0.00    +0.041 C 
ATOM      6  C   UNL     1      32.423 -13.506 -22.777  0.00  0.00    -0.001 C 
ATOM      7  C   UNL     1      33.130 -15.415 -21.437  0.00  0.00    +0.003 C 
ATOM      8  C   UNL     1      34.955 -16.993 -24.158  0.00  0.00    +0.179 C 
ATOM      9  C   UNL     1      32.445 -14.199 -21.564  0.00  0.00    -0.000 C 
ENDROOT
BRANCH   5  10
ATOM     10  C   UNL     1      34.962 -18.177 -21.992  0.00  0.00    +0.003 C 
ATOM     11  C   UNL     1      33.988 -19.039 -21.482  0.00  0.00    +0.000 C 
ATOM     12  C   UNL     1      36.307 -18.385 -21.675  0.00  0.00    +0.000 C 
ATOM     13  C   UNL     1      34.358 -20.103 -20.659  0.00  0.00    +0.000 C 
ATOM     14  C   UNL     1      36.675 -19.448 -20.853  0.00  0.00    +0.000 C 
ATOM     15  C   UNL     1      35.702 -20.308 -20.344  0.00  0.00    +0.000 C 
ENDBRANCH   5  10
BRANCH   2  16
ATOM     16  C   UNL     1      33.050 -13.245 -25.189  0.00  0.00    +0.124 C 
ATOM     17  C   UNL     1      34.157 -12.178 -25.320  0.00  0.00    +0.017 C 
BRANCH  16  19
ATOM     18  O   UNL     1      33.902 -14.000 -27.350  0.00  0.00    -0.250 OA
ATOM     19  C   UNL     1      33.122 -14.158 -26.420  0.00  0.00    +0.318 C 
BRANCH  19  20
ATOM     20  O   UNL     1      32.218 -15.172 -26.388  0.00  0.00    -0.480 OA
ATOM     21  H   UNL     1      32.242 -15.800 -25.692  0.00  0.00    +0.295 HD
ENDBRANCH  19  20
ENDBRANCH  16  19
ENDBRANCH   2  16
TORSDOF 4
ENDMDL
MODEL 9
REMARK VINA RESULT:      -9.3      4.606      7.711
REMARK  Name = 37801
REMARK  4 active torsions:
REMARK  status: ('A' for Active; 'I' for Inactive)
REMARK    1  A    between atoms: C_2  and  C_16
REMARK    2  A    between atoms: C_5  and  C_10
REMARK    3  A    between atoms: C_16  and  C_19
REMARK    4  A    between atoms: C_19  and  O_20
REMARK                            x       y       z     vdW  Elec       q    Type
REMARK                         _______ _______ _______ _____ _____    ______ ____
ROOT
ATOM      1  O   UNL     1      31.860 -11.183 -22.124  0.00  0.00    -0.451 OA
ATOM      2  C   UNL     1      32.919  -9.056 -22.728  0.00  0.00    +0.023 C 
ATOM      3  C   UNL     1      32.763 -10.437 -22.821  0.00  0.00    +0.142 C 
ATOM      4  C   UNL     1      33.522 -11.253 -23.653  0.00  0.00    +0.037 C 
ATOM      5  C   UNL     1      33.043 -12.574 -23.440  0.00  0.00    +0.041 C 
ATOM      6  C   UNL     1      33.909  -8.486 -23.535  0.00  0.00    -0.001 C 
ATOM      7  C   UNL     1      34.513 -10.660 -24.455  0.00  0.00    +0.003 C 
ATOM      8  C   UNL     1      32.038 -12.475 -22.506  0.00  0.00    +0.179 C 
ATOM      9  C   UNL     1      34.693  -9.272 -24.383  0.00  0.00    -0.000 C 
ENDROOT
BRANCH   5  10
ATOM     10  C   UNL     1      33.449 -13.818 -24.022  0.00  0.00    +0.003 C 
ATOM     11  C   UNL     1      33.009 -14.171 -25.300  0.00  0.00    +0.000 C 
ATOM     12  C   UNL     1      34.286 -14.684 -23.314  0.00  0.00    +0.000 C 
ATOM     13  C   UNL     1      33.404 -15.383 -25.866  0.00  0.00    +0.000 C 
ATOM     14  C   UNL     1      34.680 -15.895 -23.880  0.00  0.00    +0.000 C 
ATOM     15  C   UNL     1      34.240 -16.246 -25.156  0.00  0.00    +0.000 C 
ENDBRANCH   5  10
BRANCH   2  16
ATOM     16  C   UNL     1      32.094  -8.200 -21.831  0.00  0.00    +0.124 C 
ATOM     17  C   UNL     1      32.804  -7.796 -20.521  0.00  0.00    +0.017 C 
BRANCH  16  19
ATOM     18  O   UNL     1      30.825  -6.902 -23.466  0.00  0.00    -0.250 OA
ATOM     19  C   UNL     1      31.599  -6.920 -22.517  0.00  0.00    +0.318 C 
BRANCH  19  20
ATOM     20  O   UNL     1      32.115  -5.787 -21.973  0.00  0.00    -0.480 OA
ATOM     21  H   UNL     1      31.770  -4.950 -22.217  0.00  0.00    +0.295 HD
ENDBRANCH  19  20
ENDBRANCH  16  19
ENDBRANCH   2  16
TORSDOF 4
ENDMDL
