MODEL 1
REMARK VINA RESULT:      -9.4      0.000      0.000
REMARK  Name = 60857
REMARK  5 active torsions:
REMARK  status: ('A' for Active; 'I' for Inactive)
REMARK    1  A    between atoms: C_2  and  C_11
REMARK    2  A    between atoms: C_4  and  C_19
REMARK    3  A    between atoms: C_11  and  C_15
REMARK    4  A    between atoms: C_19  and  C_20
REMARK    5  A    between atoms: C_20  and  N_21
REMARK                            x       y       z     vdW  Elec       q    Type
REMARK                         _______ _______ _______ _____ _____    ______ ____
ROOT
ATOM      1  N   UNL     1      33.516 -15.586 -25.948  0.00  0.00    -0.312 N 
ATOM      2  C   UNL     1      35.136 -17.686 -22.793  0.00  0.00    -0.020 C 
ATOM      3  C   UNL     1      34.147 -15.724 -23.812  0.00  0.00    +0.010 C 
ATOM      4  C   UNL     1      33.610 -14.429 -24.056  0.00  0.00    -0.008 C 
ATOM      5  C   UNL     1      34.076 -16.430 -25.015  0.00  0.00    +0.048 C 
ATOM      6  C   UNL     1      34.687 -16.365 -22.680  0.00  0.00    -0.003 C 
ATOM      7  C   UNL     1      35.053 -18.366 -24.006  0.00  0.00    -0.003 C 
ATOM      8  C   UNL     1      33.231 -14.374 -25.377  0.00  0.00    +0.057 C 
ATOM      9  C   UNL     1      34.521 -17.751 -25.143  0.00  0.00    +0.014 C 
ATOM     10  H   UNL     1      33.345 -15.821 -26.888  0.00  0.00    +0.152 HD
ENDROOT
BRANCH   2  11
ATOM     11  C   UNL     1      35.711 -18.372 -21.597  0.00  0.00    +0.050 C 
BRANCH  11  15
ATOM     12  O   UNL     1      34.762 -21.297 -19.659  0.00  0.00    -0.433 OA
ATOM     13  O   UNL     1      32.503 -20.992 -19.419  0.00  0.00    -0.226 OA
ATOM     14  N   UNL     1      33.769 -19.706 -20.888  0.00  0.00    -0.268 N 
ATOM     15  C   UNL     1      35.109 -19.747 -21.380  0.00  0.00    +0.123 C 
ATOM     16  C   UNL     1      35.810 -20.554 -20.306  0.00  0.00    +0.230 C 
ATOM     17  C   UNL     1      33.566 -20.684 -19.939  0.00  0.00    +0.402 C 
ATOM     18  H   UNL     1      33.082 -19.066 -21.187  0.00  0.00    +0.153 HD
ENDBRANCH  11  15
ENDBRANCH   2  11
BRANCH   4  19
ATOM     19  C   UNL     1      33.476 -13.333 -23.075  0.00  0.00    +0.005 C 
BRANCH  19  20
ATOM     20  C   UNL     1      32.288 -13.538 -22.116  0.00  0.00    -0.073 C 
BRANCH  20  21
ATOM     21  N   UNL     1      31.569 -12.294 -21.860  0.00  0.00    +0.384 N 
ATOM     22  C   UNL     1      32.112 -11.209 -22.678  0.00  0.00    -0.101 C 
ATOM     23  C   UNL     1      31.637 -11.945 -20.440  0.00  0.00    -0.101 C 
ATOM     24  H   UNL     1      30.592 -12.433 -22.113  0.00  0.00    -0.080 HD
ENDBRANCH  20  21
ENDBRANCH  19  20
ENDBRANCH   4  19
TORSDOF 5
ENDMDL
MODEL 2
REMARK VINA RESULT:      -9.2      3.873      8.584
REMARK  Name = 60857
REMARK  5 active torsions:
REMARK  status: ('A' for Active; 'I' for Inactive)
REMARK    1  A    between atoms: C_2  and  C_11
REMARK    2  A    between atoms: C_4  and  C_19
REMARK    3  A    between atoms: C_11  and  C_15
REMARK    4  A    between atoms: C_19  and  C_20
REMARK    5  A    between atoms: C_20  and  N_21
REMARK                            x       y       z     vdW  Elec       q    Type
REMARK                         _______ _______ _______ _____ _____    ______ ____
ROOT
ATOM      1  N   UNL     1      33.099 -22.229 -18.787  0.00  0.00    -0.312 N 
ATOM      2  C   UNL     1      34.873 -19.424 -21.231  0.00  0.00    -0.020 C 
ATOM      3  C   UNL     1      34.894 -21.102 -19.485  0.00  0.00    +0.010 C 
ATOM      4  C   UNL     1      35.281 -22.001 -18.451  0.00  0.00    -0.008 C 
ATOM      5  C   UNL     1      33.521 -21.266 -19.676  0.00  0.00    +0.048 C 
ATOM      6  C   UNL     1      35.583 -20.164 -20.278  0.00  0.00    -0.003 C 
ATOM      7  C   UNL     1      33.503 -19.608 -21.400  0.00  0.00    -0.003 C 
ATOM      8  C   UNL     1      34.156 -22.680 -18.043  0.00  0.00    +0.057 C 
ATOM      9  C   UNL     1      32.798 -20.533 -20.625  0.00  0.00    +0.014 C 
ATOM     10  H   UNL     1      32.171 -22.548 -18.701  0.00  0.00    +0.152 HD
ENDROOT
BRANCH   2  11
ATOM     11  C   UNL     1      35.597 -18.427 -22.075  0.00  0.00    +0.050 C 
BRANCH  11  15
ATOM     12  O   UNL     1      34.668 -15.481 -23.990  0.00  0.00    -0.433 OA
ATOM     13  O   UNL     1      34.457 -16.339 -26.104  0.00  0.00    -0.226 OA
ATOM     14  N   UNL     1      34.665 -17.710 -24.236  0.00  0.00    -0.268 N 
ATOM     15  C   UNL     1      34.648 -17.510 -22.822  0.00  0.00    +0.123 C 
ATOM     16  C   UNL     1      35.008 -16.043 -22.710  0.00  0.00    +0.230 C 
ATOM     17  C   UNL     1      34.589 -16.505 -24.901  0.00  0.00    +0.402 C 
ATOM     18  H   UNL     1      34.721 -18.588 -24.676  0.00  0.00    +0.153 HD
ENDBRANCH  11  15
ENDBRANCH   2  11
BRANCH   4  19
ATOM     19  C   UNL     1      36.642 -22.184 -17.908  0.00  0.00    +0.005 C 
BRANCH  19  20
ATOM     20  C   UNL     1      36.693 -22.034 -16.375  0.00  0.00    -0.073 C 
BRANCH  20  21
ATOM     21  N   UNL     1      36.556 -23.318 -15.694  0.00  0.00    +0.384 N 
ATOM     22  C   UNL     1      35.594 -23.217 -14.595  0.00  0.00    -0.101 C 
ATOM     23  C   UNL     1      37.853 -23.775 -15.195  0.00  0.00    -0.101 C 
ATOM     24  H   UNL     1      36.209 -24.000 -16.367  0.00  0.00    -0.080 HD
ENDBRANCH  20  21
ENDBRANCH  19  20
ENDBRANCH   4  19
TORSDOF 5
ENDMDL
MODEL 3
REMARK VINA RESULT:      -9.0      4.753     10.072
REMARK  Name = 60857
REMARK  5 active torsions:
REMARK  status: ('A' for Active; 'I' for Inactive)
REMARK    1  A    between atoms: C_2  and  C_11
REMARK    2  A    between atoms: C_4  and  C_19
REMARK    3  A    between atoms: C_11  and  C_15
REMARK    4  A    between atoms: C_19  and  C_20
REMARK    5  A    between atoms: C_20  and  N_21
REMARK                            x       y       z     vdW  Elec       q    Type
REMARK                         _______ _______ _______ _____ _____    ______ ____
ROOT
ATOM      1  N   UNL     1      33.860 -23.480 -16.434  0.00  0.00    -0.312 N 
ATOM      2  C   UNL     1      35.370 -21.210 -19.525  0.00  0.00    -0.020 C 
ATOM      3  C   UNL     1      35.547 -22.410 -17.428  0.00  0.00    +0.010 C 
ATOM      4  C   UNL     1      36.016 -22.996 -16.220  0.00  0.00    -0.008 C 
ATOM      5  C   UNL     1      34.192 -22.728 -17.538  0.00  0.00    +0.048 C 
ATOM      6  C   UNL     1      36.147 -21.636 -18.442  0.00  0.00    -0.003 C 
ATOM      7  C   UNL     1      34.019 -21.543 -19.609  0.00  0.00    -0.003 C 
ATOM      8  C   UNL     1      34.957 -23.648 -15.631  0.00  0.00    +0.057 C 
ATOM      9  C   UNL     1      33.403 -22.309 -18.616  0.00  0.00    +0.014 C 
ATOM     10  H   UNL     1      32.965 -23.844 -16.248  0.00  0.00    +0.152 HD
ENDROOT
BRANCH   2  11
ATOM     11  C   UNL     1      35.999 -20.390 -20.603  0.00  0.00    +0.050 C 
BRANCH  11  15
ATOM     12  O   UNL     1      35.032 -17.355 -22.354  0.00  0.00    -0.433 OA
ATOM     13  O   UNL     1      34.502 -18.158 -24.434  0.00  0.00    -0.226 OA
ATOM     14  N   UNL     1      34.852 -19.574 -22.621  0.00  0.00    -0.268 N 
ATOM     15  C   UNL     1      35.026 -19.401 -21.214  0.00  0.00    +0.123 C 
ATOM     16  C   UNL     1      35.493 -17.961 -21.133  0.00  0.00    +0.230 C 
ATOM     17  C   UNL     1      34.773 -18.355 -23.258  0.00  0.00    +0.402 C 
ATOM     18  H   UNL     1      34.796 -20.446 -23.074  0.00  0.00    +0.153 HD
ENDBRANCH  11  15
ENDBRANCH   2  11
BRANCH   4  19
ATOM     19  C   UNL     1      37.391 -22.928 -15.685  0.00  0.00    +0.005 C 
BRANCH  19  20
ATOM     20  C   UNL     1      37.676 -24.026 -14.642  0.00  0.00    -0.073 C 
BRANCH  20  21
ATOM     21  N   UNL     1      38.226 -25.232 -15.252  0.00  0.00    +0.384 N 
ATOM     22  C   UNL     1      37.414 -26.400 -14.906  0.00  0.00    -0.101 C 
ATOM     23  C   UNL     1      39.613 -25.434 -14.832  0.00  0.00    -0.101 C 
ATOM     24  H   UNL     1      38.208 -25.114 -16.264  0.00  0.00    -0.080 HD
ENDBRANCH  20  21
ENDBRANCH  19  20
ENDBRANCH   4  19
TORSDOF 5
ENDMDL
MODEL 4
REMARK VINA RESULT:      -8.7      8.330     10.473
REMARK  Name = 60857
REMARK  5 active torsions:
REMARK  status: ('A' for Active; 'I' for Inactive)
REMARK    1  A    between atoms: C_2  and  C_11
REMARK    2  A    between atoms: C_4  and  C_19
REMARK    3  A    between atoms: C_11  and  C_15
REMARK    4  A    between atoms: C_19  and  C_20
REMARK    5  A    between atoms: C_20  and  N_21
REMARK                            x       y       z     vdW  Elec       q    Type
REMARK                         _______ _______ _______ _____ _____    ______ ____
ROOT
ATOM      1  N   UNL     1      34.722 -21.939 -18.959  0.00  0.00    -0.312 N 
ATOM      2  C   UNL     1      36.559 -22.860 -15.386  0.00  0.00    -0.020 C 
ATOM      3  C   UNL     1      34.670 -22.800 -16.901  0.00  0.00    +0.010 C 
ATOM      4  C   UNL     1      33.385 -22.938 -17.495  0.00  0.00    -0.008 C 
ATOM      5  C   UNL     1      35.490 -22.171 -17.839  0.00  0.00    +0.048 C 
ATOM      6  C   UNL     1      35.216 -23.152 -15.650  0.00  0.00    -0.003 C 
ATOM      7  C   UNL     1      37.354 -22.231 -16.342  0.00  0.00    -0.003 C 
ATOM      8  C   UNL     1      33.448 -22.400 -18.760  0.00  0.00    +0.057 C 
ATOM      9  C   UNL     1      36.835 -21.873 -17.589  0.00  0.00    +0.014 C 
ATOM     10  H   UNL     1      35.043 -21.506 -19.782  0.00  0.00    +0.152 HD
ENDROOT
BRANCH   2  11
ATOM     11  C   UNL     1      37.145 -23.229 -14.063  0.00  0.00    +0.050 C 
BRANCH  11  15
ATOM     12  O   UNL     1      36.310 -25.663 -11.495  0.00  0.00    -0.433 OA
ATOM     13  O   UNL     1      35.379 -24.337  -9.873  0.00  0.00    -0.226 OA
ATOM     14  N   UNL     1      35.819 -23.537 -12.014  0.00  0.00    -0.268 N 
ATOM     15  C   UNL     1      36.222 -24.119 -13.254  0.00  0.00    +0.123 C 
ATOM     16  C   UNL     1      36.869 -25.410 -12.796  0.00  0.00    +0.230 C 
ATOM     17  C   UNL     1      35.796 -24.484 -11.013  0.00  0.00    +0.402 C 
ATOM     18  H   UNL     1      35.587 -22.588 -11.890  0.00  0.00    +0.153 HD
ENDBRANCH  11  15
ENDBRANCH   2  11
BRANCH   4  19
ATOM     19  C   UNL     1      32.190 -23.550 -16.877  0.00  0.00    +0.005 C 
BRANCH  19  20
ATOM     20  C   UNL     1      31.890 -22.979 -15.478  0.00  0.00    -0.073 C 
BRANCH  20  21
ATOM     21  N   UNL     1      30.464 -23.003 -15.171  0.00  0.00    +0.384 N 
ATOM     22  C   UNL     1      30.126 -24.195 -14.392  0.00  0.00    -0.101 C 
ATOM     23  C   UNL     1      29.672 -22.958 -16.401  0.00  0.00    -0.101 C 
ATOM     24  H   UNL     1      30.244 -22.179 -14.613  0.00  0.00    -0.080 HD
ENDBRANCH  20  21
ENDBRANCH  19  20
ENDBRANCH   4  19
TORSDOF 5
ENDMDL
MODEL 5
REMARK VINA RESULT:      -8.6      9.302     11.868
REMARK  Name = 60857
REMARK  5 active torsions:
REMARK  status: ('A' for Active; 'I' for Inactive)
REMARK    1  A    between atoms: C_2  and  C_11
REMARK    2  A    between atoms: C_4  and  C_19
REMARK    3  A    between atoms: C_11  and  C_15
REMARK    4  A    between atoms: C_19  and  C_20
REMARK    5  A    between atoms: C_20  and  N_21
REMARK                            x       y       z     vdW  Elec       q    Type
REMARK                         _______ _______ _______ _____ _____    ______ ____
ROOT
ATOM      1  N   UNL     1      35.984 -22.863 -16.592  0.00  0.00    -0.312 N 
ATOM      2  C   UNL     1      32.030 -23.384 -15.554  0.00  0.00    -0.020 C 
ATOM      3  C   UNL     1      34.398 -23.242 -15.069  0.00  0.00    +0.010 C 
ATOM      4  C   UNL     1      35.667 -23.225 -14.425  0.00  0.00    -0.008 C 
ATOM      5  C   UNL     1      34.626 -23.012 -16.427  0.00  0.00    +0.048 C 
ATOM      6  C   UNL     1      33.075 -23.431 -14.624  0.00  0.00    -0.003 C 
ATOM      7  C   UNL     1      32.286 -23.153 -16.904  0.00  0.00    -0.003 C 
ATOM      8  C   UNL     1      36.622 -22.989 -15.387  0.00  0.00    +0.057 C 
ATOM      9  C   UNL     1      33.590 -22.962 -17.368  0.00  0.00    +0.014 C 
ATOM     10  H   UNL     1      36.432 -22.689 -17.451  0.00  0.00    +0.152 HD
ENDROOT
BRANCH   2  11
ATOM     11  C   UNL     1      30.624 -23.584 -15.091  0.00  0.00    +0.050 C 
BRANCH  11  15
ATOM     12  O   UNL     1      27.542 -23.564 -17.019  0.00  0.00    -0.433 OA
ATOM     13  O   UNL     1      26.257 -22.078 -15.839  0.00  0.00    -0.226 OA
ATOM     14  N   UNL     1      28.534 -22.332 -15.429  0.00  0.00    -0.268 N 
ATOM     15  C   UNL     1      29.611 -23.018 -16.067  0.00  0.00    +0.123 C 
ATOM     16  C   UNL     1      28.878 -24.077 -16.864  0.00  0.00    +0.230 C 
ATOM     17  C   UNL     1      27.339 -22.602 -16.060  0.00  0.00    +0.402 C 
ATOM     18  H   UNL     1      28.630 -21.744 -14.645  0.00  0.00    +0.153 HD
ENDBRANCH  11  15
ENDBRANCH   2  11
BRANCH   4  19
ATOM     19  C   UNL     1      35.925 -23.421 -12.983  0.00  0.00    +0.005 C 
BRANCH  19  20
ATOM     20  C   UNL     1      36.007 -24.909 -12.594  0.00  0.00    -0.073 C 
BRANCH  20  21
ATOM     21  N   UNL     1      37.379 -25.335 -12.339  0.00  0.00    +0.384 N 
ATOM     22  C   UNL     1      38.227 -24.181 -12.035  0.00  0.00    -0.101 C 
ATOM     23  C   UNL     1      37.911 -26.070 -13.487  0.00  0.00    -0.101 C 
ATOM     24  H   UNL     1      37.375 -25.956 -11.530  0.00  0.00    -0.080 HD
ENDBRANCH  20  21
ENDBRANCH  19  20
ENDBRANCH   4  19
TORSDOF 5
ENDMDL
MODEL 6
REMARK VINA RESULT:      -8.6      2.222      3.614
REMARK  Name = 60857
REMARK  5 active torsions:
REMARK  status: ('A' for Active; 'I' for Inactive)
REMARK    1  A    between atoms: C_2  and  C_11
REMARK    2  A    between atoms: C_4  and  C_19
REMARK    3  A    between atoms: C_11  and  C_15
REMARK    4  A    between atoms: C_19  and  C_20
REMARK    5  A    between atoms: C_20  and  N_21
REMARK                            x       y       z     vdW  Elec       q    Type
REMARK                         _______ _______ _______ _____ _____    ______ ____
ROOT
ATOM      1  N   UNL     1      31.866 -12.891 -21.645  0.00  0.00    -0.312 N 
ATOM      2  C   UNL     1      34.284 -16.219 -21.898  0.00  0.00    -0.020 C 
ATOM      3  C   UNL     1      33.423 -14.099 -22.692  0.00  0.00    +0.010 C 
ATOM      4  C   UNL     1      33.166 -12.919 -23.445  0.00  0.00    -0.008 C 
ATOM      5  C   UNL     1      32.596 -14.057 -21.568  0.00  0.00    +0.048 C 
ATOM      6  C   UNL     1      34.284 -15.202 -22.859  0.00  0.00    -0.003 C 
ATOM      7  C   UNL     1      33.447 -16.151 -20.786  0.00  0.00    -0.003 C 
ATOM      8  C   UNL     1      32.205 -12.197 -22.776  0.00  0.00    +0.057 C 
ATOM      9  C   UNL     1      32.585 -15.067 -20.599  0.00  0.00    +0.014 C 
ATOM     10  H   UNL     1      31.200 -12.599 -20.983  0.00  0.00    +0.152 HD
ENDROOT
BRANCH   2  11
ATOM     11  C   UNL     1      35.194 -17.391 -22.069  0.00  0.00    +0.050 C 
BRANCH  11  15
ATOM     12  O   UNL     1      34.713 -20.703 -20.650  0.00  0.00    -0.433 OA
ATOM     13  O   UNL     1      36.832 -21.231 -19.954  0.00  0.00    -0.226 OA
ATOM     14  N   UNL     1      36.260 -19.079 -20.631  0.00  0.00    -0.268 N 
ATOM     15  C   UNL     1      35.043 -18.404 -20.951  0.00  0.00    +0.123 C 
ATOM     16  C   UNL     1      34.127 -19.560 -21.298  0.00  0.00    +0.230 C 
ATOM     17  C   UNL     1      36.027 -20.413 -20.374  0.00  0.00    +0.402 C 
ATOM     18  H   UNL     1      37.145 -18.651 -20.597  0.00  0.00    +0.153 HD
ENDBRANCH  11  15
ENDBRANCH   2  11
BRANCH   4  19
ATOM     19  C   UNL     1      33.810 -12.528 -24.715  0.00  0.00    +0.005 C 
BRANCH  19  20
ATOM     20  C   UNL     1      33.747 -11.009 -24.967  0.00  0.00    -0.073 C 
BRANCH  20  21
ATOM     21  N   UNL     1      35.042 -10.366 -24.768  0.00  0.00    +0.384 N 
ATOM     22  C   UNL     1      34.873  -9.051 -24.148  0.00  0.00    -0.101 C 
ATOM     23  C   UNL     1      35.754 -10.242 -26.040  0.00  0.00    -0.101 C 
ATOM     24  H   UNL     1      35.595 -10.951 -24.143  0.00  0.00    -0.080 HD
ENDBRANCH  20  21
ENDBRANCH  19  20
ENDBRANCH   4  19
TORSDOF 5
ENDMDL
MODEL 7
REMARK VINA RESULT:      -8.6      4.185      7.447
REMARK  Name = 60857
REMARK  5 active torsions:
REMARK  status: ('A' for Active; 'I' for Inactive)
REMARK    1  A    between atoms: C_2  and  C_11
REMARK    2  A    between atoms: C_4  and  C_19
REMARK    3  A    between atoms: C_11  and  C_15
REMARK    4  A    between atoms: C_19  and  C_20
REMARK    5  A    between atoms: C_20  and  N_21
REMARK                            x       y       z     vdW  Elec       q    Type
REMARK                         _______ _______ _______ _____ _____    ______ ____
ROOT
ATOM      1  N   UNL     1      34.392 -18.017 -25.435  0.00  0.00    -0.312 N 
ATOM      2  C   UNL     1      33.901 -14.367 -23.586  0.00  0.00    -0.020 C 
ATOM      3  C   UNL     1      34.648 -16.668 -23.676  0.00  0.00    +0.010 C 
ATOM      4  C   UNL     1      35.206 -17.942 -23.371  0.00  0.00    -0.008 C 
ATOM      5  C   UNL     1      34.145 -16.743 -24.976  0.00  0.00    +0.048 C 
ATOM      6  C   UNL     1      34.524 -15.457 -22.968  0.00  0.00    -0.003 C 
ATOM      7  C   UNL     1      33.407 -14.469 -24.886  0.00  0.00    -0.003 C 
ATOM      8  C   UNL     1      35.034 -18.749 -24.472  0.00  0.00    +0.057 C 
ATOM      9  C   UNL     1      33.520 -15.661 -25.607  0.00  0.00    +0.014 C 
ATOM     10  H   UNL     1      34.144 -18.353 -26.327  0.00  0.00    +0.152 HD
ENDROOT
BRANCH   2  11
ATOM     11  C   UNL     1      33.765 -13.079 -22.842  0.00  0.00    +0.050 C 
BRANCH  11  15
ATOM     12  O   UNL     1      32.994  -9.620 -23.653  0.00  0.00    -0.433 OA
ATOM     13  O   UNL     1      35.002  -8.867 -24.462  0.00  0.00    -0.226 OA
ATOM     14  N   UNL     1      34.597 -11.127 -24.088  0.00  0.00    -0.268 N 
ATOM     15  C   UNL     1      33.451 -11.914 -23.761  0.00  0.00    +0.123 C 
ATOM     16  C   UNL     1      32.530 -10.883 -23.142  0.00  0.00    +0.230 C 
ATOM     17  C   UNL     1      34.282  -9.786 -24.101  0.00  0.00    +0.402 C 
ATOM     18  H   UNL     1      35.491 -11.492 -24.278  0.00  0.00    +0.153 HD
ENDBRANCH  11  15
ENDBRANCH   2  11
BRANCH   4  19
ATOM     19  C   UNL     1      35.858 -18.337 -22.106  0.00  0.00    +0.005 C 
BRANCH  19  20
ATOM     20  C   UNL     1      34.844 -18.618 -20.980  0.00  0.00    -0.073 C 
BRANCH  20  21
ATOM     21  N   UNL     1      34.387 -20.003 -20.987  0.00  0.00    +0.384 N 
ATOM     22  C   UNL     1      32.976 -20.081 -20.606  0.00  0.00    -0.101 C 
ATOM     23  C   UNL     1      35.203 -20.819 -20.086  0.00  0.00    -0.101 C 
ATOM     24  H   UNL     1      34.487 -20.368 -21.934  0.00  0.00    -0.080 HD
ENDBRANCH  20  21
ENDBRANCH  19  20
ENDBRANCH   4  19
TORSDOF 5
ENDMDL
MODEL 8
REMARK VINA RESULT:      -8.6      5.766     10.118
REMARK  Name = 60857
REMARK  5 active torsions:
REMARK  status: ('A' for Active; 'I' for Inactive)
REMARK    1  A    between atoms: C_2  and  C_11
REMARK    2  A    between atoms: C_4  and  C_19
REMARK    3  A    between atoms: C_11  and  C_15
REMARK    4  A    between atoms: C_19  and  C_20
REMARK    5  A    between atoms: C_20  and  N_21
REMARK                            x       y       z     vdW  Elec       q    Type
REMARK                         _______ _______ _______ _____ _____    ______ ____
ROOT
ATOM      1  N   UNL     1      35.082 -23.027 -15.450  0.00  0.00    -0.312 N 
ATOM      2  C   UNL     1      31.008 -23.624 -15.261  0.00  0.00    -0.020 C 
ATOM      3  C   UNL     1      33.084 -23.190 -16.430  0.00  0.00    +0.010 C 
ATOM      4  C   UNL     1      34.070 -22.930 -17.423  0.00  0.00    -0.008 C 
ATOM      5  C   UNL     1      33.745 -23.245 -15.202  0.00  0.00    +0.048 C 
ATOM      6  C   UNL     1      31.689 -23.383 -16.460  0.00  0.00    -0.003 C 
ATOM      7  C   UNL     1      31.694 -23.674 -14.048  0.00  0.00    -0.003 C 
ATOM      8  C   UNL     1      35.288 -22.836 -16.790  0.00  0.00    +0.057 C 
ATOM      9  C   UNL     1      33.078 -23.485 -13.995  0.00  0.00    +0.014 C 
ATOM     10  H   UNL     1      35.787 -23.011 -14.763  0.00  0.00    +0.152 HD
ENDROOT
BRANCH   2  11
ATOM     11  C   UNL     1      29.529 -23.830 -15.283  0.00  0.00    +0.050 C 
BRANCH  11  15
ATOM     12  O   UNL     1      27.023 -22.884 -17.740  0.00  0.00    -0.433 OA
ATOM     13  O   UNL     1      25.612 -21.577 -16.495  0.00  0.00    -0.226 OA
ATOM     14  N   UNL     1      27.691 -22.248 -15.696  0.00  0.00    -0.268 N 
ATOM     15  C   UNL     1      28.834 -22.897 -16.255  0.00  0.00    +0.123 C 
ATOM     16  C   UNL     1      28.235 -23.605 -17.454  0.00  0.00    +0.230 C 
ATOM     17  C   UNL     1      26.669 -22.177 -16.618  0.00  0.00    +0.402 C 
ATOM     18  H   UNL     1      27.640 -21.898 -14.778  0.00  0.00    +0.153 HD
ENDBRANCH  11  15
ENDBRANCH   2  11
BRANCH   4  19
ATOM     19  C   UNL     1      33.840 -22.789 -18.876  0.00  0.00    +0.005 C 
BRANCH  19  20
ATOM     20  C   UNL     1      33.390 -21.369 -19.268  0.00  0.00    -0.073 C 
BRANCH  20  21
ATOM     21  N   UNL     1      34.493 -20.568 -19.790  0.00  0.00    +0.384 N 
ATOM     22  C   UNL     1      34.073 -19.827 -20.980  0.00  0.00    -0.101 C 
ATOM     23  C   UNL     1      35.643 -21.419 -20.100  0.00  0.00    -0.101 C 
ATOM     24  H   UNL     1      34.769 -19.899 -19.072  0.00  0.00    -0.080 HD
ENDBRANCH  20  21
ENDBRANCH  19  20
ENDBRANCH   4  19
TORSDOF 5
ENDMDL
MODEL 9
REMARK VINA RESULT:      -8.4      3.096      6.528
REMARK  Name = 60857
REMARK  5 active torsions:
REMARK  status: ('A' for Active; 'I' for Inactive)
REMARK    1  A    between atoms: C_2  and  C_11
REMARK    2  A    between atoms: C_4  and  C_19
REMARK    3  A    between atoms: C_11  and  C_15
REMARK    4  A    between atoms: C_19  and  C_20
REMARK    5  A    between atoms: C_20  and  N_21
REMARK                            x       y       z     vdW  Elec       q    Type
REMARK                         _______ _______ _______ _____ _____    ______ ____
ROOT
ATOM      1  N   UNL     1      34.397 -18.139 -25.435  0.00  0.00    -0.312 N 
ATOM      2  C   UNL     1      33.742 -14.352 -23.946  0.00  0.00    -0.020 C 
ATOM      3  C   UNL     1      34.556 -16.629 -23.800  0.00  0.00    +0.010 C 
ATOM      4  C   UNL     1      35.138 -17.851 -23.363  0.00  0.00    -0.008 C 
ATOM      5  C   UNL     1      34.100 -16.836 -25.103  0.00  0.00    +0.048 C 
ATOM      6  C   UNL     1      34.375 -15.362 -23.211  0.00  0.00    -0.003 C 
ATOM      7  C   UNL     1      33.297 -14.587 -25.245  0.00  0.00    -0.003 C 
ATOM      8  C   UNL     1      35.026 -18.760 -24.389  0.00  0.00    +0.057 C 
ATOM      9  C   UNL     1      33.466 -15.836 -25.850  0.00  0.00    +0.014 C 
ATOM     10  H   UNL     1      34.190 -18.562 -26.299  0.00  0.00    +0.152 HD
ENDROOT
BRANCH   2  11
ATOM     11  C   UNL     1      33.546 -13.007 -23.328  0.00  0.00    +0.050 C 
BRANCH  11  15
ATOM     12  O   UNL     1      31.835 -12.633 -20.143  0.00  0.00    -0.433 OA
ATOM     13  O   UNL     1      30.927 -10.538 -20.338  0.00  0.00    -0.226 OA
ATOM     14  N   UNL     1      31.864 -11.647 -22.156  0.00  0.00    -0.268 N 
ATOM     15  C   UNL     1      32.345 -12.968 -22.404  0.00  0.00    +0.123 C 
ATOM     16  C   UNL     1      32.641 -13.460 -21.002  0.00  0.00    +0.230 C 
ATOM     17  C   UNL     1      31.490 -11.501 -20.838  0.00  0.00    +0.402 C 
ATOM     18  H   UNL     1      31.806 -10.936 -22.835  0.00  0.00    +0.153 HD
ENDBRANCH  11  15
ENDBRANCH   2  11
BRANCH   4  19
ATOM     19  C   UNL     1      35.758 -18.109 -22.046  0.00  0.00    +0.005 C 
BRANCH  19  20
ATOM     20  C   UNL     1      34.721 -18.474 -20.966  0.00  0.00    -0.073 C 
BRANCH  20  21
ATOM     21  N   UNL     1      34.359 -19.887 -21.008  0.00  0.00    +0.384 N 
ATOM     22  C   UNL     1      32.977 -20.077 -20.565  0.00  0.00    -0.101 C 
ATOM     23  C   UNL     1      35.272 -20.676 -20.180  0.00  0.00    -0.101 C 
ATOM     24  H   UNL     1      34.437 -20.208 -21.972  0.00  0.00    -0.080 HD
ENDBRANCH  20  21
ENDBRANCH  19  20
ENDBRANCH   4  19
TORSDOF 5
ENDMDL
