MODEL 1
REMARK VINA RESULT:      -6.1      0.000      0.000
REMARK  Name = 2130
REMARK  1 active torsions:
REMARK  status: ('A' for Active; 'I' for Inactive)
REMARK    1  A    between atoms: C_1  and  N_11
REMARK                            x       y       z     vdW  Elec       q    Type
REMARK                         _______ _______ _______ _____ _____    ______ ____
ROOT
ATOM      1  C   UNL     1      32.796  -7.675 -21.307  0.00  0.00    -0.049 C 
ATOM      2  C   UNL     1      33.848  -7.905 -23.593  0.00  0.00    -0.002 C 
ATOM      3  C   UNL     1      31.661  -9.055 -23.094  0.00  0.00    -0.002 C 
ATOM      4  C   UNL     1      31.745  -6.544 -23.309  0.00  0.00    -0.002 C 
ATOM      5  C   UNL     1      34.126  -7.786 -22.083  0.00  0.00    -0.020 C 
ATOM      6  C   UNL     1      31.944  -8.933 -21.587  0.00  0.00    -0.020 C 
ATOM      7  C   UNL     1      32.028  -6.428 -21.800  0.00  0.00    -0.020 C 
ATOM      8  C   UNL     1      32.994  -9.158 -23.854  0.00  0.00    -0.000 C 
ATOM      9  C   UNL     1      33.079  -6.660 -24.066  0.00  0.00    -0.000 C 
ATOM     10  C   UNL     1      30.903  -7.804 -23.571  0.00  0.00    -0.000 C 
ENDROOT
BRANCH   1  11
ATOM     11  N   UNL     1      33.069  -7.552 -19.875  0.00  0.00    +0.383 N 
ATOM     12  H   UNL     1      32.819  -6.616 -19.561  0.00  0.00    -0.089 HD
ATOM     13  H   UNL     1      34.061  -7.716 -19.704  0.00  0.00    -0.089 HD
ATOM     14  H   UNL     1      32.517  -8.241 -19.365  0.00  0.00    -0.089 HD
ENDBRANCH   1  11
TORSDOF 1
ENDMDL
MODEL 2
REMARK VINA RESULT:      -6.1      0.045      2.278
REMARK  Name = 2130
REMARK  1 active torsions:
REMARK  status: ('A' for Active; 'I' for Inactive)
REMARK    1  A    between atoms: C_1  and  N_11
REMARK                            x       y       z     vdW  Elec       q    Type
REMARK                         _______ _______ _______ _____ _____    ______ ____
ROOT
ATOM      1  C   UNL     1      32.765  -7.633 -21.313  0.00  0.00    -0.049 C 
ATOM      2  C   UNL     1      31.640  -9.015 -23.105  0.00  0.00    -0.002 C 
ATOM      3  C   UNL     1      31.736  -6.505 -23.327  0.00  0.00    -0.002 C 
ATOM      4  C   UNL     1      33.836  -7.875 -23.591  0.00  0.00    -0.002 C 
ATOM      5  C   UNL     1      31.911  -8.888 -21.595  0.00  0.00    -0.020 C 
ATOM      6  C   UNL     1      32.007  -6.385 -21.817  0.00  0.00    -0.020 C 
ATOM      7  C   UNL     1      34.102  -7.752 -22.079  0.00  0.00    -0.020 C 
ATOM      8  C   UNL     1      30.890  -7.762 -23.592  0.00  0.00    -0.000 C 
ATOM      9  C   UNL     1      32.979  -9.126 -23.852  0.00  0.00    -0.000 C 
ATOM     10  C   UNL     1      33.075  -6.630 -24.074  0.00  0.00    -0.000 C 
ENDROOT
BRANCH   1  11
ATOM     11  N   UNL     1      33.026  -7.525 -19.878  0.00  0.00    +0.383 N 
ATOM     12  H   UNL     1      32.208  -7.842 -19.359  0.00  0.00    -0.089 HD
ATOM     13  H   UNL     1      33.224  -6.554 -19.641  0.00  0.00    -0.089 HD
ATOM     14  H   UNL     1      33.828  -8.106 -19.635  0.00  0.00    -0.089 HD
ENDBRANCH   1  11
TORSDOF 1
ENDMDL
MODEL 3
REMARK VINA RESULT:      -6.1      0.056      2.268
REMARK  Name = 2130
REMARK  1 active torsions:
REMARK  status: ('A' for Active; 'I' for Inactive)
REMARK    1  A    between atoms: C_1  and  N_11
REMARK                            x       y       z     vdW  Elec       q    Type
REMARK                         _______ _______ _______ _____ _____    ______ ____
ROOT
ATOM      1  C   UNL     1      32.764  -7.619 -21.312  0.00  0.00    -0.049 C 
ATOM      2  C   UNL     1      31.734  -6.500 -23.330  0.00  0.00    -0.002 C 
ATOM      3  C   UNL     1      33.827  -7.880 -23.590  0.00  0.00    -0.002 C 
ATOM      4  C   UNL     1      31.628  -9.007 -23.094  0.00  0.00    -0.002 C 
ATOM      5  C   UNL     1      32.010  -6.372 -21.820  0.00  0.00    -0.020 C 
ATOM      6  C   UNL     1      34.098  -7.749 -22.081  0.00  0.00    -0.020 C 
ATOM      7  C   UNL     1      31.903  -8.873 -21.585  0.00  0.00    -0.020 C 
ATOM      8  C   UNL     1      33.071  -6.633 -24.080  0.00  0.00    -0.000 C 
ATOM      9  C   UNL     1      30.882  -7.754 -23.584  0.00  0.00    -0.000 C 
ATOM     10  C   UNL     1      32.964  -9.128 -23.844  0.00  0.00    -0.000 C 
ENDROOT
BRANCH   1  11
ATOM     11  N   UNL     1      33.013  -7.494 -19.876  0.00  0.00    +0.383 N 
ATOM     12  H   UNL     1      33.926  -7.889 -19.654  0.00  0.00    -0.089 HD
ATOM     13  H   UNL     1      32.290  -7.996 -19.362  0.00  0.00    -0.089 HD
ATOM     14  H   UNL     1      32.997  -6.508 -19.614  0.00  0.00    -0.089 HD
ENDBRANCH   1  11
TORSDOF 1
ENDMDL
MODEL 4
REMARK VINA RESULT:      -5.6      1.559      2.787
REMARK  Name = 2130
REMARK  1 active torsions:
REMARK  status: ('A' for Active; 'I' for Inactive)
REMARK    1  A    between atoms: C_1  and  N_11
REMARK                            x       y       z     vdW  Elec       q    Type
REMARK                         _______ _______ _______ _____ _____    ______ ____
ROOT
ATOM      1  C   UNL     1      31.742  -6.455 -23.473  0.00  0.00    -0.049 C 
ATOM      2  C   UNL     1      33.822  -7.880 -23.650  0.00  0.00    -0.002 C 
ATOM      3  C   UNL     1      32.779  -7.454 -21.395  0.00  0.00    -0.002 C 
ATOM      4  C   UNL     1      31.616  -8.947 -23.061  0.00  0.00    -0.002 C 
ATOM      5  C   UNL     1      33.077  -6.660 -24.222  0.00  0.00    -0.020 C 
ATOM      6  C   UNL     1      32.037  -6.236 -21.972  0.00  0.00    -0.020 C 
ATOM      7  C   UNL     1      30.875  -7.724 -23.634  0.00  0.00    -0.020 C 
ATOM      8  C   UNL     1      34.103  -7.648 -22.155  0.00  0.00    -0.000 C 
ATOM      9  C   UNL     1      32.944  -9.132 -23.814  0.00  0.00    -0.000 C 
ATOM     10  C   UNL     1      31.907  -8.709 -21.570  0.00  0.00    -0.000 C 
ENDROOT
BRANCH   1  11
ATOM     11  N   UNL     1      31.037  -5.301 -24.028  0.00  0.00    +0.383 N 
ATOM     12  H   UNL     1      31.713  -4.595 -24.314  0.00  0.00    -0.089 HD
ATOM     13  H   UNL     1      30.415  -4.911 -23.320  0.00  0.00    -0.089 HD
ATOM     14  H   UNL     1      30.490  -5.596 -24.836  0.00  0.00    -0.089 HD
ENDBRANCH   1  11
TORSDOF 1
ENDMDL
MODEL 5
REMARK VINA RESULT:      -5.6      1.564      3.055
REMARK  Name = 2130
REMARK  1 active torsions:
REMARK  status: ('A' for Active; 'I' for Inactive)
REMARK    1  A    between atoms: C_1  and  N_11
REMARK                            x       y       z     vdW  Elec       q    Type
REMARK                         _______ _______ _______ _____ _____    ______ ____
ROOT
ATOM      1  C   UNL     1      31.749  -6.433 -23.489  0.00  0.00    -0.049 C 
ATOM      2  C   UNL     1      31.610  -8.923 -23.077  0.00  0.00    -0.002 C 
ATOM      3  C   UNL     1      33.822  -7.869 -23.669  0.00  0.00    -0.002 C 
ATOM      4  C   UNL     1      32.784  -7.437 -21.412  0.00  0.00    -0.002 C 
ATOM      5  C   UNL     1      30.876  -7.696 -23.649  0.00  0.00    -0.020 C 
ATOM      6  C   UNL     1      33.083  -6.645 -24.240  0.00  0.00    -0.020 C 
ATOM      7  C   UNL     1      32.047  -6.214 -21.989  0.00  0.00    -0.020 C 
ATOM      8  C   UNL     1      32.937  -9.116 -23.831  0.00  0.00    -0.000 C 
ATOM      9  C   UNL     1      31.903  -8.686 -21.586  0.00  0.00    -0.000 C 
ATOM     10  C   UNL     1      34.104  -7.638 -22.175  0.00  0.00    -0.000 C 
ENDROOT
BRANCH   1  11
ATOM     11  N   UNL     1      31.041  -5.272 -24.026  0.00  0.00    +0.383 N 
ATOM     12  H   UNL     1      31.686  -4.486 -24.102  0.00  0.00    -0.089 HD
ATOM     13  H   UNL     1      30.273  -5.025 -23.403  0.00  0.00    -0.089 HD
ATOM     14  H   UNL     1      30.671  -5.498 -24.950  0.00  0.00    -0.089 HD
ENDBRANCH   1  11
TORSDOF 1
ENDMDL
MODEL 6
REMARK VINA RESULT:      -5.6      1.561      2.782
REMARK  Name = 2130
REMARK  1 active torsions:
REMARK  status: ('A' for Active; 'I' for Inactive)
REMARK    1  A    between atoms: C_1  and  N_11
REMARK                            x       y       z     vdW  Elec       q    Type
REMARK                         _______ _______ _______ _____ _____    ______ ____
ROOT
ATOM      1  C   UNL     1      31.741  -6.447 -23.479  0.00  0.00    -0.049 C 
ATOM      2  C   UNL     1      32.779  -7.437 -21.398  0.00  0.00    -0.002 C 
ATOM      3  C   UNL     1      31.610  -8.936 -23.054  0.00  0.00    -0.002 C 
ATOM      4  C   UNL     1      33.819  -7.878 -23.651  0.00  0.00    -0.002 C 
ATOM      5  C   UNL     1      32.038  -6.220 -21.981  0.00  0.00    -0.020 C 
ATOM      6  C   UNL     1      30.872  -7.715 -23.632  0.00  0.00    -0.020 C 
ATOM      7  C   UNL     1      33.076  -6.660 -24.229  0.00  0.00    -0.020 C 
ATOM      8  C   UNL     1      31.903  -8.691 -21.564  0.00  0.00    -0.000 C 
ATOM      9  C   UNL     1      34.100  -7.637 -22.158  0.00  0.00    -0.000 C 
ATOM     10  C   UNL     1      32.938  -9.129 -23.806  0.00  0.00    -0.000 C 
ENDROOT
BRANCH   1  11
ATOM     11  N   UNL     1      31.046  -5.284 -24.027  0.00  0.00    +0.383 N 
ATOM     12  H   UNL     1      30.517  -5.562 -24.852  0.00  0.00    -0.089 HD
ATOM     13  H   UNL     1      31.729  -4.571 -24.284  0.00  0.00    -0.089 HD
ATOM     14  H   UNL     1      30.409  -4.908 -23.325  0.00  0.00    -0.089 HD
ENDBRANCH   1  11
TORSDOF 1
ENDMDL
MODEL 7
REMARK VINA RESULT:      -5.5     18.781     20.118
REMARK  Name = 2130
REMARK  1 active torsions:
REMARK  status: ('A' for Active; 'I' for Inactive)
REMARK    1  A    between atoms: C_1  and  N_11
REMARK                            x       y       z     vdW  Elec       q    Type
REMARK                         _______ _______ _______ _____ _____    ______ ____
ROOT
ATOM      1  C   UNL     1      38.761 -25.104 -14.743  0.00  0.00    -0.049 C 
ATOM      2  C   UNL     1      38.037 -24.764 -12.345  0.00  0.00    -0.002 C 
ATOM      3  C   UNL     1      36.775 -23.634 -14.212  0.00  0.00    -0.002 C 
ATOM      4  C   UNL     1      36.607 -26.130 -13.907  0.00  0.00    -0.002 C 
ATOM      5  C   UNL     1      39.243 -24.959 -13.283  0.00  0.00    -0.020 C 
ATOM      6  C   UNL     1      37.983 -23.831 -15.144  0.00  0.00    -0.020 C 
ATOM      7  C   UNL     1      37.816 -26.322 -14.841  0.00  0.00    -0.020 C 
ATOM      8  C   UNL     1      37.271 -23.497 -12.762  0.00  0.00    -0.000 C 
ATOM      9  C   UNL     1      37.105 -25.981 -12.460  0.00  0.00    -0.000 C 
ATOM     10  C   UNL     1      35.848 -24.857 -14.316  0.00  0.00    -0.000 C 
ENDROOT
BRANCH   1  11
ATOM     11  N   UNL     1      39.911 -25.298 -15.625  0.00  0.00    +0.383 N 
ATOM     12  H   UNL     1      39.677 -25.983 -16.343  0.00  0.00    -0.089 HD
ATOM     13  H   UNL     1      40.704 -25.632 -15.080  0.00  0.00    -0.089 HD
ATOM     14  H   UNL     1      40.152 -24.411 -16.068  0.00  0.00    -0.089 HD
ENDBRANCH   1  11
TORSDOF 1
ENDMDL
MODEL 8
REMARK VINA RESULT:      -5.5     18.781     20.085
REMARK  Name = 2130
REMARK  1 active torsions:
REMARK  status: ('A' for Active; 'I' for Inactive)
REMARK    1  A    between atoms: C_1  and  N_11
REMARK                            x       y       z     vdW  Elec       q    Type
REMARK                         _______ _______ _______ _____ _____    ______ ____
ROOT
ATOM      1  C   UNL     1      38.764 -25.106 -14.739  0.00  0.00    -0.049 C 
ATOM      2  C   UNL     1      36.608 -26.131 -13.908  0.00  0.00    -0.002 C 
ATOM      3  C   UNL     1      38.033 -24.761 -12.344  0.00  0.00    -0.002 C 
ATOM      4  C   UNL     1      36.775 -23.635 -14.216  0.00  0.00    -0.002 C 
ATOM      5  C   UNL     1      37.820 -26.325 -14.838  0.00  0.00    -0.020 C 
ATOM      6  C   UNL     1      39.241 -24.957 -13.278  0.00  0.00    -0.020 C 
ATOM      7  C   UNL     1      37.987 -23.834 -15.146  0.00  0.00    -0.020 C 
ATOM      8  C   UNL     1      37.101 -25.979 -12.459  0.00  0.00    -0.000 C 
ATOM      9  C   UNL     1      35.850 -24.859 -14.323  0.00  0.00    -0.000 C 
ATOM     10  C   UNL     1      37.267 -23.496 -12.766  0.00  0.00    -0.000 C 
ENDROOT
BRANCH   1  11
ATOM     11  N   UNL     1      39.907 -25.293 -15.632  0.00  0.00    +0.383 N 
ATOM     12  H   UNL     1      39.889 -24.581 -16.361  0.00  0.00    -0.089 HD
ATOM     13  H   UNL     1      39.856 -26.218 -16.058  0.00  0.00    -0.089 HD
ATOM     14  H   UNL     1      40.772 -25.211 -15.097  0.00  0.00    -0.089 HD
ENDBRANCH   1  11
TORSDOF 1
ENDMDL
MODEL 9
REMARK VINA RESULT:      -5.5     18.781     20.082
REMARK  Name = 2130
REMARK  1 active torsions:
REMARK  status: ('A' for Active; 'I' for Inactive)
REMARK    1  A    between atoms: C_1  and  N_11
REMARK                            x       y       z     vdW  Elec       q    Type
REMARK                         _______ _______ _______ _____ _____    ______ ____
ROOT
ATOM      1  C   UNL     1      38.759 -25.110 -14.744  0.00  0.00    -0.049 C 
ATOM      2  C   UNL     1      36.779 -23.632 -14.211  0.00  0.00    -0.002 C 
ATOM      3  C   UNL     1      36.603 -26.128 -13.905  0.00  0.00    -0.002 C 
ATOM      4  C   UNL     1      38.038 -24.765 -12.345  0.00  0.00    -0.002 C 
ATOM      5  C   UNL     1      37.986 -23.835 -15.146  0.00  0.00    -0.020 C 
ATOM      6  C   UNL     1      37.810 -26.325 -14.840  0.00  0.00    -0.020 C 
ATOM      7  C   UNL     1      39.243 -24.965 -13.283  0.00  0.00    -0.020 C 
ATOM      8  C   UNL     1      35.847 -24.853 -14.315  0.00  0.00    -0.000 C 
ATOM      9  C   UNL     1      37.277 -23.496 -12.763  0.00  0.00    -0.000 C 
ATOM     10  C   UNL     1      37.101 -25.979 -12.458  0.00  0.00    -0.000 C 
ENDROOT
BRANCH   1  11
ATOM     11  N   UNL     1      39.909 -25.290 -15.629  0.00  0.00    +0.383 N 
ATOM     12  H   UNL     1      40.495 -26.044 -15.275  0.00  0.00    -0.089 HD
ATOM     13  H   UNL     1      40.449 -24.426 -15.663  0.00  0.00    -0.089 HD
ATOM     14  H   UNL     1      39.581 -25.524 -16.566  0.00  0.00    -0.089 HD
ENDBRANCH   1  11
TORSDOF 1
ENDMDL
