MODEL 1
REMARK VINA RESULT:      -5.8      0.000      0.000
REMARK  Name = 145815
REMARK  6 active torsions:
REMARK  status: ('A' for Active; 'I' for Inactive)
REMARK    1  A    between atoms: CA_1  and  N_2
REMARK    2  A    between atoms: CA_1  and  C_7
REMARK    3  A    between atoms: CA_1  and  CB_10
REMARK    4  A    between atoms: C_7  and  O_8
REMARK    5  A    between atoms: CB_10  and  CG_11
REMARK    6  A    between atoms: CG_11  and  CD_14
REMARK                            x       y       z     vdW  Elec       q    Type
REMARK                         _______ _______ _______ _____ _____    ______ ____
ROOT
ATOM      1  CA  GLN A   1      38.701 -25.688 -14.590  0.00  0.00    +0.036 C 
ENDROOT
BRANCH   1   2
ATOM      2  N   GLN A   1      37.871 -24.671 -15.234  0.00  0.00    +0.389 N 
ATOM      3  H1  GLN A   1      38.124 -24.600 -16.220  0.00  0.00    -0.088 HD
ATOM      4  H2  GLN A   1      38.019 -23.771 -14.778  0.00  0.00    -0.088 HD
ATOM      5  H3  GLN A   1      36.888 -24.934 -15.155  0.00  0.00    -0.088 HD
ENDBRANCH   1   2
BRANCH   1   7
ATOM      6  OXT GLN A   1      40.920 -24.730 -14.245  0.00  0.00    -0.253 OA
ATOM      7  C   GLN A   1      40.153 -25.399 -14.926  0.00  0.00    +0.293 C 
BRANCH   7   8
ATOM      8  O   GLN A   1      40.536 -25.993 -16.087  0.00  0.00    -0.482 OA
ATOM      9  H   GLN A   1      40.140 -26.799 -16.354  0.00  0.00    +0.295 HD
ENDBRANCH   7   8
ENDBRANCH   1   7
BRANCH   1  10
ATOM     10  CB  GLN A   1      38.429 -25.763 -13.078  0.00  0.00    -0.001 C 
BRANCH  10  11
ATOM     11  CG  GLN A   1      37.291 -24.882 -12.549  0.00  0.00    +0.083 C 
BRANCH  11  14
ATOM     12  OE1 GLN A   1      38.878 -23.256 -11.756  0.00  0.00    -0.275 OA
ATOM     13  NE2 GLN A   1      36.812 -23.334 -10.748  0.00  0.00    -0.329 N 
ATOM     14  CD  GLN A   1      37.753 -23.744 -11.664  0.00  0.00    +0.219 C 
ATOM     15 HE21 GLN A   1      37.018 -22.599 -10.126  0.00  0.00    +0.145 HD
ATOM     16 HE22 GLN A   1      35.932 -23.776 -10.715  0.00  0.00    +0.145 HD
ENDBRANCH  11  14
ENDBRANCH  10  11
ENDBRANCH   1  10
TORSDOF 6
ENDMDL
MODEL 2
REMARK VINA RESULT:      -5.7      1.491      1.551
REMARK  Name = 145815
REMARK  6 active torsions:
REMARK  status: ('A' for Active; 'I' for Inactive)
REMARK    1  A    between atoms: CA_1  and  N_2
REMARK    2  A    between atoms: CA_1  and  C_7
REMARK    3  A    between atoms: CA_1  and  CB_10
REMARK    4  A    between atoms: C_7  and  O_8
REMARK    5  A    between atoms: CB_10  and  CG_11
REMARK    6  A    between atoms: CG_11  and  CD_14
REMARK                            x       y       z     vdW  Elec       q    Type
REMARK                         _______ _______ _______ _____ _____    ______ ____
ROOT
ATOM      1  CA  GLN A   1      38.652 -25.373 -14.540  0.00  0.00    +0.036 C 
ENDROOT
BRANCH   1   2
ATOM      2  N   GLN A   1      37.923 -24.405 -15.358  0.00  0.00    +0.389 N 
ATOM      3  H1  GLN A   1      38.361 -23.488 -15.271  0.00  0.00    -0.088 HD
ATOM      4  H2  GLN A   1      36.955 -24.351 -15.040  0.00  0.00    -0.088 HD
ATOM      5  H3  GLN A   1      37.944 -24.700 -16.334  0.00  0.00    -0.088 HD
ENDBRANCH   1   2
BRANCH   1   7
ATOM      6  OXT GLN A   1      40.987 -24.721 -14.253  0.00  0.00    -0.253 OA
ATOM      7  C   GLN A   1      40.123 -25.293 -14.906  0.00  0.00    +0.293 C 
BRANCH   7   8
ATOM      8  O   GLN A   1      40.399 -25.958 -16.058  0.00  0.00    -0.482 OA
ATOM      9  H   GLN A   1      39.964 -26.766 -16.248  0.00  0.00    +0.295 HD
ENDBRANCH   7   8
ENDBRANCH   1   7
BRANCH   1  10
ATOM     10  CB  GLN A   1      38.385 -25.159 -13.040  0.00  0.00    -0.001 C 
BRANCH  10  11
ATOM     11  CG  GLN A   1      37.099 -25.784 -12.485  0.00  0.00    +0.083 C 
BRANCH  11  14
ATOM     12  OE1 GLN A   1      35.431 -25.119 -10.882  0.00  0.00    -0.275 OA
ATOM     13  NE2 GLN A   1      36.239 -23.524 -12.330  0.00  0.00    -0.329 N 
ATOM     14  CD  GLN A   1      36.177 -24.795 -11.805  0.00  0.00    +0.219 C 
ATOM     15 HE21 GLN A   1      35.676 -22.808 -11.954  0.00  0.00    +0.145 HD
ATOM     16 HE22 GLN A   1      36.847 -23.331 -13.079  0.00  0.00    +0.145 HD
ENDBRANCH  11  14
ENDBRANCH  10  11
ENDBRANCH   1  10
TORSDOF 6
ENDMDL
MODEL 3
REMARK VINA RESULT:      -5.7      2.486      4.649
REMARK  Name = 145815
REMARK  6 active torsions:
REMARK  status: ('A' for Active; 'I' for Inactive)
REMARK    1  A    between atoms: CA_1  and  N_2
REMARK    2  A    between atoms: CA_1  and  C_7
REMARK    3  A    between atoms: CA_1  and  CB_10
REMARK    4  A    between atoms: C_7  and  O_8
REMARK    5  A    between atoms: CB_10  and  CG_11
REMARK    6  A    between atoms: CG_11  and  CD_14
REMARK                            x       y       z     vdW  Elec       q    Type
REMARK                         _______ _______ _______ _____ _____    ______ ____
ROOT
ATOM      1  CA  GLN A   1      36.755 -23.529 -11.923  0.00  0.00    +0.036 C 
ENDROOT
BRANCH   1   2
ATOM      2  N   GLN A   1      35.950 -23.164 -13.088  0.00  0.00    +0.389 N 
ATOM      3  H1  GLN A   1      36.530 -22.652 -13.754  0.00  0.00    -0.088 HD
ATOM      4  H2  GLN A   1      35.171 -22.575 -12.792  0.00  0.00    -0.088 HD
ATOM      5  H3  GLN A   1      35.589 -24.009 -13.531  0.00  0.00    -0.088 HD
ENDBRANCH   1   2
BRANCH   1   7
ATOM      6  OXT GLN A   1      35.943 -24.253  -9.738  0.00  0.00    -0.253 OA
ATOM      7  C   GLN A   1      35.873 -24.303 -10.959  0.00  0.00    +0.293 C 
BRANCH   7   8
ATOM      8  O   GLN A   1      34.956 -25.067 -11.608  0.00  0.00    -0.482 OA
ATOM      9  H   GLN A   1      34.390 -25.634 -11.121  0.00  0.00    +0.295 HD
ENDBRANCH   7   8
ENDBRANCH   1   7
BRANCH   1  10
ATOM     10  CB  GLN A   1      38.026 -24.292 -12.332  0.00  0.00    -0.001 C 
BRANCH  10  11
ATOM     11  CG  GLN A   1      38.122 -24.709 -13.804  0.00  0.00    +0.083 C 
BRANCH  11  14
ATOM     12  OE1 GLN A   1      38.818 -26.839 -14.683  0.00  0.00    -0.275 OA
ATOM     13  NE2 GLN A   1      36.867 -26.754 -13.467  0.00  0.00    -0.329 N 
ATOM     14  CD  GLN A   1      37.993 -26.200 -14.032  0.00  0.00    +0.219 C 
ATOM     15 HE21 GLN A   1      36.693 -27.719 -13.560  0.00  0.00    +0.145 HD
ATOM     16 HE22 GLN A   1      36.237 -26.185 -12.969  0.00  0.00    +0.145 HD
ENDBRANCH  11  14
ENDBRANCH  10  11
ENDBRANCH   1  10
TORSDOF 6
ENDMDL
MODEL 4
REMARK VINA RESULT:      -5.5      2.845      4.908
REMARK  Name = 145815
REMARK  6 active torsions:
REMARK  status: ('A' for Active; 'I' for Inactive)
REMARK    1  A    between atoms: CA_1  and  N_2
REMARK    2  A    between atoms: CA_1  and  C_7
REMARK    3  A    between atoms: CA_1  and  CB_10
REMARK    4  A    between atoms: C_7  and  O_8
REMARK    5  A    between atoms: CB_10  and  CG_11
REMARK    6  A    between atoms: CG_11  and  CD_14
REMARK                            x       y       z     vdW  Elec       q    Type
REMARK                         _______ _______ _______ _____ _____    ______ ____
ROOT
ATOM      1  CA  GLN A   1      37.059 -24.811 -11.974  0.00  0.00    +0.036 C 
ENDROOT
BRANCH   1   2
ATOM      2  N   GLN A   1      37.228 -23.659 -12.859  0.00  0.00    +0.389 N 
ATOM      3  H1  GLN A   1      36.317 -23.243 -13.052  0.00  0.00    -0.088 HD
ATOM      4  H2  GLN A   1      37.657 -23.962 -13.733  0.00  0.00    -0.088 HD
ATOM      5  H3  GLN A   1      37.828 -22.969 -12.407  0.00  0.00    -0.088 HD
ENDBRANCH   1   2
BRANCH   1   7
ATOM      6  OXT GLN A   1      35.522 -24.402 -10.122  0.00  0.00    -0.253 OA
ATOM      7  C   GLN A   1      35.705 -24.696 -11.296  0.00  0.00    +0.293 C 
BRANCH   7   8
ATOM      8  O   GLN A   1      34.681 -24.940 -12.156  0.00  0.00    -0.482 OA
ATOM      9  H   GLN A   1      34.031 -24.282 -12.309  0.00  0.00    +0.295 HD
ENDBRANCH   7   8
ENDBRANCH   1   7
BRANCH   1  10
ATOM     10  CB  GLN A   1      37.251 -26.136 -12.730  0.00  0.00    -0.001 C 
BRANCH  10  11
ATOM     11  CG  GLN A   1      37.654 -26.024 -14.205  0.00  0.00    +0.083 C 
BRANCH  11  14
ATOM     12  OE1 GLN A   1      36.854 -27.266 -16.104  0.00  0.00    -0.275 OA
ATOM     13  NE2 GLN A   1      35.339 -26.002 -14.921  0.00  0.00    -0.329 N 
ATOM     14  CD  GLN A   1      36.595 -26.507 -15.172  0.00  0.00    +0.219 C 
ATOM     15 HE21 GLN A   1      34.582 -26.257 -15.496  0.00  0.00    +0.145 HD
ATOM     16 HE22 GLN A   1      35.199 -25.386 -14.165  0.00  0.00    +0.145 HD
ENDBRANCH  11  14
ENDBRANCH  10  11
ENDBRANCH   1  10
TORSDOF 6
ENDMDL
MODEL 5
REMARK VINA RESULT:      -5.5      9.221      9.986
REMARK  Name = 145815
REMARK  6 active torsions:
REMARK  status: ('A' for Active; 'I' for Inactive)
REMARK    1  A    between atoms: CA_1  and  N_2
REMARK    2  A    between atoms: CA_1  and  C_7
REMARK    3  A    between atoms: CA_1  and  CB_10
REMARK    4  A    between atoms: C_7  and  O_8
REMARK    5  A    between atoms: CB_10  and  CG_11
REMARK    6  A    between atoms: CG_11  and  CD_14
REMARK                            x       y       z     vdW  Elec       q    Type
REMARK                         _______ _______ _______ _____ _____    ______ ____
ROOT
ATOM      1  CA  GLN A   1      29.162 -22.853 -16.005  0.00  0.00    +0.036 C 
ENDROOT
BRANCH   1   2
ATOM      2  N   GLN A   1      30.395 -22.767 -16.787  0.00  0.00    +0.389 N 
ATOM      3  H1  GLN A   1      31.030 -23.514 -16.504  0.00  0.00    -0.088 HD
ATOM      4  H2  GLN A   1      30.839 -21.863 -16.622  0.00  0.00    -0.088 HD
ATOM      5  H3  GLN A   1      30.177 -22.863 -17.778  0.00  0.00    -0.088 HD
ENDBRANCH   1   2
BRANCH   1   7
ATOM      6  OXT GLN A   1      27.393 -21.630 -17.159  0.00  0.00    -0.253 OA
ATOM      7  C   GLN A   1      27.987 -22.680 -16.951  0.00  0.00    +0.293 C 
BRANCH   7   8
ATOM      8  O   GLN A   1      27.660 -23.840 -17.578  0.00  0.00    -0.482 OA
ATOM      9  H   GLN A   1      27.932 -24.661 -17.216  0.00  0.00    +0.295 HD
ENDBRANCH   7   8
ENDBRANCH   1   7
BRANCH   1  10
ATOM     10  CB  GLN A   1      29.101 -24.156 -15.190  0.00  0.00    -0.001 C 
BRANCH  10  11
ATOM     11  CG  GLN A   1      30.410 -24.947 -15.077  0.00  0.00    +0.083 C 
BRANCH  11  14
ATOM     12  OE1 GLN A   1      30.544 -24.315 -12.759  0.00  0.00    -0.275 OA
ATOM     13  NE2 GLN A   1      32.406 -25.247 -13.737  0.00  0.00    -0.329 N 
ATOM     14  CD  GLN A   1      31.103 -24.804 -13.739  0.00  0.00    +0.219 C 
ATOM     15 HE21 GLN A   1      32.942 -25.196 -12.913  0.00  0.00    +0.145 HD
ATOM     16 HE22 GLN A   1      32.801 -25.616 -14.560  0.00  0.00    +0.145 HD
ENDBRANCH  11  14
ENDBRANCH  10  11
ENDBRANCH   1  10
TORSDOF 6
ENDMDL
MODEL 6
REMARK VINA RESULT:      -5.4      2.634      4.473
REMARK  Name = 145815
REMARK  6 active torsions:
REMARK  status: ('A' for Active; 'I' for Inactive)
REMARK    1  A    between atoms: CA_1  and  N_2
REMARK    2  A    between atoms: CA_1  and  C_7
REMARK    3  A    between atoms: CA_1  and  CB_10
REMARK    4  A    between atoms: C_7  and  O_8
REMARK    5  A    between atoms: CB_10  and  CG_11
REMARK    6  A    between atoms: CG_11  and  CD_14
REMARK                            x       y       z     vdW  Elec       q    Type
REMARK                         _______ _______ _______ _____ _____    ______ ____
ROOT
ATOM      1  CA  GLN A   1      36.723 -23.307 -13.102  0.00  0.00    +0.036 C 
ENDROOT
BRANCH   1   2
ATOM      2  N   GLN A   1      35.285 -23.527 -12.951  0.00  0.00    +0.389 N 
ATOM      3  H1  GLN A   1      35.015 -24.368 -13.461  0.00  0.00    -0.088 HD
ATOM      4  H2  GLN A   1      34.778 -22.724 -13.323  0.00  0.00    -0.088 HD
ATOM      5  H3  GLN A   1      35.061 -23.643 -11.963  0.00  0.00    -0.088 HD
ENDBRANCH   1   2
BRANCH   1   7
ATOM      6  OXT GLN A   1      36.937 -24.263 -10.866  0.00  0.00    -0.253 OA
ATOM      7  C   GLN A   1      37.386 -23.556 -11.759  0.00  0.00    +0.293 C 
BRANCH   7   8
ATOM      8  O   GLN A   1      38.577 -22.910 -11.651  0.00  0.00    -0.482 OA
ATOM      9  H   GLN A   1      38.777 -22.424 -10.875  0.00  0.00    +0.295 HD
ENDBRANCH   7   8
ENDBRANCH   1   7
BRANCH   1  10
ATOM     10  CB  GLN A   1      37.308 -24.163 -14.238  0.00  0.00    -0.001 C 
BRANCH  10  11
ATOM     11  CG  GLN A   1      36.323 -25.081 -14.972  0.00  0.00    +0.083 C 
BRANCH  11  14
ATOM     12  OE1 GLN A   1      36.736 -27.197 -16.042  0.00  0.00    -0.275 OA
ATOM     13  NE2 GLN A   1      37.103 -27.038 -13.776  0.00  0.00    -0.329 N 
ATOM     14  CD  GLN A   1      36.742 -26.535 -15.005  0.00  0.00    +0.219 C 
ATOM     15 HE21 GLN A   1      37.391 -27.976 -13.693  0.00  0.00    +0.145 HD
ATOM     16 HE22 GLN A   1      37.073 -26.459 -12.980  0.00  0.00    +0.145 HD
ENDBRANCH  11  14
ENDBRANCH  10  11
ENDBRANCH   1  10
TORSDOF 6
ENDMDL
MODEL 7
REMARK VINA RESULT:      -5.2      2.267      2.503
REMARK  Name = 145815
REMARK  6 active torsions:
REMARK  status: ('A' for Active; 'I' for Inactive)
REMARK    1  A    between atoms: CA_1  and  N_2
REMARK    2  A    between atoms: CA_1  and  C_7
REMARK    3  A    between atoms: CA_1  and  CB_10
REMARK    4  A    between atoms: C_7  and  O_8
REMARK    5  A    between atoms: CB_10  and  CG_11
REMARK    6  A    between atoms: CG_11  and  CD_14
REMARK                            x       y       z     vdW  Elec       q    Type
REMARK                         _______ _______ _______ _____ _____    ______ ____
ROOT
ATOM      1  CA  GLN A   1      36.889 -25.909 -14.039  0.00  0.00    +0.036 C 
ENDROOT
BRANCH   1   2
ATOM      2  N   GLN A   1      35.975 -26.617 -14.934  0.00  0.00    +0.389 N 
ATOM      3  H1  GLN A   1      36.491 -27.324 -15.457  0.00  0.00    -0.088 HD
ATOM      4  H2  GLN A   1      35.553 -25.953 -15.584  0.00  0.00    -0.088 HD
ATOM      5  H3  GLN A   1      35.243 -27.068 -14.385  0.00  0.00    -0.088 HD
ENDBRANCH   1   2
BRANCH   1   7
ATOM      6  OXT GLN A   1      39.053 -26.857 -14.655  0.00  0.00    -0.253 OA
ATOM      7  C   GLN A   1      38.271 -25.915 -14.668  0.00  0.00    +0.293 C 
BRANCH   7   8
ATOM      8  O   GLN A   1      38.556 -24.737 -15.284  0.00  0.00    -0.482 OA
ATOM      9  H   GLN A   1      38.984 -24.052 -14.810  0.00  0.00    +0.295 HD
ENDBRANCH   7   8
ENDBRANCH   1   7
BRANCH   1  10
ATOM     10  CB  GLN A   1      36.376 -24.498 -13.708  0.00  0.00    -0.001 C 
BRANCH  10  11
ATOM     11  CG  GLN A   1      35.282 -24.408 -12.638  0.00  0.00    +0.083 C 
BRANCH  11  14
ATOM     12  OE1 GLN A   1      35.291 -25.095 -10.331  0.00  0.00    -0.275 OA
ATOM     13  NE2 GLN A   1      36.883 -23.582 -11.017  0.00  0.00    -0.329 N 
ATOM     14  CD  GLN A   1      35.806 -24.415 -11.218  0.00  0.00    +0.219 C 
ATOM     15 HE21 GLN A   1      37.296 -23.517 -10.126  0.00  0.00    +0.145 HD
ATOM     16 HE22 GLN A   1      37.241 -23.052 -11.766  0.00  0.00    +0.145 HD
ENDBRANCH  11  14
ENDBRANCH  10  11
ENDBRANCH   1  10
TORSDOF 6
ENDMDL
MODEL 8
REMARK VINA RESULT:      -5.2      9.050      9.835
REMARK  Name = 145815
REMARK  6 active torsions:
REMARK  status: ('A' for Active; 'I' for Inactive)
REMARK    1  A    between atoms: CA_1  and  N_2
REMARK    2  A    between atoms: CA_1  and  C_7
REMARK    3  A    between atoms: CA_1  and  CB_10
REMARK    4  A    between atoms: C_7  and  O_8
REMARK    5  A    between atoms: CB_10  and  CG_11
REMARK    6  A    between atoms: CG_11  and  CD_14
REMARK                            x       y       z     vdW  Elec       q    Type
REMARK                         _______ _______ _______ _____ _____    ______ ____
ROOT
ATOM      1  CA  GLN A   1      35.046 -21.181 -20.049  0.00  0.00    +0.036 C 
ENDROOT
BRANCH   1   2
ATOM      2  N   GLN A   1      36.213 -20.606 -19.382  0.00  0.00    +0.389 N 
ATOM      3  H1  GLN A   1      36.445 -21.166 -18.561  0.00  0.00    -0.088 HD
ATOM      4  H2  GLN A   1      36.003 -19.650 -19.094  0.00  0.00    -0.088 HD
ATOM      5  H3  GLN A   1      37.005 -20.602 -20.024  0.00  0.00    -0.088 HD
ENDBRANCH   1   2
BRANCH   1   7
ATOM      6  OXT GLN A   1      34.909 -22.695 -18.139  0.00  0.00    -0.253 OA
ATOM      7  C   GLN A   1      34.365 -22.134 -19.082  0.00  0.00    +0.293 C 
BRANCH   7   8
ATOM      8  O   GLN A   1      33.045 -22.291 -19.364  0.00  0.00    -0.482 OA
ATOM      9  H   GLN A   1      32.780 -22.854 -20.064  0.00  0.00    +0.295 HD
ENDBRANCH   7   8
ENDBRANCH   1   7
BRANCH   1  10
ATOM     10  CB  GLN A   1      34.108 -20.088 -20.588  0.00  0.00    -0.001 C 
BRANCH  10  11
ATOM     11  CG  GLN A   1      34.525 -19.428 -21.908  0.00  0.00    +0.083 C 
BRANCH  11  14
ATOM     12  OE1 GLN A   1      35.591 -17.675 -20.650  0.00  0.00    -0.275 OA
ATOM     13  NE2 GLN A   1      36.017 -17.802 -22.907  0.00  0.00    -0.329 N 
ATOM     14  CD  GLN A   1      35.427 -18.225 -21.738  0.00  0.00    +0.219 C 
ATOM     15 HE21 GLN A   1      36.623 -17.026 -22.900  0.00  0.00    +0.145 HD
ATOM     16 HE22 GLN A   1      35.835 -18.278 -23.750  0.00  0.00    +0.145 HD
ENDBRANCH  11  14
ENDBRANCH  10  11
ENDBRANCH   1  10
TORSDOF 6
ENDMDL
MODEL 9
REMARK VINA RESULT:      -5.2     13.256     14.018
REMARK  Name = 145815
REMARK  6 active torsions:
REMARK  status: ('A' for Active; 'I' for Inactive)
REMARK    1  A    between atoms: CA_1  and  N_2
REMARK    2  A    between atoms: CA_1  and  C_7
REMARK    3  A    between atoms: CA_1  and  CB_10
REMARK    4  A    between atoms: C_7  and  O_8
REMARK    5  A    between atoms: CB_10  and  CG_11
REMARK    6  A    between atoms: CG_11  and  CD_14
REMARK                            x       y       z     vdW  Elec       q    Type
REMARK                         _______ _______ _______ _____ _____    ______ ____
ROOT
ATOM      1  CA  GLN A   1      34.856 -17.098 -22.620  0.00  0.00    +0.036 C 
ENDROOT
BRANCH   1   2
ATOM      2  N   GLN A   1      35.799 -17.965 -23.327  0.00  0.00    +0.389 N 
ATOM      3  H1  GLN A   1      36.637 -17.433 -23.564  0.00  0.00    -0.088 HD
ATOM      4  H2  GLN A   1      35.365 -18.315 -24.181  0.00  0.00    -0.088 HD
ATOM      5  H3  GLN A   1      36.053 -18.750 -22.728  0.00  0.00    -0.088 HD
ENDBRANCH   1   2
BRANCH   1   7
ATOM      6  OXT GLN A   1      35.014 -16.218 -20.349  0.00  0.00    -0.253 OA
ATOM      7  C   GLN A   1      35.193 -17.135 -21.140  0.00  0.00    +0.293 C 
BRANCH   7   8
ATOM      8  O   GLN A   1      35.714 -18.333 -20.765  0.00  0.00    -0.482 OA
ATOM      9  H   GLN A   1      36.393 -18.367 -20.120  0.00  0.00    +0.295 HD
ENDBRANCH   7   8
ENDBRANCH   1   7
BRANCH   1  10
ATOM     10  CB  GLN A   1      34.847 -15.677 -23.208  0.00  0.00    -0.001 C 
BRANCH  10  11
ATOM     11  CG  GLN A   1      33.607 -15.289 -24.023  0.00  0.00    +0.083 C 
BRANCH  11  14
ATOM     12  OE1 GLN A   1      34.522 -16.480 -25.903  0.00  0.00    -0.275 OA
ATOM     13  NE2 GLN A   1      32.721 -15.097 -26.270  0.00  0.00    -0.329 N 
ATOM     14  CD  GLN A   1      33.674 -15.697 -25.479  0.00  0.00    +0.219 C 
ATOM     15 HE21 GLN A   1      32.682 -15.299 -27.233  0.00  0.00    +0.145 HD
ATOM     16 HE22 GLN A   1      32.077 -14.467 -25.871  0.00  0.00    +0.145 HD
ENDBRANCH  11  14
ENDBRANCH  10  11
ENDBRANCH   1  10
TORSDOF 6
ENDMDL
