MODEL 1
REMARK VINA RESULT:     -10.5      0.000      0.000
REMARK  Name = 2477
REMARK  5 active torsions:
REMARK  status: ('A' for Active; 'I' for Inactive)
REMARK    1  A    between atoms: C_1  and  C_2
REMARK    2  A    between atoms: C_1  and  C_16
REMARK    3  A    between atoms: C_2  and  C_3
REMARK    4  A    between atoms: C_3  and  N_6
REMARK    5  A    between atoms: C_16  and  N_17
REMARK                            x       y       z     vdW  Elec       q    Type
REMARK                         _______ _______ _______ _____ _____    ______ ____
ROOT
ATOM      1  C   UNL     1      34.339 -20.602 -20.860  0.00  0.00    -0.021 C 
ENDROOT
BRANCH   1   2
ATOM      2  C   UNL     1      33.827 -21.136 -19.517  0.00  0.00    +0.020 C 
BRANCH   2   3
ATOM      3  C   UNL     1      34.436 -22.486 -19.153  0.00  0.00    +0.101 C 
BRANCH   3   6
ATOM      4  O   UNL     1      36.885 -21.700 -18.119  0.00  0.00    -0.274 OA
ATOM      5  O   UNL     1      32.587 -23.292 -17.235  0.00  0.00    -0.274 OA
ATOM      6  N   UNL     1      34.759 -22.585 -17.734  0.00  0.00    -0.230 N 
ATOM      7  C   UNL     1      35.571 -23.395 -15.172  0.00  0.00    +0.017 C 
ATOM      8  C   UNL     1      35.986 -24.813 -15.601  0.00  0.00    +0.001 C 
ATOM      9  C   UNL     1      35.895 -23.434 -13.668  0.00  0.00    +0.001 C 
ATOM     10  C   UNL     1      37.249 -25.119 -14.798  0.00  0.00    +0.000 C 
ATOM     11  C   UNL     1      37.196 -24.223 -13.562  0.00  0.00    +0.000 C 
ATOM     12  C   UNL     1      36.374 -22.300 -15.877  0.00  0.00    +0.086 C 
ATOM     13  C   UNL     1      34.094 -23.106 -15.408  0.00  0.00    +0.086 C 
ATOM     14  C   UNL     1      36.050 -22.182 -17.349  0.00  0.00    +0.231 C 
ATOM     15  C   UNL     1      33.737 -23.029 -16.874  0.00  0.00    +0.231 C 
ENDBRANCH   3   6
ENDBRANCH   2   3
ENDBRANCH   1   2
BRANCH   1  16
ATOM     16  C   UNL     1      35.588 -19.741 -20.670  0.00  0.00    -0.077 C 
BRANCH  16  17
ATOM     17  N   UNL     1      35.584 -18.626 -21.616  0.00  0.00    +0.389 N 
ATOM     18  N   UNL     1      34.413 -16.711 -23.384  0.00  0.00    -0.257 N 
ATOM     19  N   UNL     1      33.930 -14.451 -23.869  0.00  0.00    -0.181 NA
ATOM     20  N   UNL     1      33.576 -16.166 -25.523  0.00  0.00    -0.203 NA
ATOM     21  C   UNL     1      34.804 -17.502 -21.084  0.00  0.00    -0.055 C 
ATOM     22  C   UNL     1      35.030 -19.050 -22.909  0.00  0.00    -0.055 C 
ATOM     23  C   UNL     1      34.838 -16.306 -22.039  0.00  0.00    +0.079 C 
ATOM     24  C   UNL     1      35.072 -17.906 -23.925  0.00  0.00    +0.079 C 
ATOM     25  C   UNL     1      33.958 -15.744 -24.288  0.00  0.00    +0.090 C 
ATOM     26  C   UNL     1      33.486 -13.546 -24.765  0.00  0.00    +0.108 C 
ATOM     27  C   UNL     1      33.143 -15.209 -26.370  0.00  0.00    +0.165 C 
ATOM     28  C   UNL     1      33.075 -13.870 -26.042  0.00  0.00    +0.022 C 
ATOM     29  H   UNL     1      36.547 -18.322 -21.754  0.00  0.00    -0.080 HD
ENDBRANCH  16  17
ENDBRANCH   1  16
TORSDOF 5
ENDMDL
MODEL 2
REMARK VINA RESULT:     -10.2      4.947      8.502
REMARK  Name = 2477
REMARK  5 active torsions:
REMARK  status: ('A' for Active; 'I' for Inactive)
REMARK    1  A    between atoms: C_1  and  C_2
REMARK    2  A    between atoms: C_1  and  C_16
REMARK    3  A    between atoms: C_2  and  C_3
REMARK    4  A    between atoms: C_3  and  N_6
REMARK    5  A    between atoms: C_16  and  N_17
REMARK                            x       y       z     vdW  Elec       q    Type
REMARK                         _______ _______ _______ _____ _____    ______ ____
ROOT
ATOM      1  C   UNL     1      33.274 -13.195 -24.258  0.00  0.00    -0.021 C 
ENDROOT
BRANCH   1   2
ATOM      2  C   UNL     1      33.399 -14.714 -24.420  0.00  0.00    +0.020 C 
BRANCH   2   3
ATOM      3  C   UNL     1      34.748 -15.245 -23.945  0.00  0.00    +0.101 C 
BRANCH   3   6
ATOM      4  O   UNL     1      34.279 -15.535 -21.228  0.00  0.00    -0.274 OA
ATOM      5  O   UNL     1      34.789 -17.640 -25.363  0.00  0.00    -0.274 OA
ATOM      6  N   UNL     1      34.636 -16.549 -23.301  0.00  0.00    -0.230 N 
ATOM      7  C   UNL     1      35.085 -19.002 -22.012  0.00  0.00    +0.017 C 
ATOM      8  C   UNL     1      36.612 -18.837 -21.931  0.00  0.00    +0.001 C 
ATOM      9  C   UNL     1      34.898 -20.373 -21.338  0.00  0.00    +0.001 C 
ATOM     10  C   UNL     1      37.003 -19.407 -20.568  0.00  0.00    +0.000 C 
ATOM     11  C   UNL     1      35.895 -20.385 -20.182  0.00  0.00    +0.000 C 
ATOM     12  C   UNL     1      34.326 -17.911 -21.254  0.00  0.00    +0.086 C 
ATOM     13  C   UNL     1      34.560 -19.018 -23.442  0.00  0.00    +0.086 C 
ATOM     14  C   UNL     1      34.430 -16.552 -21.909  0.00  0.00    +0.231 C 
ATOM     15  C   UNL     1      34.695 -17.682 -24.134  0.00  0.00    +0.231 C 
ENDBRANCH   3   6
ENDBRANCH   2   3
ENDBRANCH   1   2
BRANCH   1  16
ATOM     16  C   UNL     1      32.681 -12.834 -22.896  0.00  0.00    -0.077 C 
BRANCH  16  17
ATOM     17  N   UNL     1      32.768 -11.391 -22.672  0.00  0.00    +0.389 N 
ATOM     18  N   UNL     1      32.089  -8.645 -23.072  0.00  0.00    -0.257 N 
ATOM     19  N   UNL     1      31.153  -6.657 -22.208  0.00  0.00    -0.181 NA
ATOM     20  N   UNL     1      32.353  -6.644 -24.297  0.00  0.00    -0.203 NA
ATOM     21  C   UNL     1      31.483 -10.866 -22.195  0.00  0.00    -0.055 C 
ATOM     22  C   UNL     1      33.161 -10.701 -23.907  0.00  0.00    -0.055 C 
ATOM     23  C   UNL     1      31.575  -9.366 -21.902  0.00  0.00    +0.079 C 
ATOM     24  C   UNL     1      33.310  -9.196 -23.672  0.00  0.00    +0.079 C 
ATOM     25  C   UNL     1      31.857  -7.271 -23.196  0.00  0.00    +0.090 C 
ATOM     26  C   UNL     1      30.949  -5.332 -22.360  0.00  0.00    +0.108 C 
ATOM     27  C   UNL     1      32.113  -5.319 -24.385  0.00  0.00    +0.165 C 
ATOM     28  C   UNL     1      31.409  -4.604 -23.438  0.00  0.00    +0.022 C 
ATOM     29  H   UNL     1      33.477 -11.222 -21.959  0.00  0.00    -0.080 HD
ENDBRANCH  16  17
ENDBRANCH   1  16
TORSDOF 5
ENDMDL
MODEL 3
REMARK VINA RESULT:     -10.1      6.664     13.367
REMARK  Name = 2477
REMARK  5 active torsions:
REMARK  status: ('A' for Active; 'I' for Inactive)
REMARK    1  A    between atoms: C_1  and  C_2
REMARK    2  A    between atoms: C_1  and  C_16
REMARK    3  A    between atoms: C_2  and  C_3
REMARK    4  A    between atoms: C_3  and  N_6
REMARK    5  A    between atoms: C_16  and  N_17
REMARK                            x       y       z     vdW  Elec       q    Type
REMARK                         _______ _______ _______ _____ _____    ______ ____
ROOT
ATOM      1  C   UNL     1      31.486 -11.452 -19.827  0.00  0.00    -0.021 C 
ENDROOT
BRANCH   1   2
ATOM      2  C   UNL     1      31.545  -9.920 -19.801  0.00  0.00    +0.020 C 
BRANCH   2   3
ATOM      3  C   UNL     1      32.551  -9.355 -20.798  0.00  0.00    +0.101 C 
BRANCH   3   6
ATOM      4  O   UNL     1      31.127  -9.534 -23.171  0.00  0.00    -0.274 OA
ATOM      5  O   UNL     1      32.749  -6.776 -19.773  0.00  0.00    -0.274 OA
ATOM      6  N   UNL     1      32.040  -8.182 -21.499  0.00  0.00    -0.230 N 
ATOM      7  C   UNL     1      31.663  -5.929 -23.130  0.00  0.00    +0.017 C 
ATOM      8  C   UNL     1      33.073  -5.967 -23.744  0.00  0.00    +0.001 C 
ATOM      9  C   UNL     1      31.063  -4.702 -23.839  0.00  0.00    +0.001 C 
ATOM     10  C   UNL     1      32.880  -5.582 -25.210  0.00  0.00    +0.000 C 
ATOM     11  C   UNL     1      31.582  -4.779 -25.272  0.00  0.00    +0.000 C 
ATOM     12  C   UNL     1      30.848  -7.188 -23.431  0.00  0.00    +0.086 C 
ATOM     13  C   UNL     1      31.674  -5.738 -21.619  0.00  0.00    +0.086 C 
ATOM     14  C   UNL     1      31.363  -8.414 -22.711  0.00  0.00    +0.231 C 
ATOM     15  C   UNL     1      32.227  -6.934 -20.879  0.00  0.00    +0.231 C 
ENDBRANCH   3   6
ENDBRANCH   2   3
ENDBRANCH   1   2
BRANCH   1  16
ATOM     16  C   UNL     1      31.417 -11.976 -21.261  0.00  0.00    -0.077 C 
BRANCH  16  17
ATOM     17  N   UNL     1      32.471 -12.963 -21.492  0.00  0.00    +0.389 N 
ATOM     18  N   UNL     1      33.543 -15.559 -22.013  0.00  0.00    -0.257 N 
ATOM     19  N   UNL     1      34.700 -17.001 -23.482  0.00  0.00    -0.181 NA
ATOM     20  N   UNL     1      34.246 -17.666 -21.211  0.00  0.00    -0.203 NA
ATOM     21  C   UNL     1      32.322 -13.577 -22.817  0.00  0.00    -0.055 C 
ATOM     22  C   UNL     1      32.439 -14.002 -20.454  0.00  0.00    -0.055 C 
ATOM     23  C   UNL     1      33.452 -14.571 -23.094  0.00  0.00    +0.079 C 
ATOM     24  C   UNL     1      33.574 -15.009 -20.652  0.00  0.00    +0.079 C 
ATOM     25  C   UNL     1      34.184 -16.781 -22.243  0.00  0.00    +0.090 C 
ATOM     26  C   UNL     1      35.311 -18.189 -23.669  0.00  0.00    +0.108 C 
ATOM     27  C   UNL     1      34.870 -18.834 -21.467  0.00  0.00    +0.165 C 
ATOM     28  C   UNL     1      35.426 -19.154 -22.689  0.00  0.00    +0.022 C 
ATOM     29  H   UNL     1      33.370 -12.483 -21.451  0.00  0.00    -0.080 HD
ENDBRANCH  16  17
ENDBRANCH   1  16
TORSDOF 5
ENDMDL
MODEL 4
REMARK VINA RESULT:     -10.0      2.548     10.535
REMARK  Name = 2477
REMARK  5 active torsions:
REMARK  status: ('A' for Active; 'I' for Inactive)
REMARK    1  A    between atoms: C_1  and  C_2
REMARK    2  A    between atoms: C_1  and  C_16
REMARK    3  A    between atoms: C_2  and  C_3
REMARK    4  A    between atoms: C_3  and  N_6
REMARK    5  A    between atoms: C_16  and  N_17
REMARK                            x       y       z     vdW  Elec       q    Type
REMARK                         _______ _______ _______ _____ _____    ______ ____
ROOT
ATOM      1  C   UNL     1      33.414 -20.288 -20.596  0.00  0.00    -0.021 C 
ENDROOT
BRANCH   1   2
ATOM      2  C   UNL     1      33.416 -18.801 -20.969  0.00  0.00    +0.020 C 
BRANCH   2   3
ATOM      3  C   UNL     1      34.787 -18.312 -21.422  0.00  0.00    +0.101 C 
BRANCH   3   6
ATOM      4  O   UNL     1      35.075 -16.014 -19.897  0.00  0.00    -0.274 OA
ATOM      5  O   UNL     1      34.591 -17.853 -24.160  0.00  0.00    -0.274 OA
ATOM      6  N   UNL     1      34.736 -16.973 -22.000  0.00  0.00    -0.230 N 
ATOM      7  C   UNL     1      33.981 -14.465 -23.010  0.00  0.00    +0.017 C 
ATOM      8  C   UNL     1      32.475 -14.670 -22.773  0.00  0.00    +0.001 C 
ATOM      9  C   UNL     1      33.996 -13.053 -23.621  0.00  0.00    +0.001 C 
ATOM     10  C   UNL     1      31.956 -13.310 -22.308  0.00  0.00    +0.000 C 
ATOM     11  C   UNL     1      32.941 -12.273 -22.842  0.00  0.00    +0.000 C 
ATOM     12  C   UNL     1      34.799 -14.512 -21.718  0.00  0.00    +0.086 C 
ATOM     13  C   UNL     1      34.579 -15.485 -23.970  0.00  0.00    +0.086 C 
ATOM     14  C   UNL     1      34.863 -15.894 -21.106  0.00  0.00    +0.231 C 
ATOM     15  C   UNL     1      34.613 -16.883 -23.398  0.00  0.00    +0.231 C 
ENDBRANCH   3   6
ENDBRANCH   2   3
ENDBRANCH   1   2
BRANCH   1  16
ATOM     16  C   UNL     1      34.840 -20.812 -20.419  0.00  0.00    -0.077 C 
BRANCH  16  17
ATOM     17  N   UNL     1      35.078 -21.170 -19.021  0.00  0.00    +0.389 N 
ATOM     18  N   UNL     1      35.997 -22.810 -16.870  0.00  0.00    -0.257 N 
ATOM     19  N   UNL     1      37.495 -23.118 -15.072  0.00  0.00    -0.181 NA
ATOM     20  N   UNL     1      35.625 -24.605 -15.381  0.00  0.00    -0.203 NA
ATOM     21  C   UNL     1      36.515 -21.327 -18.767  0.00  0.00    -0.055 C 
ATOM     22  C   UNL     1      34.373 -22.413 -18.681  0.00  0.00    -0.055 C 
ATOM     23  C   UNL     1      36.783 -21.647 -17.294  0.00  0.00    +0.079 C 
ATOM     24  C   UNL     1      34.568 -22.768 -17.205  0.00  0.00    +0.079 C 
ATOM     25  C   UNL     1      36.386 -23.534 -15.738  0.00  0.00    +0.090 C 
ATOM     26  C   UNL     1      37.841 -23.838 -13.985  0.00  0.00    +0.108 C 
ATOM     27  C   UNL     1      36.028 -25.280 -14.285  0.00  0.00    +0.165 C 
ATOM     28  C   UNL     1      37.139 -24.940 -13.540  0.00  0.00    +0.022 C 
ATOM     29  H   UNL     1      34.721 -20.416 -18.434  0.00  0.00    -0.080 HD
ENDBRANCH  16  17
ENDBRANCH   1  16
TORSDOF 5
ENDMDL
MODEL 5
REMARK VINA RESULT:     -10.0      4.602      8.119
REMARK  Name = 2477
REMARK  5 active torsions:
REMARK  status: ('A' for Active; 'I' for Inactive)
REMARK    1  A    between atoms: C_1  and  C_2
REMARK    2  A    between atoms: C_1  and  C_16
REMARK    3  A    between atoms: C_2  and  C_3
REMARK    4  A    between atoms: C_3  and  N_6
REMARK    5  A    between atoms: C_16  and  N_17
REMARK                            x       y       z     vdW  Elec       q    Type
REMARK                         _______ _______ _______ _____ _____    ______ ____
ROOT
ATOM      1  C   UNL     1      33.274 -13.920 -24.171  0.00  0.00    -0.021 C 
ENDROOT
BRANCH   1   2
ATOM      2  C   UNL     1      33.219 -15.439 -24.374  0.00  0.00    +0.020 C 
BRANCH   2   3
ATOM      3  C   UNL     1      34.604 -16.065 -24.490  0.00  0.00    +0.101 C 
BRANCH   3   6
ATOM      4  O   UNL     1      34.506 -18.787 -25.010  0.00  0.00    -0.274 OA
ATOM      5  O   UNL     1      35.394 -15.421 -21.901  0.00  0.00    -0.274 OA
ATOM      6  N   UNL     1      34.847 -17.072 -23.462  0.00  0.00    -0.230 N 
ATOM      7  C   UNL     1      34.659 -18.935 -21.371  0.00  0.00    +0.017 C 
ATOM      8  C   UNL     1      33.153 -18.726 -21.136  0.00  0.00    +0.001 C 
ATOM      9  C   UNL     1      34.980 -20.000 -20.308  0.00  0.00    +0.001 C 
ATOM     10  C   UNL     1      32.600 -20.117 -20.833  0.00  0.00    +0.000 C 
ATOM     11  C   UNL     1      33.777 -20.939 -20.313  0.00  0.00    +0.000 C 
ATOM     12  C   UNL     1      34.978 -19.449 -22.776  0.00  0.00    +0.086 C 
ATOM     13  C   UNL     1      35.480 -17.671 -21.147  0.00  0.00    +0.086 C 
ATOM     14  C   UNL     1      34.733 -18.418 -23.855  0.00  0.00    +0.231 C 
ATOM     15  C   UNL     1      35.219 -16.607 -22.187  0.00  0.00    +0.231 C 
ENDBRANCH   3   6
ENDBRANCH   2   3
ENDBRANCH   1   2
BRANCH   1  16
ATOM     16  C   UNL     1      32.528 -13.508 -22.902  0.00  0.00    -0.077 C 
BRANCH  16  17
ATOM     17  N   UNL     1      32.718 -12.081 -22.643  0.00  0.00    +0.389 N 
ATOM     18  N   UNL     1      32.192  -9.288 -22.925  0.00  0.00    -0.257 N 
ATOM     19  N   UNL     1      31.435  -7.274 -21.953  0.00  0.00    -0.181 NA
ATOM     20  N   UNL     1      32.512  -7.269 -24.107  0.00  0.00    -0.203 NA
ATOM     21  C   UNL     1      31.498 -11.493 -22.076  0.00  0.00    -0.055 C 
ATOM     22  C   UNL     1      33.083 -11.378 -23.879  0.00  0.00    -0.055 C 
ATOM     23  C   UNL     1      31.701 -10.012 -21.748  0.00  0.00    +0.079 C 
ATOM     24  C   UNL     1      33.340  -9.894 -23.611  0.00  0.00    +0.079 C 
ATOM     25  C   UNL     1      32.041  -7.898 -22.997  0.00  0.00    +0.090 C 
ATOM     26  C   UNL     1      31.306  -5.935 -22.055  0.00  0.00    +0.108 C 
ATOM     27  C   UNL     1      32.351  -5.930 -24.144  0.00  0.00    +0.165 C 
ATOM     28  C   UNL     1      31.749  -5.203 -23.137  0.00  0.00    +0.022 C 
ATOM     29  H   UNL     1      33.476 -11.979 -21.969  0.00  0.00    -0.080 HD
ENDBRANCH  16  17
ENDBRANCH   1  16
TORSDOF 5
ENDMDL
MODEL 6
REMARK VINA RESULT:      -9.9      4.900     12.047
REMARK  Name = 2477
REMARK  5 active torsions:
REMARK  status: ('A' for Active; 'I' for Inactive)
REMARK    1  A    between atoms: C_1  and  C_2
REMARK    2  A    between atoms: C_1  and  C_16
REMARK    3  A    between atoms: C_2  and  C_3
REMARK    4  A    between atoms: C_3  and  N_6
REMARK    5  A    between atoms: C_16  and  N_17
REMARK                            x       y       z     vdW  Elec       q    Type
REMARK                         _______ _______ _______ _____ _____    ______ ____
ROOT
ATOM      1  C   UNL     1      33.658 -14.901 -23.717  0.00  0.00    -0.021 C 
ENDROOT
BRANCH   1   2
ATOM      2  C   UNL     1      33.841 -13.453 -23.248  0.00  0.00    +0.020 C 
BRANCH   2   3
ATOM      3  C   UNL     1      32.836 -12.500 -23.884  0.00  0.00    +0.101 C 
BRANCH   3   6
ATOM      4  O   UNL     1      31.389 -11.526 -21.729  0.00  0.00    -0.274 OA
ATOM      5  O   UNL     1      34.716 -10.717 -24.900  0.00  0.00    -0.274 OA
ATOM      6  N   UNL     1      32.979 -11.133 -23.394  0.00  0.00    -0.230 N 
ATOM      7  C   UNL     1      32.787  -8.374 -22.910  0.00  0.00    +0.017 C 
ATOM      8  C   UNL     1      31.723  -8.119 -23.992  0.00  0.00    +0.001 C 
ATOM      9  C   UNL     1      32.981  -6.957 -22.345  0.00  0.00    +0.001 C 
ATOM     10  C   UNL     1      30.778  -7.084 -23.385  0.00  0.00    +0.000 C 
ATOM     11  C   UNL     1      31.583  -6.346 -22.318  0.00  0.00    +0.000 C 
ATOM     12  C   UNL     1      32.311  -9.338 -21.821  0.00  0.00    +0.086 C 
ATOM     13  C   UNL     1      34.091  -8.925 -23.473  0.00  0.00    +0.086 C 
ATOM     14  C   UNL     1      32.159 -10.760 -22.313  0.00  0.00    +0.231 C 
ATOM     15  C   UNL     1      33.954 -10.329 -24.012  0.00  0.00    +0.231 C 
ENDBRANCH   3   6
ENDBRANCH   2   3
ENDBRANCH   1   2
BRANCH   1  16
ATOM     16  C   UNL     1      34.989 -15.655 -23.708  0.00  0.00    -0.077 C 
BRANCH  16  17
ATOM     17  N   UNL     1      35.049 -16.564 -22.565  0.00  0.00    +0.389 N 
ATOM     18  N   UNL     1      34.703 -19.038 -21.180  0.00  0.00    -0.257 N 
ATOM     19  N   UNL     1      35.684 -20.896 -20.102  0.00  0.00    -0.181 NA
ATOM     20  N   UNL     1      33.309 -20.515 -19.976  0.00  0.00    -0.203 NA
ATOM     21  C   UNL     1      35.916 -17.711 -22.863  0.00  0.00    -0.055 C 
ATOM     22  C   UNL     1      33.704 -17.034 -22.209  0.00  0.00    -0.055 C 
ATOM     23  C   UNL     1      36.033 -18.642 -21.654  0.00  0.00    +0.079 C 
ATOM     24  C   UNL     1      33.748 -17.941 -20.977  0.00  0.00    +0.079 C 
ATOM     25  C   UNL     1      34.561 -20.187 -20.394  0.00  0.00    +0.090 C 
ATOM     26  C   UNL     1      35.511 -21.997 -19.343  0.00  0.00    +0.108 C 
ATOM     27  C   UNL     1      33.207 -21.628 -19.220  0.00  0.00    +0.165 C 
ATOM     28  C   UNL     1      34.284 -22.416 -18.869  0.00  0.00    +0.022 C 
ATOM     29  H   UNL     1      35.441 -16.053 -21.773  0.00  0.00    -0.080 HD
ENDBRANCH  16  17
ENDBRANCH   1  16
TORSDOF 5
ENDMDL
MODEL 7
REMARK VINA RESULT:      -9.9      2.160      3.516
REMARK  Name = 2477
REMARK  5 active torsions:
REMARK  status: ('A' for Active; 'I' for Inactive)
REMARK    1  A    between atoms: C_1  and  C_2
REMARK    2  A    between atoms: C_1  and  C_16
REMARK    3  A    between atoms: C_2  and  C_3
REMARK    4  A    between atoms: C_3  and  N_6
REMARK    5  A    between atoms: C_16  and  N_17
REMARK                            x       y       z     vdW  Elec       q    Type
REMARK                         _______ _______ _______ _____ _____    ______ ____
ROOT
ATOM      1  C   UNL     1      33.179 -22.754 -17.910  0.00  0.00    -0.021 C 
ENDROOT
BRANCH   1   2
ATOM      2  C   UNL     1      33.414 -23.692 -16.721  0.00  0.00    +0.020 C 
BRANCH   2   3
ATOM      3  C   UNL     1      33.476 -22.949 -15.391  0.00  0.00    +0.101 C 
BRANCH   3   6
ATOM      4  O   UNL     1      36.077 -22.142 -15.916  0.00  0.00    -0.274 OA
ATOM      5  O   UNL     1      33.190 -24.456 -13.069  0.00  0.00    -0.274 OA
ATOM      6  N   UNL     1      34.610 -23.367 -14.573  0.00  0.00    -0.230 N 
ATOM      7  C   UNL     1      36.795 -24.696 -13.415  0.00  0.00    +0.017 C 
ATOM      8  C   UNL     1      36.761 -25.888 -14.386  0.00  0.00    +0.001 C 
ATOM      9  C   UNL     1      37.985 -25.078 -12.518  0.00  0.00    +0.001 C 
ATOM     10  C   UNL     1      38.226 -26.223 -14.659  0.00  0.00    +0.000 C 
ATOM     11  C   UNL     1      39.014 -25.691 -13.464  0.00  0.00    +0.000 C 
ATOM     12  C   UNL     1      37.046 -23.361 -14.120  0.00  0.00    +0.086 C 
ATOM     13  C   UNL     1      35.517 -24.552 -12.600  0.00  0.00    +0.086 C 
ATOM     14  C   UNL     1      35.880 -22.911 -14.971  0.00  0.00    +0.231 C 
ATOM     15  C   UNL     1      34.326 -24.147 -13.437  0.00  0.00    +0.231 C 
ENDBRANCH   3   6
ENDBRANCH   2   3
ENDBRANCH   1   2
BRANCH   1  16
ATOM     16  C   UNL     1      34.328 -22.839 -18.915  0.00  0.00    -0.077 C 
BRANCH  16  17
ATOM     17  N   UNL     1      34.214 -21.771 -19.907  0.00  0.00    +0.389 N 
ATOM     18  N   UNL     1      34.268 -19.077 -20.855  0.00  0.00    -0.257 N 
ATOM     19  N   UNL     1      35.293 -17.442 -22.217  0.00  0.00    -0.181 NA
ATOM     20  N   UNL     1      33.173 -17.007 -21.157  0.00  0.00    -0.203 NA
ATOM     21  C   UNL     1      35.489 -21.056 -20.042  0.00  0.00    -0.055 C 
ATOM     22  C   UNL     1      33.152 -20.830 -19.531  0.00  0.00    -0.055 C 
ATOM     23  C   UNL     1      35.401 -19.971 -21.118  0.00  0.00    +0.079 C 
ATOM     24  C   UNL     1      32.985 -19.739 -20.590  0.00  0.00    +0.079 C 
ATOM     25  C   UNL     1      34.245 -17.801 -21.428  0.00  0.00    +0.090 C 
ATOM     26  C   UNL     1      35.237 -16.206 -22.753  0.00  0.00    +0.108 C 
ATOM     27  C   UNL     1      33.182 -15.783 -21.726  0.00  0.00    +0.165 C 
ATOM     28  C   UNL     1      34.197 -15.324 -22.540  0.00  0.00    +0.022 C 
ATOM     29  H   UNL     1      33.978 -22.194 -20.804  0.00  0.00    -0.080 HD
ENDBRANCH  16  17
ENDBRANCH   1  16
TORSDOF 5
ENDMDL
MODEL 8
REMARK VINA RESULT:      -9.6      4.751      8.216
REMARK  Name = 2477
REMARK  5 active torsions:
REMARK  status: ('A' for Active; 'I' for Inactive)
REMARK    1  A    between atoms: C_1  and  C_2
REMARK    2  A    between atoms: C_1  and  C_16
REMARK    3  A    between atoms: C_2  and  C_3
REMARK    4  A    between atoms: C_3  and  N_6
REMARK    5  A    between atoms: C_16  and  N_17
REMARK                            x       y       z     vdW  Elec       q    Type
REMARK                         _______ _______ _______ _____ _____    ______ ____
ROOT
ATOM      1  C   UNL     1      33.408 -13.716 -24.556  0.00  0.00    -0.021 C 
ENDROOT
BRANCH   1   2
ATOM      2  C   UNL     1      33.591 -15.232 -24.417  0.00  0.00    +0.020 C 
BRANCH   2   3
ATOM      3  C   UNL     1      34.849 -15.602 -23.638  0.00  0.00    +0.101 C 
BRANCH   3   6
ATOM      4  O   UNL     1      34.348 -15.868 -20.924  0.00  0.00    -0.274 OA
ATOM      5  O   UNL     1      34.919 -18.010 -25.032  0.00  0.00    -0.274 OA
ATOM      6  N   UNL     1      34.735 -16.901 -22.983  0.00  0.00    -0.230 N 
ATOM      7  C   UNL     1      35.179 -19.339 -21.665  0.00  0.00    +0.017 C 
ATOM      8  C   UNL     1      36.705 -19.166 -21.567  0.00  0.00    +0.001 C 
ATOM      9  C   UNL     1      34.991 -20.704 -20.980  0.00  0.00    +0.001 C 
ATOM     10  C   UNL     1      37.082 -19.721 -20.195  0.00  0.00    +0.000 C 
ATOM     11  C   UNL     1      35.973 -20.701 -19.813  0.00  0.00    +0.000 C 
ATOM     12  C   UNL     1      34.406 -18.244 -20.927  0.00  0.00    +0.086 C 
ATOM     13  C   UNL     1      34.672 -19.371 -23.101  0.00  0.00    +0.086 C 
ATOM     14  C   UNL     1      34.513 -16.891 -21.594  0.00  0.00    +0.231 C 
ATOM     15  C   UNL     1      34.810 -18.041 -23.804  0.00  0.00    +0.231 C 
ENDBRANCH   3   6
ENDBRANCH   2   3
ENDBRANCH   1   2
BRANCH   1  16
ATOM     16  C   UNL     1      33.168 -13.064 -23.194  0.00  0.00    -0.077 C 
BRANCH  16  17
ATOM     17  N   UNL     1      32.543 -11.753 -23.364  0.00  0.00    +0.389 N 
ATOM     18  N   UNL     1      32.236  -8.940 -22.968  0.00  0.00    -0.257 N 
ATOM     19  N   UNL     1      32.284  -6.762 -23.878  0.00  0.00    -0.181 NA
ATOM     20  N   UNL     1      31.423  -7.149 -21.661  0.00  0.00    -0.203 NA
ATOM     21  C   UNL     1      33.486 -10.808 -23.976  0.00  0.00    -0.055 C 
ATOM     22  C   UNL     1      32.083 -11.231 -22.071  0.00  0.00    -0.055 C 
ATOM     23  C   UNL     1      32.827  -9.447 -24.211  0.00  0.00    +0.079 C 
ATOM     24  C   UNL     1      31.376  -9.884 -22.243  0.00  0.00    +0.079 C 
ATOM     25  C   UNL     1      31.973  -7.573 -22.832  0.00  0.00    +0.090 C 
ATOM     26  C   UNL     1      32.016  -5.450 -23.714  0.00  0.00    +0.108 C 
ATOM     27  C   UNL     1      31.182  -5.825 -21.564  0.00  0.00    +0.165 C 
ATOM     28  C   UNL     1      31.461  -4.919 -22.567  0.00  0.00    +0.022 C 
ATOM     29  H   UNL     1      31.739 -11.861 -23.982  0.00  0.00    -0.080 HD
ENDBRANCH  16  17
ENDBRANCH   1  16
TORSDOF 5
ENDMDL
MODEL 9
REMARK VINA RESULT:      -9.5      6.807     13.991
REMARK  Name = 2477
REMARK  5 active torsions:
REMARK  status: ('A' for Active; 'I' for Inactive)
REMARK    1  A    between atoms: C_1  and  C_2
REMARK    2  A    between atoms: C_1  and  C_16
REMARK    3  A    between atoms: C_2  and  C_3
REMARK    4  A    between atoms: C_3  and  N_6
REMARK    5  A    between atoms: C_16  and  N_17
REMARK                            x       y       z     vdW  Elec       q    Type
REMARK                         _______ _______ _______ _____ _____    ______ ____
ROOT
ATOM      1  C   UNL     1      33.494 -10.991 -24.340  0.00  0.00    -0.021 C 
ENDROOT
BRANCH   1   2
ATOM      2  C   UNL     1      34.326  -9.767 -23.938  0.00  0.00    +0.020 C 
BRANCH   2   3
ATOM      3  C   UNL     1      33.589  -8.849 -22.969  0.00  0.00    +0.101 C 
BRANCH   3   6
ATOM      4  O   UNL     1      34.866  -6.766 -24.281  0.00  0.00    -0.274 OA
ATOM      5  O   UNL     1      30.819  -8.847 -23.240  0.00  0.00    -0.274 OA
ATOM      6  N   UNL     1      32.860  -7.787 -23.656  0.00  0.00    -0.230 N 
ATOM      7  C   UNL     1      31.464  -5.460 -24.371  0.00  0.00    +0.017 C 
ATOM      8  C   UNL     1      31.488  -4.846 -22.960  0.00  0.00    +0.001 C 
ATOM      9  C   UNL     1      30.704  -4.374 -25.153  0.00  0.00    +0.001 C 
ATOM     10  C   UNL     1      31.709  -3.350 -23.179  0.00  0.00    +0.000 C 
ATOM     11  C   UNL     1      31.216  -3.050 -24.594  0.00  0.00    +0.000 C 
ATOM     12  C   UNL     1      32.863  -5.675 -24.951  0.00  0.00    +0.086 C 
ATOM     13  C   UNL     1      30.731  -6.793 -24.430  0.00  0.00    +0.086 C 
ATOM     14  C   UNL     1      33.632  -6.774 -24.252  0.00  0.00    +0.231 C 
ATOM     15  C   UNL     1      31.459  -7.898 -23.700  0.00  0.00    +0.231 C 
ENDBRANCH   3   6
ENDBRANCH   2   3
ENDBRANCH   1   2
BRANCH   1  16
ATOM     16  C   UNL     1      32.698 -11.528 -23.151  0.00  0.00    -0.077 C 
BRANCH  16  17
ATOM     17  N   UNL     1      32.761 -12.989 -23.118  0.00  0.00    +0.389 N 
ATOM     18  N   UNL     1      33.888 -15.536 -22.485  0.00  0.00    -0.257 N 
ATOM     19  N   UNL     1      33.743 -17.556 -21.271  0.00  0.00    -0.181 NA
ATOM     20  N   UNL     1      35.378 -17.289 -23.020  0.00  0.00    -0.203 NA
ATOM     21  C   UNL     1      32.773 -13.473 -21.732  0.00  0.00    -0.055 C 
ATOM     22  C   UNL     1      33.955 -13.469 -23.825  0.00  0.00    -0.055 C 
ATOM     23  C   UNL     1      32.782 -15.003 -21.683  0.00  0.00    +0.079 C 
ATOM     24  C   UNL     1      34.003 -14.998 -23.846  0.00  0.00    +0.079 C 
ATOM     25  C   UNL     1      34.351 -16.836 -22.250  0.00  0.00    +0.090 C 
ATOM     26  C   UNL     1      34.214 -18.805 -21.071  0.00  0.00    +0.108 C 
ATOM     27  C   UNL     1      35.799 -18.545 -22.767  0.00  0.00    +0.165 C 
ATOM     28  C   UNL     1      35.250 -19.357 -21.796  0.00  0.00    +0.022 C 
ATOM     29  H   UNL     1      31.931 -13.354 -23.586  0.00  0.00    -0.080 HD
ENDBRANCH  16  17
ENDBRANCH   1  16
TORSDOF 5
ENDMDL
