MODEL 1
REMARK VINA RESULT:      -9.6      0.000      0.000
REMARK  Name = 10450624
REMARK  5 active torsions:
REMARK  status: ('A' for Active; 'I' for Inactive)
REMARK    1  A    between atoms: N_3  and  C_9
REMARK    2  A    between atoms: N_4  and  C_20
REMARK    3  A    between atoms: C_9  and  C_13
REMARK    4  A    between atoms: C_20  and  C_22
REMARK    5  A    between atoms: C_22  and  O_23
REMARK                            x       y       z     vdW  Elec       q    Type
REMARK                         _______ _______ _______ _____ _____    ______ ____
ROOT
ATOM      1  O   UNL     1      36.819 -26.256 -15.550  0.00  0.00    -0.252 OA
ATOM      2  O   UNL     1      35.126 -23.137 -12.509  0.00  0.00    -0.269 OA
ATOM      3  N   UNL     1      35.921 -24.704 -14.062  0.00  0.00    -0.203 N 
ATOM      4  N   UNL     1      38.155 -25.484 -13.815  0.00  0.00    -0.231 N 
ATOM      5  C   UNL     1      36.961 -25.540 -14.555  0.00  0.00    +0.318 C 
ATOM      6  C   UNL     1      36.015 -23.867 -12.942  0.00  0.00    +0.258 C 
ATOM      7  C   UNL     1      38.294 -24.677 -12.709  0.00  0.00    +0.074 C 
ATOM      8  C   UNL     1      37.319 -23.894 -12.251  0.00  0.00    +0.075 C 
ENDROOT
BRANCH   3   9
ATOM      9  C   UNL     1      34.652 -24.719 -14.782  0.00  0.00    +0.168 C 
BRANCH   9  13
ATOM     10 CL   UNL     1      36.947 -20.028 -20.333  0.00  0.00    -0.086 Cl
ATOM     11  S   UNL     1      33.246 -23.609 -16.872  0.00  0.00    -0.056 S 
ATOM     12  N   UNL     1      35.754 -23.223 -16.409  0.00  0.00    -0.401 NA
ATOM     13  C   UNL     1      34.684 -23.833 -15.993  0.00  0.00    +0.159 C 
ATOM     14  C   UNL     1      35.437 -22.490 -17.544  0.00  0.00    +0.121 C 
ATOM     15  C   UNL     1      34.103 -22.576 -17.954  0.00  0.00    +0.057 C 
ATOM     16  C   UNL     1      36.325 -21.688 -18.294  0.00  0.00    +0.097 C 
ATOM     17  C   UNL     1      33.629 -21.891 -19.085  0.00  0.00    +0.009 C 
ATOM     18  C   UNL     1      35.860 -21.004 -19.420  0.00  0.00    +0.043 C 
ATOM     19  C   UNL     1      34.529 -21.105 -19.809  0.00  0.00    +0.008 C 
ENDBRANCH   9  13
ENDBRANCH   3   9
BRANCH   4  20
ATOM     20  C   UNL     1      39.306 -26.291 -14.207  0.00  0.00    +0.209 C 
BRANCH  20  22
ATOM     21  O   UNL     1      41.060 -24.673 -14.519  0.00  0.00    -0.248 OA
ATOM     22  C   UNL     1      40.320 -25.516 -15.008  0.00  0.00    +0.335 C 
BRANCH  22  23
ATOM     23  O   UNL     1      40.333 -25.840 -16.322  0.00  0.00    -0.479 OA
ATOM     24  H   UNL     1      40.420 -26.736 -16.583  0.00  0.00    +0.295 HD
ENDBRANCH  22  23
ENDBRANCH  20  22
ENDBRANCH   4  20
TORSDOF 5
ENDMDL
MODEL 2
REMARK VINA RESULT:      -9.0     11.302     13.774
REMARK  Name = 10450624
REMARK  5 active torsions:
REMARK  status: ('A' for Active; 'I' for Inactive)
REMARK    1  A    between atoms: N_3  and  C_9
REMARK    2  A    between atoms: N_4  and  C_20
REMARK    3  A    between atoms: C_9  and  C_13
REMARK    4  A    between atoms: C_20  and  C_22
REMARK    5  A    between atoms: C_22  and  O_23
REMARK                            x       y       z     vdW  Elec       q    Type
REMARK                         _______ _______ _______ _____ _____    ______ ____
ROOT
ATOM      1  O   UNL     1      33.573 -15.027 -24.676  0.00  0.00    -0.252 OA
ATOM      2  O   UNL     1      32.458 -13.528 -20.392  0.00  0.00    -0.269 OA
ATOM      3  N   UNL     1      32.973 -14.245 -22.565  0.00  0.00    -0.203 N 
ATOM      4  N   UNL     1      34.673 -15.888 -22.822  0.00  0.00    -0.231 N 
ATOM      5  C   UNL     1      33.733 -15.056 -23.452  0.00  0.00    +0.318 C 
ATOM      6  C   UNL     1      33.105 -14.226 -21.169  0.00  0.00    +0.258 C 
ATOM      7  C   UNL     1      34.839 -15.904 -21.455  0.00  0.00    +0.074 C 
ATOM      8  C   UNL     1      34.127 -15.143 -20.627  0.00  0.00    +0.075 C 
ENDROOT
BRANCH   3   9
ATOM      9  C   UNL     1      31.974 -13.360 -23.155  0.00  0.00    +0.168 C 
BRANCH   9  13
ATOM     10 CL   UNL     1      32.423  -5.920 -21.565  0.00  0.00    -0.086 Cl
ATOM     11  S   UNL     1      33.749 -11.453 -24.043  0.00  0.00    -0.056 S 
ATOM     12  N   UNL     1      31.804 -11.013 -22.407  0.00  0.00    -0.401 NA
ATOM     13  C   UNL     1      32.405 -11.923 -23.115  0.00  0.00    +0.159 C 
ATOM     14  C   UNL     1      32.451  -9.800 -22.597  0.00  0.00    +0.121 C 
ATOM     15  C   UNL     1      33.547  -9.841 -23.465  0.00  0.00    +0.057 C 
ATOM     16  C   UNL     1      32.102  -8.567 -22.004  0.00  0.00    +0.097 C 
ATOM     17  C   UNL     1      34.303  -8.694 -23.758  0.00  0.00    +0.009 C 
ATOM     18  C   UNL     1      32.851  -7.423 -22.292  0.00  0.00    +0.043 C 
ATOM     19  C   UNL     1      33.937  -7.487 -23.157  0.00  0.00    +0.008 C 
ENDBRANCH   9  13
ENDBRANCH   3   9
BRANCH   4  20
ATOM     20  C   UNL     1      35.522 -16.775 -23.611  0.00  0.00    +0.209 C 
BRANCH  20  22
ATOM     21  O   UNL     1      34.514 -18.957 -23.481  0.00  0.00    -0.248 OA
ATOM     22  C   UNL     1      34.779 -17.968 -24.154  0.00  0.00    +0.335 C 
BRANCH  22  23
ATOM     23  O   UNL     1      34.434 -17.844 -25.457  0.00  0.00    -0.479 OA
ATOM     24  H   UNL     1      33.830 -17.179 -25.720  0.00  0.00    +0.295 HD
ENDBRANCH  22  23
ENDBRANCH  20  22
ENDBRANCH   4  20
TORSDOF 5
ENDMDL
MODEL 3
REMARK VINA RESULT:      -8.7      8.694     11.813
REMARK  Name = 10450624
REMARK  5 active torsions:
REMARK  status: ('A' for Active; 'I' for Inactive)
REMARK    1  A    between atoms: N_3  and  C_9
REMARK    2  A    between atoms: N_4  and  C_20
REMARK    3  A    between atoms: C_9  and  C_13
REMARK    4  A    between atoms: C_20  and  C_22
REMARK    5  A    between atoms: C_22  and  O_23
REMARK                            x       y       z     vdW  Elec       q    Type
REMARK                         _______ _______ _______ _____ _____    ______ ____
ROOT
ATOM      1  O   UNL     1      34.495 -16.764 -25.683  0.00  0.00    -0.252 OA
ATOM      2  O   UNL     1      35.143 -15.825 -21.151  0.00  0.00    -0.269 OA
ATOM      3  N   UNL     1      34.859 -16.341 -23.421  0.00  0.00    -0.203 N 
ATOM      4  N   UNL     1      33.400 -14.967 -24.703  0.00  0.00    -0.231 N 
ATOM      5  C   UNL     1      34.265 -16.075 -24.686  0.00  0.00    +0.318 C 
ATOM      6  C   UNL     1      34.640 -15.603 -22.250  0.00  0.00    +0.258 C 
ATOM      7  C   UNL     1      33.155 -14.212 -23.578  0.00  0.00    +0.074 C 
ATOM      8  C   UNL     1      33.711 -14.465 -22.395  0.00  0.00    +0.075 C 
ENDROOT
BRANCH   3   9
ATOM      9  C   UNL     1      35.771 -17.477 -23.336  0.00  0.00    +0.168 C 
BRANCH   9  13
ATOM     10 CL   UNL     1      35.607 -22.559 -17.659  0.00  0.00    -0.086 Cl
ATOM     11  S   UNL     1      33.672 -18.930 -22.305  0.00  0.00    -0.056 S 
ATOM     12  N   UNL     1      36.107 -19.051 -21.463  0.00  0.00    -0.401 NA
ATOM     13  C   UNL     1      35.314 -18.489 -22.326  0.00  0.00    +0.159 C 
ATOM     14  C   UNL     1      35.369 -19.932 -20.685  0.00  0.00    +0.121 C 
ATOM     15  C   UNL     1      34.008 -20.004 -20.999  0.00  0.00    +0.057 C 
ATOM     16  C   UNL     1      35.866 -20.736 -19.637  0.00  0.00    +0.097 C 
ATOM     17  C   UNL     1      33.130 -20.850 -20.301  0.00  0.00    +0.009 C 
ATOM     18  C   UNL     1      34.998 -21.580 -18.939  0.00  0.00    +0.043 C 
ATOM     19  C   UNL     1      33.648 -21.635 -19.268  0.00  0.00    +0.008 C 
ENDBRANCH   9  13
ENDBRANCH   3   9
BRANCH   4  20
ATOM     20  C   UNL     1      32.722 -14.577 -25.935  0.00  0.00    +0.209 C 
BRANCH  20  22
ATOM     21  O   UNL     1      33.522 -12.325 -26.216  0.00  0.00    -0.248 OA
ATOM     22  C   UNL     1      33.424 -13.461 -26.663  0.00  0.00    +0.335 C 
BRANCH  22  23
ATOM     23  O   UNL     1      33.936 -13.833 -27.859  0.00  0.00    -0.479 OA
ATOM     24  H   UNL     1      33.408 -13.778 -28.632  0.00  0.00    +0.295 HD
ENDBRANCH  22  23
ENDBRANCH  20  22
ENDBRANCH   4  20
TORSDOF 5
ENDMDL
MODEL 4
REMARK VINA RESULT:      -8.7     12.317     15.610
REMARK  Name = 10450624
REMARK  5 active torsions:
REMARK  status: ('A' for Active; 'I' for Inactive)
REMARK    1  A    between atoms: N_3  and  C_9
REMARK    2  A    between atoms: N_4  and  C_20
REMARK    3  A    between atoms: C_9  and  C_13
REMARK    4  A    between atoms: C_20  and  C_22
REMARK    5  A    between atoms: C_22  and  O_23
REMARK                            x       y       z     vdW  Elec       q    Type
REMARK                         _______ _______ _______ _____ _____    ______ ____
ROOT
ATOM      1  O   UNL     1      31.215  -9.928 -22.700  0.00  0.00    -0.252 OA
ATOM      2  O   UNL     1      35.225 -10.260 -25.078  0.00  0.00    -0.269 OA
ATOM      3  N   UNL     1      33.193 -10.143 -23.913  0.00  0.00    -0.203 N 
ATOM      4  N   UNL     1      32.852  -8.300 -22.449  0.00  0.00    -0.231 N 
ATOM      5  C   UNL     1      32.330  -9.486 -22.992  0.00  0.00    +0.318 C 
ATOM      6  C   UNL     1      34.469  -9.700 -24.287  0.00  0.00    +0.258 C 
ATOM      7  C   UNL     1      34.099  -7.826 -22.786  0.00  0.00    +0.074 C 
ATOM      8  C   UNL     1      34.905  -8.443 -23.647  0.00  0.00    +0.075 C 
ENDROOT
BRANCH   3   9
ATOM      9  C   UNL     1      32.709 -11.380 -24.518  0.00  0.00    +0.168 C 
BRANCH   9  13
ATOM     10 CL   UNL     1      35.957 -17.880 -22.218  0.00  0.00    -0.086 Cl
ATOM     11  S   UNL     1      32.378 -12.811 -22.190  0.00  0.00    -0.056 S 
ATOM     12  N   UNL     1      33.955 -13.475 -24.120  0.00  0.00    -0.401 NA
ATOM     13  C   UNL     1      33.097 -12.587 -23.714  0.00  0.00    +0.159 C 
ATOM     14  C   UNL     1      34.081 -14.453 -23.143  0.00  0.00    +0.121 C 
ATOM     15  C   UNL     1      33.291 -14.261 -22.006  0.00  0.00    +0.057 C 
ATOM     16  C   UNL     1      34.915 -15.590 -23.205  0.00  0.00    +0.097 C 
ATOM     17  C   UNL     1      33.308 -15.166 -20.931  0.00  0.00    +0.009 C 
ATOM     18  C   UNL     1      34.936 -16.493 -22.140  0.00  0.00    +0.043 C 
ATOM     19  C   UNL     1      34.142 -16.282 -21.018  0.00  0.00    +0.008 C 
ENDBRANCH   9  13
ENDBRANCH   3   9
BRANCH   4  20
ATOM     20  C   UNL     1      32.073  -7.522 -21.490  0.00  0.00    +0.209 C 
BRANCH  20  22
ATOM     21  O   UNL     1      31.894  -8.886 -19.516  0.00  0.00    -0.248 OA
ATOM     22  C   UNL     1      32.363  -7.894 -20.060  0.00  0.00    +0.335 C 
BRANCH  22  23
ATOM     23  O   UNL     1      33.190  -7.027 -19.431  0.00  0.00    -0.479 OA
ATOM     24  H   UNL     1      33.810  -6.527 -19.927  0.00  0.00    +0.295 HD
ENDBRANCH  22  23
ENDBRANCH  20  22
ENDBRANCH   4  20
TORSDOF 5
ENDMDL
MODEL 5
REMARK VINA RESULT:      -8.6     12.591     15.642
REMARK  Name = 10450624
REMARK  5 active torsions:
REMARK  status: ('A' for Active; 'I' for Inactive)
REMARK    1  A    between atoms: N_3  and  C_9
REMARK    2  A    between atoms: N_4  and  C_20
REMARK    3  A    between atoms: C_9  and  C_13
REMARK    4  A    between atoms: C_20  and  C_22
REMARK    5  A    between atoms: C_22  and  O_23
REMARK                            x       y       z     vdW  Elec       q    Type
REMARK                         _______ _______ _______ _____ _____    ______ ____
ROOT
ATOM      1  O   UNL     1      31.865  -9.433 -23.509  0.00  0.00    -0.252 OA
ATOM      2  O   UNL     1      31.266 -11.152 -19.204  0.00  0.00    -0.269 OA
ATOM      3  N   UNL     1      31.544 -10.341 -21.387  0.00  0.00    -0.203 N 
ATOM      4  N   UNL     1      32.574  -8.215 -21.663  0.00  0.00    -0.231 N 
ATOM      5  C   UNL     1      31.987  -9.331 -22.285  0.00  0.00    +0.318 C 
ATOM      6  C   UNL     1      31.649 -10.289 -19.991  0.00  0.00    +0.258 C 
ATOM      7  C   UNL     1      32.699  -8.119 -20.296  0.00  0.00    +0.074 C 
ATOM      8  C   UNL     1      32.281  -9.066 -19.458  0.00  0.00    +0.075 C 
ENDROOT
BRANCH   3   9
ATOM      9  C   UNL     1      30.928 -11.530 -21.969  0.00  0.00    +0.168 C 
BRANCH   9  13
ATOM     10 CL   UNL     1      35.303 -17.662 -20.810  0.00  0.00    -0.086 Cl
ATOM     11  S   UNL     1      32.754 -12.754 -23.625  0.00  0.00    -0.056 S 
ATOM     12  N   UNL     1      32.175 -13.532 -21.235  0.00  0.00    -0.401 NA
ATOM     13  C   UNL     1      31.919 -12.643 -22.149  0.00  0.00    +0.159 C 
ATOM     14  C   UNL     1      33.132 -14.410 -21.722  0.00  0.00    +0.121 C 
ATOM     15  C   UNL     1      33.575 -14.145 -23.021  0.00  0.00    +0.057 C 
ATOM     16  C   UNL     1      33.678 -15.515 -21.032  0.00  0.00    +0.097 C 
ATOM     17  C   UNL     1      34.542 -14.945 -23.652  0.00  0.00    +0.009 C 
ATOM     18  C   UNL     1      34.640 -16.314 -21.654  0.00  0.00    +0.043 C 
ATOM     19  C   UNL     1      35.066 -16.032 -22.948  0.00  0.00    +0.008 C 
ENDBRANCH   9  13
ENDBRANCH   3   9
BRANCH   4  20
ATOM     20  C   UNL     1      33.075  -7.102 -22.464  0.00  0.00    +0.209 C 
BRANCH  20  22
ATOM     21  O   UNL     1      31.346  -6.044 -23.762  0.00  0.00    -0.248 OA
ATOM     22  C   UNL     1      32.023  -6.060 -22.741  0.00  0.00    +0.335 C 
BRANCH  22  23
ATOM     23  O   UNL     1      31.899  -5.140 -21.756  0.00  0.00    -0.479 OA
ATOM     24  H   UNL     1      32.563  -4.490 -21.637  0.00  0.00    +0.295 HD
ENDBRANCH  22  23
ENDBRANCH  20  22
ENDBRANCH   4  20
TORSDOF 5
ENDMDL
MODEL 6
REMARK VINA RESULT:      -8.6      8.217     11.307
REMARK  Name = 10450624
REMARK  5 active torsions:
REMARK  status: ('A' for Active; 'I' for Inactive)
REMARK    1  A    between atoms: N_3  and  C_9
REMARK    2  A    between atoms: N_4  and  C_20
REMARK    3  A    between atoms: C_9  and  C_13
REMARK    4  A    between atoms: C_20  and  C_22
REMARK    5  A    between atoms: C_22  and  O_23
REMARK                            x       y       z     vdW  Elec       q    Type
REMARK                         _______ _______ _______ _____ _____    ______ ____
ROOT
ATOM      1  O   UNL     1      34.034 -16.088 -24.718  0.00  0.00    -0.252 OA
ATOM      2  O   UNL     1      35.359 -16.700 -20.278  0.00  0.00    -0.269 OA
ATOM      3  N   UNL     1      34.727 -16.442 -22.522  0.00  0.00    -0.203 N 
ATOM      4  N   UNL     1      33.368 -14.574 -23.088  0.00  0.00    -0.231 N 
ATOM      5  C   UNL     1      34.038 -15.725 -23.538  0.00  0.00    +0.318 C 
ATOM      6  C   UNL     1      34.771 -16.088 -21.166  0.00  0.00    +0.258 C 
ATOM      7  C   UNL     1      33.382 -14.187 -21.768  0.00  0.00    +0.074 C 
ATOM      8  C   UNL     1      34.027 -14.861 -20.818  0.00  0.00    +0.075 C 
ENDROOT
BRANCH   3   9
ATOM      9  C   UNL     1      35.448 -17.645 -22.923  0.00  0.00    +0.168 C 
BRANCH   9  13
ATOM     10 CL   UNL     1      32.881 -22.919 -18.055  0.00  0.00    -0.086 Cl
ATOM     11  S   UNL     1      36.815 -19.266 -21.167  0.00  0.00    -0.056 S 
ATOM     12  N   UNL     1      34.256 -19.260 -21.484  0.00  0.00    -0.401 NA
ATOM     13  C   UNL     1      35.371 -18.720 -21.878  0.00  0.00    +0.159 C 
ATOM     14  C   UNL     1      34.539 -20.212 -20.514  0.00  0.00    +0.121 C 
ATOM     15  C   UNL     1      35.894 -20.359 -20.205  0.00  0.00    +0.057 C 
ATOM     16  C   UNL     1      33.597 -21.017 -19.837  0.00  0.00    +0.097 C 
ATOM     17  C   UNL     1      36.338 -21.282 -19.243  0.00  0.00    +0.009 C 
ATOM     18  C   UNL     1      34.033 -21.937 -18.879  0.00  0.00    +0.043 C 
ATOM     19  C   UNL     1      35.386 -22.067 -18.588  0.00  0.00    +0.008 C 
ENDBRANCH   9  13
ENDBRANCH   3   9
BRANCH   4  20
ATOM     20  C   UNL     1      32.619 -13.741 -24.025  0.00  0.00    +0.209 C 
BRANCH  20  22
ATOM     21  O   UNL     1      33.533 -12.788 -26.037  0.00  0.00    -0.248 OA
ATOM     22  C   UNL     1      33.501 -12.807 -24.812  0.00  0.00    +0.335 C 
BRANCH  22  23
ATOM     23  O   UNL     1      34.255 -11.993 -24.039  0.00  0.00    -0.479 OA
ATOM     24  H   UNL     1      34.689 -12.335 -23.282  0.00  0.00    +0.295 HD
ENDBRANCH  22  23
ENDBRANCH  20  22
ENDBRANCH   4  20
TORSDOF 5
ENDMDL
MODEL 7
REMARK VINA RESULT:      -8.5      8.874     12.280
REMARK  Name = 10450624
REMARK  5 active torsions:
REMARK  status: ('A' for Active; 'I' for Inactive)
REMARK    1  A    between atoms: N_3  and  C_9
REMARK    2  A    between atoms: N_4  and  C_20
REMARK    3  A    between atoms: C_9  and  C_13
REMARK    4  A    between atoms: C_20  and  C_22
REMARK    5  A    between atoms: C_22  and  O_23
REMARK                            x       y       z     vdW  Elec       q    Type
REMARK                         _______ _______ _______ _____ _____    ______ ____
ROOT
ATOM      1  O   UNL     1      34.887 -14.506 -22.042  0.00  0.00    -0.252 OA
ATOM      2  O   UNL     1      34.685 -17.215 -25.845  0.00  0.00    -0.269 OA
ATOM      3  N   UNL     1      34.826 -15.894 -23.912  0.00  0.00    -0.203 N 
ATOM      4  N   UNL     1      33.418 -13.983 -23.762  0.00  0.00    -0.231 N 
ATOM      5  C   UNL     1      34.411 -14.767 -23.150  0.00  0.00    +0.318 C 
ATOM      6  C   UNL     1      34.331 -16.247 -25.175  0.00  0.00    +0.258 C 
ATOM      7  C   UNL     1      32.901 -14.290 -25.000  0.00  0.00    +0.074 C 
ATOM      8  C   UNL     1      33.293 -15.345 -25.712  0.00  0.00    +0.075 C 
ENDROOT
BRANCH   3   9
ATOM      9  C   UNL     1      35.853 -16.753 -23.331  0.00  0.00    +0.168 C 
BRANCH   9  13
ATOM     10 CL   UNL     1      35.017 -22.589 -18.502  0.00  0.00    -0.086 Cl
ATOM     11  S   UNL     1      33.575 -17.873 -22.267  0.00  0.00    -0.056 S 
ATOM     12  N   UNL     1      35.979 -18.665 -21.773  0.00  0.00    -0.401 NA
ATOM     13  C   UNL     1      35.265 -17.802 -22.434  0.00  0.00    +0.159 C 
ATOM     14  C   UNL     1      35.128 -19.486 -21.047  0.00  0.00    +0.121 C 
ATOM     15  C   UNL     1      33.766 -19.205 -21.190  0.00  0.00    +0.057 C 
ATOM     16  C   UNL     1      35.516 -20.549 -20.203  0.00  0.00    +0.097 C 
ATOM     17  C   UNL     1      32.782 -19.949 -20.519  0.00  0.00    +0.009 C 
ATOM     18  C   UNL     1      34.541 -21.293 -19.532  0.00  0.00    +0.043 C 
ATOM     19  C   UNL     1      33.192 -20.995 -19.689  0.00  0.00    +0.008 C 
ENDBRANCH   9  13
ENDBRANCH   3   9
BRANCH   4  20
ATOM     20  C   UNL     1      32.896 -12.796 -23.092  0.00  0.00    +0.209 C 
BRANCH  20  22
ATOM     21  O   UNL     1      32.730 -10.478 -23.720  0.00  0.00    -0.248 OA
ATOM     22  C   UNL     1      33.388 -11.512 -23.708  0.00  0.00    +0.335 C 
BRANCH  22  23
ATOM     23  O   UNL     1      34.624 -11.609 -24.249  0.00  0.00    -0.479 OA
ATOM     24  H   UNL     1      35.227 -12.250 -23.928  0.00  0.00    +0.295 HD
ENDBRANCH  22  23
ENDBRANCH  20  22
ENDBRANCH   4  20
TORSDOF 5
ENDMDL
MODEL 8
REMARK VINA RESULT:      -8.4      6.461      9.054
REMARK  Name = 10450624
REMARK  5 active torsions:
REMARK  status: ('A' for Active; 'I' for Inactive)
REMARK    1  A    between atoms: N_3  and  C_9
REMARK    2  A    between atoms: N_4  and  C_20
REMARK    3  A    between atoms: C_9  and  C_13
REMARK    4  A    between atoms: C_20  and  C_22
REMARK    5  A    between atoms: C_22  and  O_23
REMARK                            x       y       z     vdW  Elec       q    Type
REMARK                         _______ _______ _______ _____ _____    ______ ____
ROOT
ATOM      1  O   UNL     1      33.262 -19.880 -21.928  0.00  0.00    -0.252 OA
ATOM      2  O   UNL     1      37.799 -18.778 -21.720  0.00  0.00    -0.269 OA
ATOM      3  N   UNL     1      35.517 -19.297 -21.875  0.00  0.00    -0.203 N 
ATOM      4  N   UNL     1      34.557 -20.627 -20.152  0.00  0.00    -0.231 N 
ATOM      5  C   UNL     1      34.355 -19.935 -21.359  0.00  0.00    +0.318 C 
ATOM      6  C   UNL     1      36.787 -19.321 -21.283  0.00  0.00    +0.258 C 
ATOM      7  C   UNL     1      35.785 -20.679 -19.533  0.00  0.00    +0.074 C 
ATOM      8  C   UNL     1      36.872 -20.081 -20.020  0.00  0.00    +0.075 C 
ENDROOT
BRANCH   3   9
ATOM      9  C   UNL     1      35.375 -18.557 -23.124  0.00  0.00    +0.168 C 
BRANCH   9  13
ATOM     10 CL   UNL     1      31.965 -12.517 -19.965  0.00  0.00    -0.086 Cl
ATOM     11  S   UNL     1      34.353 -16.279 -24.284  0.00  0.00    -0.056 S 
ATOM     12  N   UNL     1      34.328 -16.788 -21.755  0.00  0.00    -0.401 NA
ATOM     13  C   UNL     1      34.686 -17.239 -22.921  0.00  0.00    +0.159 C 
ATOM     14  C   UNL     1      33.720 -15.551 -21.922  0.00  0.00    +0.121 C 
ATOM     15  C   UNL     1      33.641 -15.103 -23.244  0.00  0.00    +0.057 C 
ATOM     16  C   UNL     1      33.193 -14.737 -20.897  0.00  0.00    +0.097 C 
ATOM     17  C   UNL     1      33.054 -13.870 -23.574  0.00  0.00    +0.009 C 
ATOM     18  C   UNL     1      32.607 -13.510 -21.218  0.00  0.00    +0.043 C 
ATOM     19  C   UNL     1      32.539 -13.083 -22.540  0.00  0.00    +0.008 C 
ENDBRANCH   9  13
ENDBRANCH   3   9
BRANCH   4  20
ATOM     20  C   UNL     1      33.450 -21.328 -19.508  0.00  0.00    +0.209 C 
BRANCH  20  22
ATOM     21  O   UNL     1      34.088 -23.643 -19.664  0.00  0.00    -0.248 OA
ATOM     22  C   UNL     1      33.849 -22.672 -18.957  0.00  0.00    +0.335 C 
BRANCH  22  23
ATOM     23  O   UNL     1      33.916 -22.705 -17.606  0.00  0.00    -0.479 OA
ATOM     24  H   UNL     1      33.641 -21.962 -17.105  0.00  0.00    +0.295 HD
ENDBRANCH  22  23
ENDBRANCH  20  22
ENDBRANCH   4  20
TORSDOF 5
ENDMDL
MODEL 9
REMARK VINA RESULT:      -8.4      7.185     10.715
REMARK  Name = 10450624
REMARK  5 active torsions:
REMARK  status: ('A' for Active; 'I' for Inactive)
REMARK    1  A    between atoms: N_3  and  C_9
REMARK    2  A    between atoms: N_4  and  C_20
REMARK    3  A    between atoms: C_9  and  C_13
REMARK    4  A    between atoms: C_20  and  C_22
REMARK    5  A    between atoms: C_22  and  O_23
REMARK                            x       y       z     vdW  Elec       q    Type
REMARK                         _______ _______ _______ _____ _____    ______ ____
ROOT
ATOM      1  O   UNL     1      35.519 -15.926 -21.274  0.00  0.00    -0.252 OA
ATOM      2  O   UNL     1      35.391 -19.182 -24.624  0.00  0.00    -0.269 OA
ATOM      3  N   UNL     1      35.489 -17.585 -22.908  0.00  0.00    -0.203 N 
ATOM      4  N   UNL     1      34.289 -15.553 -23.207  0.00  0.00    -0.231 N 
ATOM      5  C   UNL     1      35.127 -16.317 -22.376  0.00  0.00    +0.318 C 
ATOM      6  C   UNL     1      35.082 -18.090 -24.151  0.00  0.00    +0.258 C 
ATOM      7  C   UNL     1      33.864 -16.007 -24.436  0.00  0.00    +0.074 C 
ATOM      8  C   UNL     1      34.206 -17.194 -24.932  0.00  0.00    +0.075 C 
ENDROOT
BRANCH   3   9
ATOM      9  C   UNL     1      36.355 -18.431 -22.093  0.00  0.00    +0.168 C 
BRANCH   9  13
ATOM     10 CL   UNL     1      34.401 -23.691 -16.936  0.00  0.00    -0.086 Cl
ATOM     11  S   UNL     1      33.871 -19.328 -21.316  0.00  0.00    -0.056 S 
ATOM     12  N   UNL     1      36.112 -20.175 -20.361  0.00  0.00    -0.401 NA
ATOM     13  C   UNL     1      35.567 -19.353 -21.209  0.00  0.00    +0.159 C 
ATOM     14  C   UNL     1      35.108 -20.876 -19.710  0.00  0.00    +0.121 C 
ATOM     15  C   UNL     1      33.806 -20.549 -20.101  0.00  0.00    +0.057 C 
ATOM     16  C   UNL     1      35.289 -21.863 -18.717  0.00  0.00    +0.097 C 
ATOM     17  C   UNL     1      32.683 -21.174 -19.534  0.00  0.00    +0.009 C 
ATOM     18  C   UNL     1      34.176 -22.488 -18.148  0.00  0.00    +0.043 C 
ATOM     19  C   UNL     1      32.890 -22.146 -18.552  0.00  0.00    +0.008 C 
ENDBRANCH   9  13
ENDBRANCH   3   9
BRANCH   4  20
ATOM     20  C   UNL     1      33.838 -14.231 -22.787  0.00  0.00    +0.209 C 
BRANCH  20  22
ATOM     21  O   UNL     1      32.078 -15.179 -21.447  0.00  0.00    -0.248 OA
ATOM     22  C   UNL     1      32.476 -14.253 -22.142  0.00  0.00    +0.335 C 
BRANCH  22  23
ATOM     23  O   UNL     1      31.734 -13.153 -22.406  0.00  0.00    -0.479 OA
ATOM     24  H   UNL     1      30.800 -13.215 -22.442  0.00  0.00    +0.295 HD
ENDBRANCH  22  23
ENDBRANCH  20  22
ENDBRANCH   4  20
TORSDOF 5
ENDMDL
