MODEL 1
REMARK VINA RESULT:      -9.0      0.000      0.000
REMARK  Name = 10039774
REMARK  2 active torsions:
REMARK  status: ('A' for Active; 'I' for Inactive)
REMARK    1  A    between atoms: C_2  and  C_21
REMARK    2  A    between atoms: C_7  and  O_19
REMARK                            x       y       z     vdW  Elec       q    Type
REMARK                         _______ _______ _______ _____ _____    ______ ____
ROOT
ATOM      1  O   UNL     1      33.491 -15.451 -22.454  0.00  0.00    -0.291 OA
ATOM      2  C   UNL     1      32.193  -7.077 -23.556  0.00  0.00    +0.025 C 
ATOM      3  C   UNL     1      33.160  -7.896 -24.440  0.00  0.00    +0.002 C 
ATOM      4  C   UNL     1      33.633  -9.175 -23.746  0.00  0.00    +0.001 C 
ATOM      5  C   UNL     1      32.382 -10.058 -23.440  0.00  0.00    +0.004 C 
ATOM      6  C   UNL     1      30.949  -7.931 -23.272  0.00  0.00    +0.002 C 
ATOM      7  C   UNL     1      31.956  -5.878 -24.494  0.00  0.00    +0.110 C 
ATOM      8  C   UNL     1      34.183  -6.858 -24.894  0.00  0.00    +0.003 C 
ATOM      9  C   UNL     1      31.320  -9.282 -22.630  0.00  0.00    +0.000 C 
ATOM     10  C   UNL     1      32.867 -11.367 -22.770  0.00  0.00    +0.019 C 
ATOM     11  C   UNL     1      33.357  -5.569 -25.060  0.00  0.00    +0.029 C 
ATOM     12  C   UNL     1      34.724  -9.941 -24.524  0.00  0.00    +0.004 C 
ATOM     13  C   UNL     1      34.350 -11.378 -24.887  0.00  0.00    +0.022 C 
ATOM     14  C   UNL     1      33.736 -12.147 -23.743  0.00  0.00    -0.042 C 
ATOM     15  C   UNL     1      31.738 -12.262 -22.246  0.00  0.00    +0.012 C 
ATOM     16  C   UNL     1      32.304 -13.539 -21.634  0.00  0.00    +0.069 C 
ATOM     17  C   UNL     1      33.911 -13.475 -23.649  0.00  0.00    +0.029 C 
ATOM     18  C   UNL     1      33.244 -14.253 -22.578  0.00  0.00    +0.173 C 
ENDROOT
BRANCH   7  19
ATOM     19  O   UNL     1      31.398  -4.760 -23.834  0.00  0.00    -0.384 OA
ATOM     20  H   UNL     1      30.494  -4.612 -24.155  0.00  0.00    +0.210 HD
ENDBRANCH   7  19
BRANCH   2  21
ATOM     21  C   UNL     1      32.793  -6.592 -22.210  0.00  0.00    +0.002 C 
ATOM     22  C   UNL     1      31.696  -6.261 -21.230  0.00  0.00    +0.000 C 
ENDBRANCH   2  21
TORSDOF 2
ENDMDL
MODEL 2
REMARK VINA RESULT:      -8.9     14.992     17.117
REMARK  Name = 10039774
REMARK  2 active torsions:
REMARK  status: ('A' for Active; 'I' for Inactive)
REMARK    1  A    between atoms: C_2  and  C_21
REMARK    2  A    between atoms: C_7  and  O_19
REMARK                            x       y       z     vdW  Elec       q    Type
REMARK                         _______ _______ _______ _____ _____    ______ ____
ROOT
ATOM      1  O   UNL     1      27.566 -24.181 -16.018  0.00  0.00    -0.291 OA
ATOM      2  C   UNL     1      35.974 -23.825 -14.534  0.00  0.00    +0.025 C 
ATOM      3  C   UNL     1      35.289 -23.019 -15.661  0.00  0.00    +0.002 C 
ATOM      4  C   UNL     1      33.951 -23.632 -16.079  0.00  0.00    +0.001 C 
ATOM      5  C   UNL     1      33.005 -23.637 -14.836  0.00  0.00    +0.004 C 
ATOM      6  C   UNL     1      35.061 -23.813 -13.300  0.00  0.00    +0.002 C 
ATOM      7  C   UNL     1      37.268 -23.000 -14.392  0.00  0.00    +0.110 C 
ATOM      8  C   UNL     1      36.400 -22.850 -16.695  0.00  0.00    +0.003 C 
ATOM      9  C   UNL     1      33.654 -24.351 -13.628  0.00  0.00    +0.000 C 
ATOM     10  C   UNL     1      31.641 -24.226 -15.269  0.00  0.00    +0.019 C 
ATOM     11  C   UNL     1      37.678 -22.700 -15.847  0.00  0.00    +0.029 C 
ATOM     12  C   UNL     1      33.311 -22.956 -17.309  0.00  0.00    +0.004 C 
ATOM     13  C   UNL     1      31.917 -22.382 -17.059  0.00  0.00    +0.022 C 
ATOM     14  C   UNL     1      31.003 -23.321 -16.311  0.00  0.00    -0.042 C 
ATOM     15  C   UNL     1      30.662 -24.463 -14.114  0.00  0.00    +0.012 C 
ATOM     16  C   UNL     1      29.337 -25.011 -14.635  0.00  0.00    +0.069 C 
ATOM     17  C   UNL     1      29.679 -23.294 -16.528  0.00  0.00    +0.029 C 
ATOM     18  C   UNL     1      28.764 -24.154 -15.740  0.00  0.00    +0.173 C 
ENDROOT
BRANCH   7  19
ATOM     19  O   UNL     1      38.286 -23.684 -13.689  0.00  0.00    -0.384 OA
ATOM     20  H   UNL     1      39.083 -23.731 -14.240  0.00  0.00    +0.210 HD
ENDBRANCH   7  19
BRANCH   2  21
ATOM     21  C   UNL     1      36.315 -25.294 -14.899  0.00  0.00    +0.002 C 
ATOM     22  C   UNL     1      36.846 -26.029 -13.694  0.00  0.00    +0.000 C 
ENDBRANCH   2  21
TORSDOF 2
ENDMDL
MODEL 3
REMARK VINA RESULT:      -8.9      1.909      3.611
REMARK  Name = 10039774
REMARK  2 active torsions:
REMARK  status: ('A' for Active; 'I' for Inactive)
REMARK    1  A    between atoms: C_2  and  C_21
REMARK    2  A    between atoms: C_7  and  O_19
REMARK                            x       y       z     vdW  Elec       q    Type
REMARK                         _______ _______ _______ _____ _____    ______ ____
ROOT
ATOM      1  O   UNL     1      33.541 -15.664 -26.625  0.00  0.00    -0.291 OA
ATOM      2  C   UNL     1      32.487  -8.499 -22.089  0.00  0.00    +0.025 C 
ATOM      3  C   UNL     1      32.448  -9.906 -21.450  0.00  0.00    +0.002 C 
ATOM      4  C   UNL     1      32.116 -10.995 -22.472  0.00  0.00    +0.001 C 
ATOM      5  C   UNL     1      33.222 -10.987 -23.574  0.00  0.00    +0.004 C 
ATOM      6  C   UNL     1      33.590  -8.477 -23.156  0.00  0.00    +0.002 C 
ATOM      7  C   UNL     1      32.786  -7.664 -20.828  0.00  0.00    +0.110 C 
ATOM      8  C   UNL     1      31.550  -9.712 -20.230  0.00  0.00    +0.003 C 
ATOM      9  C   UNL     1      33.388  -9.587 -24.206  0.00  0.00    +0.000 C 
ATOM     10  C   UNL     1      32.903 -12.112 -24.587  0.00  0.00    +0.019 C 
ATOM     11  C   UNL     1      31.880  -8.287 -19.748  0.00  0.00    +0.029 C 
ATOM     12  C   UNL     1      31.907 -12.392 -21.851  0.00  0.00    +0.004 C 
ATOM     13  C   UNL     1      32.849 -13.469 -22.388  0.00  0.00    +0.022 C 
ATOM     14  C   UNL     1      32.977 -13.462 -23.891  0.00  0.00    -0.042 C 
ATOM     15  C   UNL     1      33.802 -12.117 -25.829  0.00  0.00    +0.012 C 
ATOM     16  C   UNL     1      33.439 -13.274 -26.753  0.00  0.00    +0.069 C 
ATOM     17  C   UNL     1      33.210 -14.605 -24.556  0.00  0.00    +0.029 C 
ATOM     18  C   UNL     1      33.420 -14.598 -26.024  0.00  0.00    +0.173 C 
ENDROOT
BRANCH   7  19
ATOM     19  O   UNL     1      32.525  -6.286 -21.002  0.00  0.00    -0.384 OA
ATOM     20  H   UNL     1      31.567  -6.142 -21.055  0.00  0.00    +0.210 HD
ENDBRANCH   7  19
BRANCH   2  21
ATOM     21  C   UNL     1      31.151  -8.039 -22.730  0.00  0.00    +0.002 C 
ATOM     22  C   UNL     1      31.410  -7.057 -23.845  0.00  0.00    +0.000 C 
ENDBRANCH   2  21
TORSDOF 2
ENDMDL
MODEL 4
REMARK VINA RESULT:      -8.8      3.527      8.574
REMARK  Name = 10039774
REMARK  2 active torsions:
REMARK  status: ('A' for Active; 'I' for Inactive)
REMARK    1  A    between atoms: C_2  and  C_21
REMARK    2  A    between atoms: C_7  and  O_19
REMARK                            x       y       z     vdW  Elec       q    Type
REMARK                         _______ _______ _______ _____ _____    ______ ____
ROOT
ATOM      1  O   UNL     1      31.072  -9.750 -22.208  0.00  0.00    -0.291 OA
ATOM      2  C   UNL     1      34.630 -17.510 -21.838  0.00  0.00    +0.025 C 
ATOM      3  C   UNL     1      34.793 -16.574 -23.056  0.00  0.00    +0.002 C 
ATOM      4  C   UNL     1      33.674 -15.533 -23.138  0.00  0.00    +0.001 C 
ATOM      5  C   UNL     1      33.720 -14.663 -21.841  0.00  0.00    +0.004 C 
ATOM      6  C   UNL     1      34.699 -16.665 -20.559  0.00  0.00    +0.002 C 
ATOM      7  C   UNL     1      35.842 -18.433 -22.072  0.00  0.00    +0.110 C 
ATOM      8  C   UNL     1      35.011 -17.543 -24.216  0.00  0.00    +0.003 C 
ATOM      9  C   UNL     1      33.652 -15.534 -20.566  0.00  0.00    +0.000 C 
ATOM     10  C   UNL     1      32.611 -13.588 -21.941  0.00  0.00    +0.019 C 
ATOM     11  C   UNL     1      35.820 -18.695 -23.591  0.00  0.00    +0.029 C 
ATOM     12  C   UNL     1      33.705 -14.682 -24.424  0.00  0.00    +0.004 C 
ATOM     13  C   UNL     1      33.828 -13.178 -24.184  0.00  0.00    +0.022 C 
ATOM     14  C   UNL     1      32.902 -12.662 -23.110  0.00  0.00    -0.042 C 
ATOM     15  C   UNL     1      32.411 -12.767 -20.662  0.00  0.00    +0.012 C 
ATOM     16  C   UNL     1      31.325 -11.715 -20.862  0.00  0.00    +0.069 C 
ATOM     17  C   UNL     1      32.421 -11.410 -23.176  0.00  0.00    +0.029 C 
ATOM     18  C   UNL     1      31.577 -10.864 -22.085  0.00  0.00    +0.173 C 
ENDROOT
BRANCH   7  19
ATOM     19  O   UNL     1      35.776 -19.634 -21.330  0.00  0.00    -0.384 OA
ATOM     20  H   UNL     1      34.928 -19.678 -20.860  0.00  0.00    +0.210 HD
ENDBRANCH   7  19
BRANCH   2  21
ATOM     21  C   UNL     1      33.321 -18.342 -21.826  0.00  0.00    +0.002 C 
ATOM     22  C   UNL     1      33.277 -19.244 -20.618  0.00  0.00    +0.000 C 
ENDBRANCH   2  21
TORSDOF 2
ENDMDL
MODEL 5
REMARK VINA RESULT:      -7.8     15.153     17.330
REMARK  Name = 10039774
REMARK  2 active torsions:
REMARK  status: ('A' for Active; 'I' for Inactive)
REMARK    1  A    between atoms: C_2  and  C_21
REMARK    2  A    between atoms: C_7  and  O_19
REMARK                            x       y       z     vdW  Elec       q    Type
REMARK                         _______ _______ _______ _____ _____    ______ ____
ROOT
ATOM      1  O   UNL     1      27.730 -23.118 -15.544  0.00  0.00    -0.291 OA
ATOM      2  C   UNL     1      36.238 -23.835 -15.205  0.00  0.00    +0.025 C 
ATOM      3  C   UNL     1      35.299 -24.556 -14.212  0.00  0.00    +0.002 C 
ATOM      4  C   UNL     1      33.931 -23.876 -14.114  0.00  0.00    +0.001 C 
ATOM      5  C   UNL     1      33.267 -23.906 -15.527  0.00  0.00    +0.004 C 
ATOM      6  C   UNL     1      35.603 -23.882 -16.601  0.00  0.00    +0.002 C 
ATOM      7  C   UNL     1      37.496 -24.709 -15.034  0.00  0.00    +0.110 C 
ATOM      8  C   UNL     1      36.161 -24.706 -12.961  0.00  0.00    +0.003 C 
ATOM      9  C   UNL     1      34.184 -23.280 -16.602  0.00  0.00    +0.000 C 
ATOM     10  C   UNL     1      31.870 -23.250 -15.418  0.00  0.00    +0.019 C 
ATOM     11  C   UNL     1      37.579 -24.944 -13.513  0.00  0.00    +0.029 C 
ATOM     12  C   UNL     1      33.019 -24.464 -13.017  0.00  0.00    +0.004 C 
ATOM     13  C   UNL     1      31.684 -25.004 -13.529  0.00  0.00    +0.022 C 
ATOM     14  C   UNL     1      30.989 -24.076 -14.494  0.00  0.00    -0.042 C 
ATOM     15  C   UNL     1      31.164 -23.042 -16.763  0.00  0.00    +0.012 C 
ATOM     16  C   UNL     1      29.785 -22.423 -16.558  0.00  0.00    +0.069 C 
ATOM     17  C   UNL     1      29.648 -24.047 -14.559  0.00  0.00    +0.029 C 
ATOM     18  C   UNL     1      28.957 -23.200 -15.561  0.00  0.00    +0.173 C 
ENDROOT
BRANCH   7  19
ATOM     19  O   UNL     1      38.668 -24.098 -15.536  0.00  0.00    -0.384 OA
ATOM     20  H   UNL     1      38.438 -23.521 -16.281  0.00  0.00    +0.210 HD
ENDBRANCH   7  19
BRANCH   2  21
ATOM     21  C   UNL     1      36.560 -22.361 -14.844  0.00  0.00    +0.002 C 
ATOM     22  C   UNL     1      37.085 -21.623 -16.049  0.00  0.00    +0.000 C 
ENDBRANCH   2  21
TORSDOF 2
ENDMDL
MODEL 6
REMARK VINA RESULT:      -7.7      2.152      4.054
REMARK  Name = 10039774
REMARK  2 active torsions:
REMARK  status: ('A' for Active; 'I' for Inactive)
REMARK    1  A    between atoms: C_2  and  C_21
REMARK    2  A    between atoms: C_7  and  O_19
REMARK                            x       y       z     vdW  Elec       q    Type
REMARK                         _______ _______ _______ _____ _____    ______ ____
ROOT
ATOM      1  O   UNL     1      34.227 -17.319 -25.206  0.00  0.00    -0.291 OA
ATOM      2  C   UNL     1      32.151  -9.672 -22.005  0.00  0.00    +0.025 C 
ATOM      3  C   UNL     1      32.403 -10.910 -21.115  0.00  0.00    +0.002 C 
ATOM      4  C   UNL     1      32.216 -12.221 -21.883  0.00  0.00    +0.001 C 
ATOM      5  C   UNL     1      33.240 -12.248 -23.062  0.00  0.00    +0.004 C 
ATOM      6  C   UNL     1      33.171  -9.680 -23.152  0.00  0.00    +0.002 C 
ATOM      7  C   UNL     1      32.365  -8.566 -20.954  0.00  0.00    +0.110 C 
ATOM      8  C   UNL     1      31.554 -10.630 -19.877  0.00  0.00    +0.003 C 
ATOM      9  C   UNL     1      33.115 -10.994 -23.956  0.00  0.00    +0.000 C 
ATOM     10  C   UNL     1      33.074 -13.590 -23.815  0.00  0.00    +0.019 C 
ATOM     11  C   UNL     1      31.648  -9.103 -19.700  0.00  0.00    +0.029 C 
ATOM     12  C   UNL     1      32.298 -13.481 -20.996  0.00  0.00    +0.004 C 
ATOM     13  C   UNL     1      33.388 -14.472 -21.406  0.00  0.00    +0.022 C 
ATOM     14  C   UNL     1      33.428 -14.743 -22.890  0.00  0.00    -0.042 C 
ATOM     15  C   UNL     1      33.887 -13.691 -25.110  0.00  0.00    +0.012 C 
ATOM     16  C   UNL     1      33.689 -15.053 -25.766  0.00  0.00    +0.069 C 
ATOM     17  C   UNL     1      33.827 -15.940 -23.349  0.00  0.00    +0.029 C 
ATOM     18  C   UNL     1      33.950 -16.190 -24.805  0.00  0.00    +0.173 C 
ENDROOT
BRANCH   7  19
ATOM     19  O   UNL     1      31.850  -7.312 -21.357  0.00  0.00    -0.384 OA
ATOM     20  H   UNL     1      30.919  -7.244 -21.091  0.00  0.00    +0.210 HD
ENDBRANCH   7  19
BRANCH   2  21
ATOM     21  C   UNL     1      30.721  -9.577 -22.598  0.00  0.00    +0.002 C 
ATOM     22  C   UNL     1      30.661  -8.514 -23.666  0.00  0.00    +0.000 C 
ENDBRANCH   2  21
TORSDOF 2
ENDMDL
MODEL 7
REMARK VINA RESULT:      -7.7     12.800     16.938
REMARK  Name = 10039774
REMARK  2 active torsions:
REMARK  status: ('A' for Active; 'I' for Inactive)
REMARK    1  A    between atoms: C_2  and  C_21
REMARK    2  A    between atoms: C_7  and  O_19
REMARK                            x       y       z     vdW  Elec       q    Type
REMARK                         _______ _______ _______ _____ _____    ______ ____
ROOT
ATOM      1  O   UNL     1      34.951 -20.753 -21.074  0.00  0.00    -0.291 OA
ATOM      2  C   UNL     1      35.745 -24.455 -13.413  0.00  0.00    +0.025 C 
ATOM      3  C   UNL     1      36.798 -23.477 -13.982  0.00  0.00    +0.002 C 
ATOM      4  C   UNL     1      36.734 -23.383 -15.508  0.00  0.00    +0.001 C 
ATOM      5  C   UNL     1      35.316 -22.863 -15.907  0.00  0.00    +0.004 C 
ATOM      6  C   UNL     1      34.348 -23.936 -13.781  0.00  0.00    +0.002 C 
ATOM      7  C   UNL     1      36.101 -24.357 -11.917  0.00  0.00    +0.110 C 
ATOM      8  C   UNL     1      38.092 -23.924 -13.305  0.00  0.00    +0.003 C 
ATOM      9  C   UNL     1      34.196 -23.738 -15.302  0.00  0.00    +0.000 C 
ATOM     10  C   UNL     1      35.265 -22.735 -17.448  0.00  0.00    +0.019 C 
ATOM     11  C   UNL     1      37.642 -24.370 -11.901  0.00  0.00    +0.029 C 
ATOM     12  C   UNL     1      37.870 -22.545 -16.131  0.00  0.00    +0.004 C 
ATOM     13  C   UNL     1      37.394 -21.353 -16.960  0.00  0.00    +0.022 C 
ATOM     14  C   UNL     1      36.269 -21.690 -17.908  0.00  0.00    -0.042 C 
ATOM     15  C   UNL     1      33.877 -22.406 -18.008  0.00  0.00    +0.012 C 
ATOM     16  C   UNL     1      33.927 -22.266 -19.526  0.00  0.00    +0.069 C 
ATOM     17  C   UNL     1      36.145 -21.033 -19.072  0.00  0.00    +0.029 C 
ATOM     18  C   UNL     1      34.997 -21.297 -19.972  0.00  0.00    +0.173 C 
ENDROOT
BRANCH   7  19
ATOM     19  O   UNL     1      35.558 -25.413 -11.149  0.00  0.00    -0.384 OA
ATOM     20  H   UNL     1      35.891 -26.260 -11.483  0.00  0.00    +0.210 HD
ENDBRANCH   7  19
BRANCH   2  21
ATOM     21  C   UNL     1      35.886 -25.920 -13.901  0.00  0.00    +0.002 C 
ATOM     22  C   UNL     1      36.903 -26.013 -15.011  0.00  0.00    +0.000 C 
ENDBRANCH   2  21
TORSDOF 2
ENDMDL
MODEL 8
REMARK VINA RESULT:      -7.6      3.563      5.068
REMARK  Name = 10039774
REMARK  2 active torsions:
REMARK  status: ('A' for Active; 'I' for Inactive)
REMARK    1  A    between atoms: C_2  and  C_21
REMARK    2  A    between atoms: C_7  and  O_19
REMARK                            x       y       z     vdW  Elec       q    Type
REMARK                         _______ _______ _______ _____ _____    ______ ____
ROOT
ATOM      1  O   UNL     1      32.532  -8.671 -19.501  0.00  0.00    -0.291 OA
ATOM      2  C   UNL     1      32.367  -3.842 -26.549  0.00  0.00    +0.025 C 
ATOM      3  C   UNL     1      33.208  -5.135 -26.441  0.00  0.00    +0.002 C 
ATOM      4  C   UNL     1      33.510  -5.507 -24.987  0.00  0.00    +0.001 C 
ATOM      5  C   UNL     1      32.153  -5.741 -24.250  0.00  0.00    +0.004 C 
ATOM      6  C   UNL     1      31.022  -4.074 -25.847  0.00  0.00    +0.002 C 
ATOM      7  C   UNL     1      32.287  -3.727 -28.083  0.00  0.00    +0.110 C 
ATOM      8  C   UNL     1      34.358  -4.886 -27.414  0.00  0.00    +0.003 C 
ATOM      9  C   UNL     1      31.212  -4.523 -24.385  0.00  0.00    +0.000 C 
ATOM     10  C   UNL     1      32.462  -6.152 -22.790  0.00  0.00    +0.019 C 
ATOM     11  C   UNL     1      33.712  -4.080 -28.556  0.00  0.00    +0.029 C 
ATOM     12  C   UNL     1      34.481  -6.697 -24.837  0.00  0.00    +0.004 C 
ATOM     13  C   UNL     1      33.913  -7.879 -24.052  0.00  0.00    +0.022 C 
ATOM     14  C   UNL     1      33.210  -7.475 -22.779  0.00  0.00    -0.042 C 
ATOM     15  C   UNL     1      31.228  -6.243 -21.886  0.00  0.00    +0.012 C 
ATOM     16  C   UNL     1      31.621  -6.684 -20.480  0.00  0.00    +0.069 C 
ATOM     17  C   UNL     1      33.205  -8.298 -21.718  0.00  0.00    +0.029 C 
ATOM     18  C   UNL     1      32.448  -7.949 -20.492  0.00  0.00    +0.173 C 
ENDROOT
BRANCH   7  19
ATOM     19  O   UNL     1      31.890  -2.444 -28.523  0.00  0.00    -0.384 OA
ATOM     20  H   UNL     1      32.381  -2.210 -29.326  0.00  0.00    +0.210 HD
ENDBRANCH   7  19
BRANCH   2  21
ATOM     21  C   UNL     1      33.039  -2.577 -25.953  0.00  0.00    +0.002 C 
ATOM     22  C   UNL     1      32.047  -1.786 -25.138  0.00  0.00    +0.000 C 
ENDBRANCH   2  21
TORSDOF 2
ENDMDL
MODEL 9
REMARK VINA RESULT:      -7.4     14.763     16.851
REMARK  Name = 10039774
REMARK  2 active torsions:
REMARK  status: ('A' for Active; 'I' for Inactive)
REMARK    1  A    between atoms: C_2  and  C_21
REMARK    2  A    between atoms: C_7  and  O_19
REMARK                            x       y       z     vdW  Elec       q    Type
REMARK                         _______ _______ _______ _____ _____    ______ ____
ROOT
ATOM      1  O   UNL     1      38.380 -22.073 -16.407  0.00  0.00    -0.291 OA
ATOM      2  C   UNL     1      30.347 -24.462 -14.742  0.00  0.00    +0.025 C 
ATOM      3  C   UNL     1      30.805 -23.989 -16.140  0.00  0.00    +0.002 C 
ATOM      4  C   UNL     1      32.068 -23.127 -16.073  0.00  0.00    +0.001 C 
ATOM      5  C   UNL     1      33.213 -23.984 -15.445  0.00  0.00    +0.004 C 
ATOM      6  C   UNL     1      31.458 -25.326 -14.129  0.00  0.00    +0.002 C 
ATOM      7  C   UNL     1      29.075 -25.232 -15.146  0.00  0.00    +0.110 C 
ATOM      8  C   UNL     1      29.529 -23.417 -16.752  0.00  0.00    +0.003 C 
ATOM      9  C   UNL     1      32.802 -24.572 -14.076  0.00  0.00    +0.000 C 
ATOM     10  C   UNL     1      34.497 -23.121 -15.410  0.00  0.00    +0.019 C 
ATOM     11  C   UNL     1      28.413 -24.325 -16.202  0.00  0.00    +0.029 C 
ATOM     12  C   UNL     1      32.468 -22.500 -17.424  0.00  0.00    +0.004 C 
ATOM     13  C   UNL     1      33.869 -22.879 -17.905  0.00  0.00    +0.022 C 
ATOM     14  C   UNL     1      34.922 -22.781 -16.830  0.00  0.00    -0.042 C 
ATOM     15  C   UNL     1      35.668 -23.763 -14.656  0.00  0.00    +0.012 C 
ATOM     16  C   UNL     1      36.897 -22.861 -14.701  0.00  0.00    +0.069 C 
ATOM     17  C   UNL     1      36.188 -22.468 -17.148  0.00  0.00    +0.029 C 
ATOM     18  C   UNL     1      37.248 -22.451 -16.112  0.00  0.00    +0.173 C 
ENDROOT
BRANCH   7  19
ATOM     19  O   UNL     1      28.212 -25.488 -14.056  0.00  0.00    -0.384 OA
ATOM     20  H   UNL     1      27.312 -25.643 -14.385  0.00  0.00    +0.210 HD
ENDBRANCH   7  19
BRANCH   2  21
ATOM     21  C   UNL     1      29.988 -23.321 -13.754  0.00  0.00    +0.002 C 
ATOM     22  C   UNL     1      30.432 -23.673 -12.356  0.00  0.00    +0.000 C 
ENDBRANCH   2  21
TORSDOF 2
ENDMDL
