MODEL 1
REMARK VINA RESULT:      -5.6      0.000      0.000
REMARK  Name = 6027
REMARK  4 active torsions:
REMARK  status: ('A' for Active; 'I' for Inactive)
REMARK    1  A    between atoms: C_2  and  O_7
REMARK    2  A    between atoms: C_3  and  O_9
REMARK    3  A    between atoms: C_4  and  O_11
REMARK    4  A    between atoms: C_5  and  O_13
REMARK                            x       y       z     vdW  Elec       q    Type
REMARK                         _______ _______ _______ _____ _____    ______ ____
ROOT
ATOM      1  O   UNL     1      37.569 -23.087 -13.873  0.00  0.00    -0.326 OA
ATOM      2  C   UNL     1      36.547 -25.791 -13.723  0.00  0.00    +0.172 C 
ATOM      3  C   UNL     1      37.765 -25.412 -14.566  0.00  0.00    +0.196 C 
ATOM      4  C   UNL     1      36.342 -24.771 -12.600  0.00  0.00    +0.169 C 
ATOM      5  C   UNL     1      37.721 -23.946 -15.006  0.00  0.00    +0.262 C 
ATOM      6  C   UNL     1      36.375 -23.346 -13.139  0.00  0.00    +0.176 C 
ENDROOT
BRANCH   2   7
ATOM      7  O   UNL     1      36.788 -27.079 -13.153  0.00  0.00    -0.379 OA
ATOM      8  H   UNL     1      36.428 -27.106 -12.253  0.00  0.00    +0.211 HD
ENDBRANCH   2   7
BRANCH   3   9
ATOM      9  O   UNL     1      37.850 -26.247 -15.715  0.00  0.00    -0.378 OA
ATOM     10  H   UNL     1      38.296 -27.075 -15.480  0.00  0.00    +0.211 HD
ENDBRANCH   3   9
BRANCH   4  11
ATOM     11  O   UNL     1      35.084 -24.981 -11.970  0.00  0.00    -0.379 OA
ATOM     12  H   UNL     1      35.029 -25.898 -11.656  0.00  0.00    +0.211 HD
ENDBRANCH   4  11
BRANCH   5  13
ATOM     13  O   UNL     1      36.728 -23.704 -16.001  0.00  0.00    -0.358 OA
ATOM     14  H   UNL     1      36.709 -22.758 -16.217  0.00  0.00    +0.213 HD
ENDBRANCH   5  13
TORSDOF 4
ENDMDL
MODEL 2
REMARK VINA RESULT:      -5.6      1.662      3.360
REMARK  Name = 6027
REMARK  4 active torsions:
REMARK  status: ('A' for Active; 'I' for Inactive)
REMARK    1  A    between atoms: C_2  and  O_7
REMARK    2  A    between atoms: C_3  and  O_9
REMARK    3  A    between atoms: C_4  and  O_11
REMARK    4  A    between atoms: C_5  and  O_13
REMARK                            x       y       z     vdW  Elec       q    Type
REMARK                         _______ _______ _______ _____ _____    ______ ____
ROOT
ATOM      1  O   UNL     1      37.551 -22.742 -13.416  0.00  0.00    -0.326 OA
ATOM      2  C   UNL     1      35.922 -24.791 -12.181  0.00  0.00    +0.172 C 
ATOM      3  C   UNL     1      36.374 -23.533 -11.438  0.00  0.00    +0.196 C 
ATOM      4  C   UNL     1      35.928 -24.545 -13.691  0.00  0.00    +0.169 C 
ATOM      5  C   UNL     1      37.678 -22.971 -12.010  0.00  0.00    +0.262 C 
ATOM      6  C   UNL     1      37.246 -23.930 -14.144  0.00  0.00    +0.176 C 
ENDROOT
BRANCH   2   7
ATOM      7  O   UNL     1      34.593 -25.100 -11.756  0.00  0.00    -0.379 OA
ATOM      8  H   UNL     1      33.957 -24.706 -12.374  0.00  0.00    +0.211 HD
ENDBRANCH   2   7
BRANCH   3   9
ATOM      9  O   UNL     1      36.548 -23.812 -10.053  0.00  0.00    -0.378 OA
ATOM     10  H   UNL     1      36.470 -24.767  -9.904  0.00  0.00    +0.211 HD
ENDBRANCH   3   9
BRANCH   4  11
ATOM     11  O   UNL     1      35.744 -25.772 -14.389  0.00  0.00    -0.379 OA
ATOM     12  H   UNL     1      36.593 -26.066 -14.754  0.00  0.00    +0.211 HD
ENDBRANCH   4  11
BRANCH   5  13
ATOM     13  O   UNL     1      38.808 -23.783 -11.697  0.00  0.00    -0.358 OA
ATOM     14  H   UNL     1      39.490 -23.665 -12.377  0.00  0.00    +0.213 HD
ENDBRANCH   5  13
TORSDOF 4
ENDMDL
MODEL 3
REMARK VINA RESULT:      -5.6      1.926      2.162
REMARK  Name = 6027
REMARK  4 active torsions:
REMARK  status: ('A' for Active; 'I' for Inactive)
REMARK    1  A    between atoms: C_2  and  O_7
REMARK    2  A    between atoms: C_3  and  O_9
REMARK    3  A    between atoms: C_4  and  O_11
REMARK    4  A    between atoms: C_5  and  O_13
REMARK                            x       y       z     vdW  Elec       q    Type
REMARK                         _______ _______ _______ _____ _____    ______ ____
ROOT
ATOM      1  O   UNL     1      37.915 -23.641 -13.895  0.00  0.00    -0.326 OA
ATOM      2  C   UNL     1      36.736 -25.918 -15.237  0.00  0.00    +0.172 C 
ATOM      3  C   UNL     1      37.918 -26.045 -14.275  0.00  0.00    +0.196 C 
ATOM      4  C   UNL     1      35.949 -24.639 -14.943  0.00  0.00    +0.169 C 
ATOM      5  C   UNL     1      38.746 -24.760 -14.217  0.00  0.00    +0.262 C 
ATOM      6  C   UNL     1      36.875 -23.433 -14.847  0.00  0.00    +0.176 C 
ENDROOT
BRANCH   2   7
ATOM      7  O   UNL     1      35.886 -27.051 -15.044  0.00  0.00    -0.379 OA
ATOM      8  H   UNL     1      35.546 -27.349 -15.903  0.00  0.00    +0.211 HD
ENDBRANCH   2   7
BRANCH   3   9
ATOM      9  O   UNL     1      38.756 -27.129 -14.661  0.00  0.00    -0.378 OA
ATOM     10  H   UNL     1      39.578 -26.783 -15.040  0.00  0.00    +0.211 HD
ENDBRANCH   3   9
BRANCH   4  11
ATOM     11  O   UNL     1      35.004 -24.396 -15.979  0.00  0.00    -0.379 OA
ATOM     12  H   UNL     1      34.646 -25.240 -16.295  0.00  0.00    +0.211 HD
ENDBRANCH   4  11
BRANCH   5  13
ATOM     13  O   UNL     1      39.503 -24.542 -15.407  0.00  0.00    -0.358 OA
ATOM     14  H   UNL     1      39.972 -23.696 -15.342  0.00  0.00    +0.213 HD
ENDBRANCH   5  13
TORSDOF 4
ENDMDL
MODEL 4
REMARK VINA RESULT:      -5.6      1.757      2.765
REMARK  Name = 6027
REMARK  4 active torsions:
REMARK  status: ('A' for Active; 'I' for Inactive)
REMARK    1  A    between atoms: C_2  and  O_7
REMARK    2  A    between atoms: C_3  and  O_9
REMARK    3  A    between atoms: C_4  and  O_11
REMARK    4  A    between atoms: C_5  and  O_13
REMARK                            x       y       z     vdW  Elec       q    Type
REMARK                         _______ _______ _______ _____ _____    ______ ____
ROOT
ATOM      1  O   UNL     1      35.345 -24.613 -13.398  0.00  0.00    -0.326 OA
ATOM      2  C   UNL     1      37.808 -24.089 -11.971  0.00  0.00    +0.172 C 
ATOM      3  C   UNL     1      37.735 -24.167 -13.497  0.00  0.00    +0.196 C 
ATOM      4  C   UNL     1      36.433 -23.746 -11.393  0.00  0.00    +0.169 C 
ATOM      5  C   UNL     1      36.580 -25.053 -13.969  0.00  0.00    +0.262 C 
ATOM      6  C   UNL     1      35.351 -24.647 -11.973  0.00  0.00    +0.176 C 
ENDROOT
BRANCH   2   7
ATOM      7  O   UNL     1      38.737 -23.061 -11.625  0.00  0.00    -0.379 OA
ATOM      8  H   UNL     1      38.647 -22.322 -12.247  0.00  0.00    +0.211 HD
ENDBRANCH   2   7
BRANCH   3   9
ATOM      9  O   UNL     1      38.959 -24.665 -14.026  0.00  0.00    -0.378 OA
ATOM     10  H   UNL     1      39.696 -24.368 -13.470  0.00  0.00    +0.211 HD
ENDBRANCH   3   9
BRANCH   4  11
ATOM     11  O   UNL     1      36.441 -23.910  -9.979  0.00  0.00    -0.379 OA
ATOM     12  H   UNL     1      37.328 -24.178  -9.690  0.00  0.00    +0.211 HD
ENDBRANCH   4  11
BRANCH   5  13
ATOM     13  O   UNL     1      36.821 -26.439 -13.728  0.00  0.00    -0.358 OA
ATOM     14  H   UNL     1      36.011 -26.854 -13.392  0.00  0.00    +0.213 HD
ENDBRANCH   5  13
TORSDOF 4
ENDMDL
MODEL 5
REMARK VINA RESULT:      -5.5      1.560      2.842
REMARK  Name = 6027
REMARK  4 active torsions:
REMARK  status: ('A' for Active; 'I' for Inactive)
REMARK    1  A    between atoms: C_2  and  O_7
REMARK    2  A    between atoms: C_3  and  O_9
REMARK    3  A    between atoms: C_4  and  O_11
REMARK    4  A    between atoms: C_5  and  O_13
REMARK                            x       y       z     vdW  Elec       q    Type
REMARK                         _______ _______ _______ _____ _____    ______ ____
ROOT
ATOM      1  O   UNL     1      36.011 -24.773 -13.500  0.00  0.00    -0.326 OA
ATOM      2  C   UNL     1      38.332 -25.943 -14.774  0.00  0.00    +0.172 C 
ATOM      3  C   UNL     1      38.413 -25.161 -13.462  0.00  0.00    +0.196 C 
ATOM      4  C   UNL     1      36.919 -26.494 -14.975  0.00  0.00    +0.169 C 
ATOM      5  C   UNL     1      37.282 -24.138 -13.337  0.00  0.00    +0.262 C 
ATOM      6  C   UNL     1      35.870 -25.408 -14.769  0.00  0.00    +0.176 C 
ENDROOT
BRANCH   2   7
ATOM      7  O   UNL     1      39.257 -27.029 -14.699  0.00  0.00    -0.379 OA
ATOM      8  H   UNL     1      39.125 -27.619 -15.457  0.00  0.00    +0.211 HD
ENDBRANCH   2   7
BRANCH   3   9
ATOM      9  O   UNL     1      39.667 -24.494 -13.361  0.00  0.00    -0.378 OA
ATOM     10  H   UNL     1      40.250 -24.793 -14.075  0.00  0.00    +0.211 HD
ENDBRANCH   3   9
BRANCH   4  11
ATOM     11  O   UNL     1      36.776 -27.008 -16.294  0.00  0.00    -0.379 OA
ATOM     12  H   UNL     1      35.879 -26.827 -16.617  0.00  0.00    +0.211 HD
ENDBRANCH   4  11
BRANCH   5  13
ATOM     13  O   UNL     1      37.448 -23.029 -14.220  0.00  0.00    -0.358 OA
ATOM     14  H   UNL     1      38.319 -22.628 -14.075  0.00  0.00    +0.213 HD
ENDBRANCH   5  13
TORSDOF 4
ENDMDL
MODEL 6
REMARK VINA RESULT:      -5.5      1.360      3.419
REMARK  Name = 6027
REMARK  4 active torsions:
REMARK  status: ('A' for Active; 'I' for Inactive)
REMARK    1  A    between atoms: C_2  and  O_7
REMARK    2  A    between atoms: C_3  and  O_9
REMARK    3  A    between atoms: C_4  and  O_11
REMARK    4  A    between atoms: C_5  and  O_13
REMARK                            x       y       z     vdW  Elec       q    Type
REMARK                         _______ _______ _______ _____ _____    ______ ____
ROOT
ATOM      1  O   UNL     1      37.176 -25.031 -11.600  0.00  0.00    -0.326 OA
ATOM      2  C   UNL     1      36.661 -24.933 -14.446  0.00  0.00    +0.172 C 
ATOM      3  C   UNL     1      36.307 -23.784 -13.501  0.00  0.00    +0.196 C 
ATOM      4  C   UNL     1      37.772 -25.793 -13.841  0.00  0.00    +0.169 C 
ATOM      5  C   UNL     1      36.057 -24.277 -12.074  0.00  0.00    +0.262 C 
ATOM      6  C   UNL     1      37.449 -26.177 -12.402  0.00  0.00    +0.176 C 
ENDROOT
BRANCH   2   7
ATOM      7  O   UNL     1      37.117 -24.367 -15.677  0.00  0.00    -0.379 OA
ATOM      8  H   UNL     1      36.466 -23.724 -15.998  0.00  0.00    +0.211 HD
ENDBRANCH   2   7
BRANCH   3   9
ATOM      9  O   UNL     1      35.155 -23.094 -13.971  0.00  0.00    -0.378 OA
ATOM     10  H   UNL     1      34.401 -23.292 -13.393  0.00  0.00    +0.211 HD
ENDBRANCH   3   9
BRANCH   4  11
ATOM     11  O   UNL     1      37.933 -26.989 -14.597  0.00  0.00    -0.379 OA
ATOM     12  H   UNL     1      37.744 -27.755 -14.033  0.00  0.00    +0.211 HD
ENDBRANCH   4  11
BRANCH   5  13
ATOM     13  O   UNL     1      34.832 -24.997 -11.951  0.00  0.00    -0.358 OA
ATOM     14  H   UNL     1      34.647 -25.465 -12.781  0.00  0.00    +0.213 HD
ENDBRANCH   5  13
TORSDOF 4
ENDMDL
MODEL 7
REMARK VINA RESULT:      -5.5      1.924      2.836
REMARK  Name = 6027
REMARK  4 active torsions:
REMARK  status: ('A' for Active; 'I' for Inactive)
REMARK    1  A    between atoms: C_2  and  O_7
REMARK    2  A    between atoms: C_3  and  O_9
REMARK    3  A    between atoms: C_4  and  O_11
REMARK    4  A    between atoms: C_5  and  O_13
REMARK                            x       y       z     vdW  Elec       q    Type
REMARK                         _______ _______ _______ _____ _____    ______ ____
ROOT
ATOM      1  O   UNL     1      37.190 -24.699 -11.056  0.00  0.00    -0.326 OA
ATOM      2  C   UNL     1      36.095 -23.721 -13.550  0.00  0.00    +0.172 C 
ATOM      3  C   UNL     1      37.504 -24.306 -13.437  0.00  0.00    +0.196 C 
ATOM      4  C   UNL     1      35.213 -24.241 -12.413  0.00  0.00    +0.169 C 
ATOM      5  C   UNL     1      38.078 -24.141 -12.028  0.00  0.00    +0.262 C 
ATOM      6  C   UNL     1      35.904 -24.084 -11.064  0.00  0.00    +0.176 C 
ENDROOT
BRANCH   2   7
ATOM      7  O   UNL     1      35.545 -24.134 -14.803  0.00  0.00    -0.379 OA
ATOM      8  H   UNL     1      34.648 -23.776 -14.895  0.00  0.00    +0.211 HD
ENDBRANCH   2   7
BRANCH   3   9
ATOM      9  O   UNL     1      38.373 -23.686 -14.377  0.00  0.00    -0.378 OA
ATOM     10  H   UNL     1      38.253 -22.724 -14.343  0.00  0.00    +0.211 HD
ENDBRANCH   3   9
BRANCH   4  11
ATOM     11  O   UNL     1      33.987 -23.519 -12.373  0.00  0.00    -0.379 OA
ATOM     12  H   UNL     1      33.634 -23.433 -13.273  0.00  0.00    +0.211 HD
ENDBRANCH   4  11
BRANCH   5  13
ATOM     13  O   UNL     1      38.419 -22.788 -11.732  0.00  0.00    -0.358 OA
ATOM     14  H   UNL     1      38.072 -22.551 -10.857  0.00  0.00    +0.213 HD
ENDBRANCH   5  13
TORSDOF 4
ENDMDL
MODEL 8
REMARK VINA RESULT:      -5.5      1.380      3.219
REMARK  Name = 6027
REMARK  4 active torsions:
REMARK  status: ('A' for Active; 'I' for Inactive)
REMARK    1  A    between atoms: C_2  and  O_7
REMARK    2  A    between atoms: C_3  and  O_9
REMARK    3  A    between atoms: C_4  and  O_11
REMARK    4  A    between atoms: C_5  and  O_13
REMARK                            x       y       z     vdW  Elec       q    Type
REMARK                         _______ _______ _______ _____ _____    ______ ____
ROOT
ATOM      1  O   UNL     1      37.088 -23.142 -13.964  0.00  0.00    -0.326 OA
ATOM      2  C   UNL     1      37.529 -25.497 -12.340  0.00  0.00    +0.172 C 
ATOM      3  C   UNL     1      36.629 -24.342 -11.897  0.00  0.00    +0.196 C 
ATOM      4  C   UNL     1      37.656 -25.514 -13.865  0.00  0.00    +0.169 C 
ATOM      5  C   UNL     1      37.044 -23.017 -12.539  0.00  0.00    +0.262 C 
ATOM      6  C   UNL     1      38.013 -24.133 -14.403  0.00  0.00    +0.176 C 
ENDROOT
BRANCH   2   7
ATOM      7  O   UNL     1      36.929 -26.718 -11.902  0.00  0.00    -0.379 OA
ATOM      8  H   UNL     1      36.252 -26.523 -11.236  0.00  0.00    +0.211 HD
ENDBRANCH   2   7
BRANCH   3   9
ATOM      9  O   UNL     1      36.657 -24.209 -10.480  0.00  0.00    -0.378 OA
ATOM     10  H   UNL     1      35.759 -24.309 -10.129  0.00  0.00    +0.211 HD
ENDBRANCH   3   9
BRANCH   4  11
ATOM     11  O   UNL     1      38.674 -26.425 -14.263  0.00  0.00    -0.379 OA
ATOM     12  H   UNL     1      39.049 -26.853 -13.477  0.00  0.00    +0.211 HD
ENDBRANCH   4  11
BRANCH   5  13
ATOM     13  O   UNL     1      38.267 -22.510 -12.006  0.00  0.00    -0.358 OA
ATOM     14  H   UNL     1      38.819 -23.248 -11.703  0.00  0.00    +0.213 HD
ENDBRANCH   5  13
TORSDOF 4
ENDMDL
MODEL 9
REMARK VINA RESULT:      -5.5      9.757     11.493
REMARK  Name = 6027
REMARK  4 active torsions:
REMARK  status: ('A' for Active; 'I' for Inactive)
REMARK    1  A    between atoms: C_2  and  O_7
REMARK    2  A    between atoms: C_3  and  O_9
REMARK    3  A    between atoms: C_4  and  O_11
REMARK    4  A    between atoms: C_5  and  O_13
REMARK                            x       y       z     vdW  Elec       q    Type
REMARK                         _______ _______ _______ _____ _____    ______ ____
ROOT
ATOM      1  O   UNL     1      43.288 -15.873 -16.399  0.00  0.00    -0.326 OA
ATOM      2  C   UNL     1      40.972 -14.361 -15.546  0.00  0.00    +0.172 C 
ATOM      3  C   UNL     1      41.122 -15.862 -15.290  0.00  0.00    +0.196 C 
ATOM      4  C   UNL     1      42.347 -13.719 -15.743  0.00  0.00    +0.169 C 
ATOM      5  C   UNL     1      42.020 -16.531 -16.333  0.00  0.00    +0.262 C 
ATOM      6  C   UNL     1      43.179 -14.497 -16.754  0.00  0.00    +0.176 C 
ENDROOT
BRANCH   2   7
ATOM      7  O   UNL     1      40.337 -13.780 -14.405  0.00  0.00    -0.379 OA
ATOM      8  H   UNL     1      40.693 -14.184 -13.597  0.00  0.00    +0.211 HD
ENDBRANCH   2   7
BRANCH   3   9
ATOM      9  O   UNL     1      39.846 -16.493 -15.291  0.00  0.00    -0.378 OA
ATOM     10  H   UNL     1      39.521 -16.562 -16.202  0.00  0.00    +0.211 HD
ENDBRANCH   3   9
BRANCH   4  11
ATOM     11  O   UNL     1      42.201 -12.384 -16.216  0.00  0.00    -0.379 OA
ATOM     12  H   UNL     1      42.899 -11.828 -15.835  0.00  0.00    +0.211 HD
ENDBRANCH   4  11
BRANCH   5  13
ATOM     13  O   UNL     1      41.395 -16.626 -17.612  0.00  0.00    -0.358 OA
ATOM     14  H   UNL     1      40.503 -16.247 -17.566  0.00  0.00    +0.213 HD
ENDBRANCH   5  13
TORSDOF 4
ENDMDL
