MODEL 1
REMARK VINA RESULT:      -8.0      0.000      0.000
REMARK  Name = 3672
REMARK  5 active torsions:
REMARK  status: ('A' for Active; 'I' for Inactive)
REMARK    1  A    between atoms: C_1  and  C_13
REMARK    2  A    between atoms: C_2  and  C_7
REMARK    3  A    between atoms: C_7  and  C_10
REMARK    4  A    between atoms: C_10  and  O_11
REMARK    5  A    between atoms: C_13  and  C_14
REMARK                            x       y       z     vdW  Elec       q    Type
REMARK                         _______ _______ _______ _____ _____    ______ ____
ROOT
ATOM      1  C   UNL     1      33.975 -21.921 -19.306  0.00  0.00    -0.022 C 
ATOM      2  C   UNL     1      34.270 -19.656 -20.877  0.00  0.00    -0.012 C 
ATOM      3  C   UNL     1      32.849 -21.210 -19.692  0.00  0.00    -0.005 C 
ATOM      4  C   UNL     1      35.246 -21.521 -19.690  0.00  0.00    -0.005 C 
ATOM      5  C   UNL     1      32.998 -20.071 -20.482  0.00  0.00    -0.004 C 
ATOM      6  C   UNL     1      35.394 -20.381 -20.481  0.00  0.00    -0.004 C 
ENDROOT
BRANCH   2   7
ATOM      7  C   UNL     1      34.430 -18.437 -21.721  0.00  0.00    +0.121 C 
ATOM      8  C   UNL     1      35.070 -17.244 -20.982  0.00  0.00    +0.016 C 
BRANCH   7  10
ATOM      9  O   UNL     1      34.841 -19.366 -23.941  0.00  0.00    -0.250 OA
ATOM     10  C   UNL     1      35.238 -18.699 -22.996  0.00  0.00    +0.317 C 
BRANCH  10  11
ATOM     11  O   UNL     1      36.467 -18.117 -22.977  0.00  0.00    -0.480 OA
ATOM     12  H   UNL     1      37.219 -18.619 -22.734  0.00  0.00    +0.295 HD
ENDBRANCH  10  11
ENDBRANCH   7  10
ENDBRANCH   2   7
BRANCH   1  13
ATOM     13  C   UNL     1      33.814 -23.155 -18.451  0.00  0.00    +0.026 C 
BRANCH  13  14
ATOM     14  C   UNL     1      33.471 -22.853 -16.980  0.00  0.00    +0.004 C 
ATOM     15  C   UNL     1      32.041 -23.268 -16.627  0.00  0.00    +0.000 C 
ATOM     16  C   UNL     1      34.460 -23.573 -16.059  0.00  0.00    +0.000 C 
ENDBRANCH  13  14
ENDBRANCH   1  13
TORSDOF 5
ENDMDL
MODEL 2
REMARK VINA RESULT:      -7.9      1.260      2.148
REMARK  Name = 3672
REMARK  5 active torsions:
REMARK  status: ('A' for Active; 'I' for Inactive)
REMARK    1  A    between atoms: C_1  and  C_13
REMARK    2  A    between atoms: C_2  and  C_7
REMARK    3  A    between atoms: C_7  and  C_10
REMARK    4  A    between atoms: C_10  and  O_11
REMARK    5  A    between atoms: C_13  and  C_14
REMARK                            x       y       z     vdW  Elec       q    Type
REMARK                         _______ _______ _______ _____ _____    ______ ____
ROOT
ATOM      1  C   UNL     1      34.141 -21.892 -19.346  0.00  0.00    -0.022 C 
ATOM      2  C   UNL     1      35.050 -19.738 -20.836  0.00  0.00    -0.012 C 
ATOM      3  C   UNL     1      35.505 -21.700 -19.501  0.00  0.00    -0.005 C 
ATOM      4  C   UNL     1      33.222 -21.028 -19.921  0.00  0.00    -0.005 C 
ATOM      5  C   UNL     1      35.962 -20.617 -20.251  0.00  0.00    -0.004 C 
ATOM      6  C   UNL     1      33.680 -19.944 -20.671  0.00  0.00    -0.004 C 
ENDROOT
BRANCH   2   7
ATOM      7  C   UNL     1      35.538 -18.580 -21.638  0.00  0.00    +0.121 C 
ATOM      8  C   UNL     1      35.299 -18.725 -23.155  0.00  0.00    +0.016 C 
BRANCH   7  10
ATOM      9  O   UNL     1      35.249 -16.658 -20.160  0.00  0.00    -0.250 OA
ATOM     10  C   UNL     1      34.934 -17.247 -21.185  0.00  0.00    +0.317 C 
BRANCH  10  11
ATOM     11  O   UNL     1      33.989 -16.771 -22.039  0.00  0.00    -0.480 OA
ATOM     12  H   UNL     1      34.242 -16.255 -22.778  0.00  0.00    +0.295 HD
ENDBRANCH  10  11
ENDBRANCH   7  10
ENDBRANCH   2   7
BRANCH   1  13
ATOM     13  C   UNL     1      33.647 -23.065 -18.534  0.00  0.00    +0.026 C 
BRANCH  13  14
ATOM     14  C   UNL     1      33.343 -22.720 -17.064  0.00  0.00    +0.004 C 
ATOM     15  C   UNL     1      31.919 -23.113 -16.664  0.00  0.00    +0.000 C 
ATOM     16  C   UNL     1      34.348 -23.422 -16.148  0.00  0.00    +0.000 C 
ENDBRANCH  13  14
ENDBRANCH   1  13
TORSDOF 5
ENDMDL
MODEL 3
REMARK VINA RESULT:      -7.9      2.863      6.262
REMARK  Name = 3672
REMARK  5 active torsions:
REMARK  status: ('A' for Active; 'I' for Inactive)
REMARK    1  A    between atoms: C_1  and  C_13
REMARK    2  A    between atoms: C_2  and  C_7
REMARK    3  A    between atoms: C_7  and  C_10
REMARK    4  A    between atoms: C_10  and  O_11
REMARK    5  A    between atoms: C_13  and  C_14
REMARK                            x       y       z     vdW  Elec       q    Type
REMARK                         _______ _______ _______ _____ _____    ______ ____
ROOT
ATOM      1  C   UNL     1      34.780 -18.636 -21.499  0.00  0.00    -0.022 C 
ATOM      2  C   UNL     1      35.204 -20.894 -19.947  0.00  0.00    -0.012 C 
ATOM      3  C   UNL     1      36.076 -19.000 -21.169  0.00  0.00    -0.005 C 
ATOM      4  C   UNL     1      33.691 -19.379 -21.068  0.00  0.00    -0.005 C 
ATOM      5  C   UNL     1      36.289 -20.135 -20.388  0.00  0.00    -0.004 C 
ATOM      6  C   UNL     1      33.906 -20.516 -20.288  0.00  0.00    -0.004 C 
ENDROOT
BRANCH   2   7
ATOM      7  C   UNL     1      35.432 -22.108 -19.111  0.00  0.00    +0.121 C 
ATOM      8  C   UNL     1      36.176 -21.826 -17.790  0.00  0.00    +0.016 C 
BRANCH   7  10
ATOM      9  O   UNL     1      33.380 -22.554 -17.866  0.00  0.00    -0.250 OA
ATOM     10  C   UNL     1      34.135 -22.853 -18.781  0.00  0.00    +0.317 C 
BRANCH  10  11
ATOM     11  O   UNL     1      33.899 -23.907 -19.608  0.00  0.00    -0.480 OA
ATOM     12  H   UNL     1      33.160 -24.462 -19.461  0.00  0.00    +0.295 HD
ENDBRANCH  10  11
ENDBRANCH   7  10
ENDBRANCH   2   7
BRANCH   1  13
ATOM     13  C   UNL     1      34.549 -17.408 -22.345  0.00  0.00    +0.026 C 
BRANCH  13  14
ATOM     14  C   UNL     1      35.056 -17.544 -23.793  0.00  0.00    +0.004 C 
ATOM     15  C   UNL     1      34.576 -18.841 -24.449  0.00  0.00    +0.000 C 
ATOM     16  C   UNL     1      34.589 -16.345 -24.621  0.00  0.00    +0.000 C 
ENDBRANCH  13  14
ENDBRANCH   1  13
TORSDOF 5
ENDMDL
MODEL 4
REMARK VINA RESULT:      -7.8      2.826      6.018
REMARK  Name = 3672
REMARK  5 active torsions:
REMARK  status: ('A' for Active; 'I' for Inactive)
REMARK    1  A    between atoms: C_1  and  C_13
REMARK    2  A    between atoms: C_2  and  C_7
REMARK    3  A    between atoms: C_7  and  C_10
REMARK    4  A    between atoms: C_10  and  O_11
REMARK    5  A    between atoms: C_13  and  C_14
REMARK                            x       y       z     vdW  Elec       q    Type
REMARK                         _______ _______ _______ _____ _____    ______ ____
ROOT
ATOM      1  C   UNL     1      35.185 -18.321 -21.630  0.00  0.00    -0.022 C 
ATOM      2  C   UNL     1      35.289 -20.686 -20.187  0.00  0.00    -0.012 C 
ATOM      3  C   UNL     1      34.016 -19.032 -21.406  0.00  0.00    -0.005 C 
ATOM      4  C   UNL     1      36.405 -18.769 -21.146  0.00  0.00    -0.005 C 
ATOM      5  C   UNL     1      34.069 -20.222 -20.681  0.00  0.00    -0.004 C 
ATOM      6  C   UNL     1      36.456 -19.959 -20.420  0.00  0.00    -0.004 C 
ENDROOT
BRANCH   2   7
ATOM      7  C   UNL     1      35.345 -21.959 -19.413  0.00  0.00    +0.121 C 
ATOM      8  C   UNL     1      36.046 -21.828 -18.045  0.00  0.00    +0.016 C 
BRANCH   7  10
ATOM      9  O   UNL     1      33.019 -21.989 -18.670  0.00  0.00    -0.250 OA
ATOM     10  C   UNL     1      33.962 -22.576 -19.184  0.00  0.00    +0.317 C 
BRANCH  10  11
ATOM     11  O   UNL     1      33.877 -23.867 -19.603  0.00  0.00    -0.480 OA
ATOM     12  H   UNL     1      34.636 -24.416 -19.586  0.00  0.00    +0.295 HD
ENDBRANCH  10  11
ENDBRANCH   7  10
ENDBRANCH   2   7
BRANCH   1  13
ATOM     13  C   UNL     1      35.129 -17.032 -22.414  0.00  0.00    +0.026 C 
BRANCH  13  14
ATOM     14  C   UNL     1      34.157 -15.990 -21.829  0.00  0.00    +0.004 C 
ATOM     15  C   UNL     1      34.563 -15.553 -20.420  0.00  0.00    +0.000 C 
ATOM     16  C   UNL     1      34.092 -14.768 -22.749  0.00  0.00    +0.000 C 
ENDBRANCH  13  14
ENDBRANCH   1  13
TORSDOF 5
ENDMDL
MODEL 5
REMARK VINA RESULT:      -7.7      2.718      4.396
REMARK  Name = 3672
REMARK  5 active torsions:
REMARK  status: ('A' for Active; 'I' for Inactive)
REMARK    1  A    between atoms: C_1  and  C_13
REMARK    2  A    between atoms: C_2  and  C_7
REMARK    3  A    between atoms: C_7  and  C_10
REMARK    4  A    between atoms: C_10  and  O_11
REMARK    5  A    between atoms: C_13  and  C_14
REMARK                            x       y       z     vdW  Elec       q    Type
REMARK                         _______ _______ _______ _____ _____    ______ ____
ROOT
ATOM      1  C   UNL     1      35.174 -19.008 -21.798  0.00  0.00    -0.022 C 
ATOM      2  C   UNL     1      34.713 -16.740 -23.325  0.00  0.00    -0.012 C 
ATOM      3  C   UNL     1      34.951 -19.140 -23.160  0.00  0.00    -0.005 C 
ATOM      4  C   UNL     1      35.172 -17.764 -21.185  0.00  0.00    -0.005 C 
ATOM      5  C   UNL     1      34.719 -17.999 -23.928  0.00  0.00    -0.004 C 
ATOM      6  C   UNL     1      34.940 -16.624 -21.954  0.00  0.00    -0.004 C 
ENDROOT
BRANCH   2   7
ATOM      7  C   UNL     1      34.463 -15.520 -24.146  0.00  0.00    +0.121 C 
ATOM      8  C   UNL     1      33.709 -15.797 -25.463  0.00  0.00    +0.016 C 
BRANCH   7  10
ATOM      9  O   UNL     1      32.590 -14.580 -22.894  0.00  0.00    -0.250 OA
ATOM     10  C   UNL     1      33.704 -14.434 -23.379  0.00  0.00    +0.317 C 
BRANCH  10  11
ATOM     11  O   UNL     1      34.390 -13.263 -23.292  0.00  0.00    -0.480 OA
ATOM     12  H   UNL     1      34.613 -12.792 -24.070  0.00  0.00    +0.295 HD
ENDBRANCH  10  11
ENDBRANCH   7  10
ENDBRANCH   2   7
BRANCH   1  13
ATOM     13  C   UNL     1      35.427 -20.242 -20.967  0.00  0.00    +0.026 C 
BRANCH  13  14
ATOM     14  C   UNL     1      34.312 -20.546 -19.949  0.00  0.00    +0.004 C 
ATOM     15  C   UNL     1      32.919 -20.433 -20.573  0.00  0.00    +0.000 C 
ATOM     16  C   UNL     1      34.505 -21.950 -19.371  0.00  0.00    +0.000 C 
ENDBRANCH  13  14
ENDBRANCH   1  13
TORSDOF 5
ENDMDL
MODEL 6
REMARK VINA RESULT:      -7.6      1.429      2.138
REMARK  Name = 3672
REMARK  5 active torsions:
REMARK  status: ('A' for Active; 'I' for Inactive)
REMARK    1  A    between atoms: C_1  and  C_13
REMARK    2  A    between atoms: C_2  and  C_7
REMARK    3  A    between atoms: C_7  and  C_10
REMARK    4  A    between atoms: C_10  and  O_11
REMARK    5  A    between atoms: C_13  and  C_14
REMARK                            x       y       z     vdW  Elec       q    Type
REMARK                         _______ _______ _______ _____ _____    ______ ____
ROOT
ATOM      1  C   UNL     1      34.947 -20.951 -19.930  0.00  0.00    -0.022 C 
ATOM      2  C   UNL     1      34.532 -18.593 -21.329  0.00  0.00    -0.012 C 
ATOM      3  C   UNL     1      36.039 -20.192 -20.322  0.00  0.00    -0.005 C 
ATOM      4  C   UNL     1      33.652 -20.554 -20.223  0.00  0.00    -0.005 C 
ATOM      5  C   UNL     1      35.830 -19.007 -21.026  0.00  0.00    -0.004 C 
ATOM      6  C   UNL     1      33.443 -19.367 -20.927  0.00  0.00    -0.004 C 
ENDROOT
BRANCH   2   7
ATOM      7  C   UNL     1      34.309 -17.326 -22.082  0.00  0.00    +0.121 C 
ATOM      8  C   UNL     1      34.751 -16.060 -21.320  0.00  0.00    +0.016 C 
BRANCH   7  10
ATOM      9  O   UNL     1      34.869 -18.206 -24.290  0.00  0.00    -0.250 OA
ATOM     10  C   UNL     1      34.992 -17.322 -23.453  0.00  0.00    +0.317 C 
BRANCH  10  11
ATOM     11  O   UNL     1      35.773 -16.227 -23.657  0.00  0.00    -0.480 OA
ATOM     12  H   UNL     1      36.567 -16.122 -23.172  0.00  0.00    +0.295 HD
ENDBRANCH  10  11
ENDBRANCH   7  10
ENDBRANCH   2   7
BRANCH   1  13
ATOM     13  C   UNL     1      35.173 -22.233 -19.167  0.00  0.00    +0.026 C 
BRANCH  13  14
ATOM     14  C   UNL     1      35.350 -22.033 -17.650  0.00  0.00    +0.004 C 
ATOM     15  C   UNL     1      34.597 -23.091 -16.840  0.00  0.00    +0.000 C 
ATOM     16  C   UNL     1      36.838 -22.071 -17.292  0.00  0.00    +0.000 C 
ENDBRANCH  13  14
ENDBRANCH   1  13
TORSDOF 5
ENDMDL
MODEL 7
REMARK VINA RESULT:      -7.5      4.038      6.722
REMARK  Name = 3672
REMARK  5 active torsions:
REMARK  status: ('A' for Active; 'I' for Inactive)
REMARK    1  A    between atoms: C_1  and  C_13
REMARK    2  A    between atoms: C_2  and  C_7
REMARK    3  A    between atoms: C_7  and  C_10
REMARK    4  A    between atoms: C_10  and  O_11
REMARK    5  A    between atoms: C_13  and  C_14
REMARK                            x       y       z     vdW  Elec       q    Type
REMARK                         _______ _______ _______ _____ _____    ______ ____
ROOT
ATOM      1  C   UNL     1      35.305 -21.760 -19.105  0.00  0.00    -0.022 C 
ATOM      2  C   UNL     1      35.605 -22.733 -16.526  0.00  0.00    -0.012 C 
ATOM      3  C   UNL     1      34.261 -22.457 -18.516  0.00  0.00    -0.005 C 
ATOM      4  C   UNL     1      36.496 -21.539 -18.430  0.00  0.00    -0.005 C 
ATOM      5  C   UNL     1      34.413 -22.947 -17.219  0.00  0.00    -0.004 C 
ATOM      6  C   UNL     1      36.646 -22.029 -17.132  0.00  0.00    -0.004 C 
ENDROOT
BRANCH   2   7
ATOM      7  C   UNL     1      35.767 -23.257 -15.140  0.00  0.00    +0.121 C 
ATOM      8  C   UNL     1      34.599 -24.149 -14.668  0.00  0.00    +0.016 C 
BRANCH   7  10
ATOM      9  O   UNL     1      38.038 -23.626 -14.321  0.00  0.00    -0.250 OA
ATOM     10  C   UNL     1      37.071 -24.038 -14.948  0.00  0.00    +0.317 C 
BRANCH  10  11
ATOM     11  O   UNL     1      37.061 -25.252 -15.561  0.00  0.00    -0.480 OA
ATOM     12  H   UNL     1      36.886 -25.313 -16.478  0.00  0.00    +0.295 HD
ENDBRANCH  10  11
ENDBRANCH   7  10
ENDBRANCH   2   7
BRANCH   1  13
ATOM     13  C   UNL     1      35.142 -21.229 -20.508  0.00  0.00    +0.026 C 
BRANCH  13  14
ATOM     14  C   UNL     1      34.450 -19.854 -20.577  0.00  0.00    +0.004 C 
ATOM     15  C   UNL     1      34.938 -19.025 -21.767  0.00  0.00    +0.000 C 
ATOM     16  C   UNL     1      32.933 -20.040 -20.667  0.00  0.00    +0.000 C 
ENDBRANCH  13  14
ENDBRANCH   1  13
TORSDOF 5
ENDMDL
MODEL 8
REMARK VINA RESULT:      -7.5      1.905      2.669
REMARK  Name = 3672
REMARK  5 active torsions:
REMARK  status: ('A' for Active; 'I' for Inactive)
REMARK    1  A    between atoms: C_1  and  C_13
REMARK    2  A    between atoms: C_2  and  C_7
REMARK    3  A    between atoms: C_7  and  C_10
REMARK    4  A    between atoms: C_10  and  O_11
REMARK    5  A    between atoms: C_13  and  C_14
REMARK                            x       y       z     vdW  Elec       q    Type
REMARK                         _______ _______ _______ _____ _____    ______ ____
ROOT
ATOM      1  C   UNL     1      34.982 -20.969 -20.074  0.00  0.00    -0.022 C 
ATOM      2  C   UNL     1      35.200 -18.494 -21.303  0.00  0.00    -0.012 C 
ATOM      3  C   UNL     1      36.239 -20.420 -20.279  0.00  0.00    -0.005 C 
ATOM      4  C   UNL     1      33.832 -20.304 -20.472  0.00  0.00    -0.005 C 
ATOM      5  C   UNL     1      36.348 -19.175 -20.898  0.00  0.00    -0.004 C 
ATOM      6  C   UNL     1      33.942 -19.059 -21.090  0.00  0.00    -0.004 C 
ENDROOT
BRANCH   2   7
ATOM      7  C   UNL     1      35.316 -17.162 -21.966  0.00  0.00    +0.121 C 
ATOM      8  C   UNL     1      35.002 -17.186 -23.476  0.00  0.00    +0.016 C 
BRANCH   7  10
ATOM      9  O   UNL     1      33.384 -15.681 -21.782  0.00  0.00    -0.250 OA
ATOM     10  C   UNL     1      34.435 -16.094 -21.311  0.00  0.00    +0.317 C 
BRANCH  10  11
ATOM     11  O   UNL     1      34.942 -15.630 -20.137  0.00  0.00    -0.480 OA
ATOM     12  H   UNL     1      34.994 -14.708 -19.981  0.00  0.00    +0.295 HD
ENDBRANCH  10  11
ENDBRANCH   7  10
ENDBRANCH   2   7
BRANCH   1  13
ATOM     13  C   UNL     1      34.863 -22.316 -19.404  0.00  0.00    +0.026 C 
BRANCH  13  14
ATOM     14  C   UNL     1      34.608 -22.237 -17.887  0.00  0.00    +0.004 C 
ATOM     15  C   UNL     1      33.619 -23.304 -17.415  0.00  0.00    +0.000 C 
ATOM     16  C   UNL     1      35.930 -22.387 -17.130  0.00  0.00    +0.000 C 
ENDBRANCH  13  14
ENDBRANCH   1  13
TORSDOF 5
ENDMDL
MODEL 9
REMARK VINA RESULT:      -7.5      3.615      5.666
REMARK  Name = 3672
REMARK  5 active torsions:
REMARK  status: ('A' for Active; 'I' for Inactive)
REMARK    1  A    between atoms: C_1  and  C_13
REMARK    2  A    between atoms: C_2  and  C_7
REMARK    3  A    between atoms: C_7  and  C_10
REMARK    4  A    between atoms: C_10  and  O_11
REMARK    5  A    between atoms: C_13  and  C_14
REMARK                            x       y       z     vdW  Elec       q    Type
REMARK                         _______ _______ _______ _____ _____    ______ ____
ROOT
ATOM      1  C   UNL     1      34.897 -18.125 -23.130  0.00  0.00    -0.022 C 
ATOM      2  C   UNL     1      34.216 -15.724 -24.336  0.00  0.00    -0.012 C 
ATOM      3  C   UNL     1      34.558 -18.112 -24.475  0.00  0.00    -0.005 C 
ATOM      4  C   UNL     1      34.902 -16.961 -22.377  0.00  0.00    -0.005 C 
ATOM      5  C   UNL     1      34.215 -16.904 -25.081  0.00  0.00    -0.004 C 
ATOM      6  C   UNL     1      34.559 -15.753 -22.985  0.00  0.00    -0.004 C 
ENDROOT
BRANCH   2   7
ATOM      7  C   UNL     1      33.849 -14.432 -24.985  0.00  0.00    +0.121 C 
ATOM      8  C   UNL     1      32.796 -14.571 -26.104  0.00  0.00    +0.016 C 
BRANCH   7  10
ATOM      9  O   UNL     1      32.291 -13.469 -23.369  0.00  0.00    -0.250 OA
ATOM     10  C   UNL     1      33.346 -13.387 -23.983  0.00  0.00    +0.317 C 
BRANCH  10  11
ATOM     11  O   UNL     1      34.193 -12.332 -23.843  0.00  0.00    -0.480 OA
ATOM     12  H   UNL     1      34.393 -11.790 -24.580  0.00  0.00    +0.295 HD
ENDBRANCH  10  11
ENDBRANCH   7  10
ENDBRANCH   2   7
BRANCH   1  13
ATOM     13  C   UNL     1      35.269 -19.433 -22.474  0.00  0.00    +0.026 C 
BRANCH  13  14
ATOM     14  C   UNL     1      34.780 -19.560 -21.019  0.00  0.00    +0.004 C 
ATOM     15  C   UNL     1      33.296 -19.926 -20.941  0.00  0.00    +0.000 C 
ATOM     16  C   UNL     1      35.611 -20.615 -20.283  0.00  0.00    +0.000 C 
ENDBRANCH  13  14
ENDBRANCH   1  13
TORSDOF 5
ENDMDL
