MODEL 1
REMARK VINA RESULT:      -9.7      0.000      0.000
REMARK  Name = 5329098
REMARK  1 active torsions:
REMARK  status: ('A' for Active; 'I' for Inactive)
REMARK    1  A    between atoms: C_6  and  C_14
REMARK                            x       y       z     vdW  Elec       q    Type
REMARK                         _______ _______ _______ _____ _____    ______ ____
ROOT
ATOM      1  O   UNL     1      36.851 -18.684 -21.407  0.00  0.00    -0.270 OA
ATOM      2  N   UNL     1      36.775 -20.307 -19.694  0.00  0.00    -0.280 N 
ATOM      3  C   UNL     1      34.828 -19.908 -20.829  0.00  0.00    +0.056 C 
ATOM      4  C   UNL     1      34.566 -20.933 -19.824  0.00  0.00    +0.018 C 
ATOM      5  C   UNL     1      35.781 -21.138 -19.163  0.00  0.00    +0.051 C 
ATOM      6  C   UNL     1      33.982 -19.372 -21.711  0.00  0.00    +0.019 C 
ATOM      7  C   UNL     1      36.273 -19.512 -20.728  0.00  0.00    +0.250 C 
ATOM      8  C   UNL     1      33.438 -21.648 -19.466  0.00  0.00    +0.001 C 
ATOM      9  C   UNL     1      35.918 -22.050 -18.136  0.00  0.00    +0.015 C 
ATOM     10  C   UNL     1      33.556 -22.577 -18.428  0.00  0.00    +0.000 C 
ATOM     11  C   UNL     1      34.784 -22.775 -17.768  0.00  0.00    +0.001 C 
ATOM     12  H   UNL     1      37.708 -20.286 -19.378  0.00  0.00    +0.155 HD
ENDROOT
BRANCH   6  14
ATOM     13  N   UNL     1      34.238 -17.073 -22.261  0.00  0.00    -0.316 N 
ATOM     14  C   UNL     1      34.312 -18.334 -22.704  0.00  0.00    +0.044 C 
ATOM     15  C   UNL     1      34.677 -18.408 -23.980  0.00  0.00    -0.008 C 
ATOM     16  C   UNL     1      34.576 -16.261 -23.312  0.00  0.00    +0.025 C 
ATOM     17  C   UNL     1      34.853 -17.065 -24.395  0.00  0.00    +0.007 C 
ATOM     18  C   UNL     1      34.867 -19.607 -24.821  0.00  0.00    +0.032 C 
ATOM     19  C   UNL     1      34.596 -14.793 -23.171  0.00  0.00    +0.047 C 
ATOM     20  H   UNL     1      33.989 -16.784 -21.353  0.00  0.00    +0.152 HD
ENDBRANCH   6  14
TORSDOF 1
ENDMDL
MODEL 2
REMARK VINA RESULT:      -9.2      3.803      6.234
REMARK  Name = 5329098
REMARK  1 active torsions:
REMARK  status: ('A' for Active; 'I' for Inactive)
REMARK    1  A    between atoms: C_6  and  C_14
REMARK                            x       y       z     vdW  Elec       q    Type
REMARK                         _______ _______ _______ _____ _____    ______ ____
ROOT
ATOM      1  O   UNL     1      34.089 -14.066 -21.136  0.00  0.00    -0.270 OA
ATOM      2  N   UNL     1      34.867 -16.249 -21.592  0.00  0.00    -0.280 N 
ATOM      3  C   UNL     1      33.848 -15.133 -23.311  0.00  0.00    +0.056 C 
ATOM      4  C   UNL     1      34.250 -16.449 -23.798  0.00  0.00    +0.018 C 
ATOM      5  C   UNL     1      34.863 -17.085 -22.715  0.00  0.00    +0.051 C 
ATOM      6  C   UNL     1      33.225 -14.156 -23.973  0.00  0.00    +0.019 C 
ATOM      7  C   UNL     1      34.259 -15.021 -21.871  0.00  0.00    +0.250 C 
ATOM      8  C   UNL     1      34.133 -17.088 -25.018  0.00  0.00    +0.001 C 
ATOM      9  C   UNL     1      35.376 -18.364 -22.802  0.00  0.00    +0.015 C 
ATOM     10  C   UNL     1      34.646 -18.384 -25.128  0.00  0.00    +0.000 C 
ATOM     11  C   UNL     1      35.261 -19.016 -24.031  0.00  0.00    +0.001 C 
ATOM     12  H   UNL     1      35.249 -16.494 -20.718  0.00  0.00    +0.155 HD
ENDROOT
BRANCH   6  14
ATOM     13  N   UNL     1      31.906 -12.873 -22.466  0.00  0.00    -0.316 N 
ATOM     14  C   UNL     1      32.846 -12.843 -23.420  0.00  0.00    +0.044 C 
ATOM     15  C   UNL     1      33.265 -11.610 -23.687  0.00  0.00    -0.008 C 
ATOM     16  C   UNL     1      31.690 -11.576 -22.080  0.00  0.00    +0.025 C 
ATOM     17  C   UNL     1      32.522 -10.769 -22.823  0.00  0.00    +0.007 C 
ATOM     18  C   UNL     1      34.279 -11.168 -24.665  0.00  0.00    +0.032 C 
ATOM     19  C   UNL     1      30.704 -11.242 -21.035  0.00  0.00    +0.047 C 
ATOM     20  H   UNL     1      31.458 -13.674 -22.111  0.00  0.00    +0.152 HD
ENDBRANCH   6  14
TORSDOF 1
ENDMDL
MODEL 3
REMARK VINA RESULT:      -9.2      1.886      6.575
REMARK  Name = 5329098
REMARK  1 active torsions:
REMARK  status: ('A' for Active; 'I' for Inactive)
REMARK    1  A    between atoms: C_6  and  C_14
REMARK                            x       y       z     vdW  Elec       q    Type
REMARK                         _______ _______ _______ _____ _____    ______ ____
ROOT
ATOM      1  O   UNL     1      35.003 -16.491 -20.272  0.00  0.00    -0.270 OA
ATOM      2  N   UNL     1      34.461 -14.575 -21.543  0.00  0.00    -0.280 N 
ATOM      3  C   UNL     1      34.397 -16.590 -22.627  0.00  0.00    +0.056 C 
ATOM      4  C   UNL     1      34.033 -15.549 -23.583  0.00  0.00    +0.018 C 
ATOM      5  C   UNL     1      34.088 -14.345 -22.873  0.00  0.00    +0.051 C 
ATOM      6  C   UNL     1      34.489 -17.907 -22.827  0.00  0.00    +0.019 C 
ATOM      7  C   UNL     1      34.673 -15.937 -21.304  0.00  0.00    +0.250 C 
ATOM      8  C   UNL     1      33.684 -15.564 -24.920  0.00  0.00    +0.001 C 
ATOM      9  C   UNL     1      33.801 -13.129 -23.458  0.00  0.00    +0.015 C 
ATOM     10  C   UNL     1      33.390 -14.342 -25.532  0.00  0.00    +0.000 C 
ATOM     11  C   UNL     1      33.449 -13.136 -24.809  0.00  0.00    +0.001 C 
ATOM     12  H   UNL     1      34.562 -13.869 -20.864  0.00  0.00    +0.155 HD
ENDROOT
BRANCH   6  14
ATOM     13  N   UNL     1      33.839 -19.545 -21.231  0.00  0.00    -0.316 N 
ATOM     14  C   UNL     1      34.863 -18.910 -21.815  0.00  0.00    +0.044 C 
ATOM     15  C   UNL     1      36.044 -19.317 -21.359  0.00  0.00    -0.008 C 
ATOM     16  C   UNL     1      34.377 -20.427 -20.332  0.00  0.00    +0.025 C 
ATOM     17  C   UNL     1      35.747 -20.306 -20.390  0.00  0.00    +0.007 C 
ATOM     18  C   UNL     1      37.394 -18.862 -21.748  0.00  0.00    +0.032 C 
ATOM     19  C   UNL     1      33.520 -21.298 -19.504  0.00  0.00    +0.047 C 
ATOM     20  H   UNL     1      32.881 -19.404 -21.414  0.00  0.00    +0.152 HD
ENDBRANCH   6  14
TORSDOF 1
ENDMDL
MODEL 4
REMARK VINA RESULT:      -9.0      1.004      1.839
REMARK  Name = 5329098
REMARK  1 active torsions:
REMARK  status: ('A' for Active; 'I' for Inactive)
REMARK    1  A    between atoms: C_6  and  C_14
REMARK                            x       y       z     vdW  Elec       q    Type
REMARK                         _______ _______ _______ _____ _____    ______ ____
ROOT
ATOM      1  O   UNL     1      36.795 -18.644 -21.380  0.00  0.00    -0.270 OA
ATOM      2  N   UNL     1      36.592 -20.498 -19.931  0.00  0.00    -0.280 N 
ATOM      3  C   UNL     1      34.648 -19.558 -20.689  0.00  0.00    +0.056 C 
ATOM      4  C   UNL     1      34.302 -20.676 -19.818  0.00  0.00    +0.018 C 
ATOM      5  C   UNL     1      35.519 -21.212 -19.385  0.00  0.00    +0.051 C 
ATOM      6  C   UNL     1      33.830 -18.732 -21.346  0.00  0.00    +0.019 C 
ATOM      7  C   UNL     1      36.145 -19.457 -20.751  0.00  0.00    +0.250 C 
ATOM      8  C   UNL     1      33.103 -21.225 -19.403  0.00  0.00    +0.001 C 
ATOM      9  C   UNL     1      35.588 -22.297 -18.535  0.00  0.00    +0.015 C 
ATOM     10  C   UNL     1      33.151 -22.325 -18.542  0.00  0.00    +0.000 C 
ATOM     11  C   UNL     1      34.381 -22.856 -18.111  0.00  0.00    +0.001 C 
ATOM     12  H   UNL     1      37.540 -20.702 -19.761  0.00  0.00    +0.155 HD
ENDROOT
BRANCH   6  14
ATOM     13  N   UNL     1      34.356 -17.913 -23.515  0.00  0.00    -0.316 N 
ATOM     14  C   UNL     1      34.246 -17.616 -22.214  0.00  0.00    +0.044 C 
ATOM     15  C   UNL     1      34.537 -16.345 -21.953  0.00  0.00    -0.008 C 
ATOM     16  C   UNL     1      34.746 -16.766 -24.155  0.00  0.00    +0.025 C 
ATOM     17  C   UNL     1      34.867 -15.774 -23.207  0.00  0.00    +0.007 C 
ATOM     18  C   UNL     1      34.533 -15.642 -20.655  0.00  0.00    +0.032 C 
ATOM     19  C   UNL     1      34.965 -16.737 -25.613  0.00  0.00    +0.047 C 
ATOM     20  H   UNL     1      34.188 -18.790 -23.932  0.00  0.00    +0.152 HD
ENDBRANCH   6  14
TORSDOF 1
ENDMDL
MODEL 5
REMARK VINA RESULT:      -8.9      1.754      6.532
REMARK  Name = 5329098
REMARK  1 active torsions:
REMARK  status: ('A' for Active; 'I' for Inactive)
REMARK    1  A    between atoms: C_6  and  C_14
REMARK                            x       y       z     vdW  Elec       q    Type
REMARK                         _______ _______ _______ _____ _____    ______ ____
ROOT
ATOM      1  O   UNL     1      34.805 -19.528 -23.853  0.00  0.00    -0.270 OA
ATOM      2  N   UNL     1      34.253 -17.658 -25.186  0.00  0.00    -0.280 N 
ATOM      3  C   UNL     1      34.425 -17.308 -22.930  0.00  0.00    +0.056 C 
ATOM      4  C   UNL     1      34.080 -16.038 -23.562  0.00  0.00    +0.018 C 
ATOM      5  C   UNL     1      33.988 -16.307 -24.931  0.00  0.00    +0.051 C 
ATOM      6  C   UNL     1      34.623 -17.567 -21.636  0.00  0.00    +0.019 C 
ATOM      7  C   UNL     1      34.533 -18.352 -24.005  0.00  0.00    +0.250 C 
ATOM      8  C   UNL     1      33.857 -14.764 -23.076  0.00  0.00    +0.001 C 
ATOM      9  C   UNL     1      33.675 -15.331 -25.856  0.00  0.00    +0.015 C 
ATOM     10  C   UNL     1      33.539 -13.761 -23.997  0.00  0.00    +0.000 C 
ATOM     11  C   UNL     1      33.448 -14.042 -25.373  0.00  0.00    +0.001 C 
ATOM     12  H   UNL     1      34.244 -18.067 -26.082  0.00  0.00    +0.155 HD
ENDROOT
BRANCH   6  14
ATOM     13  N   UNL     1      33.937 -19.594 -20.601  0.00  0.00    -0.316 N 
ATOM     14  C   UNL     1      34.971 -18.878 -21.060  0.00  0.00    +0.044 C 
ATOM     15  C   UNL     1      36.135 -19.501 -20.906  0.00  0.00    -0.008 C 
ATOM     16  C   UNL     1      34.450 -20.766 -20.111  0.00  0.00    +0.025 C 
ATOM     17  C   UNL     1      35.816 -20.735 -20.287  0.00  0.00    +0.007 C 
ATOM     18  C   UNL     1      37.487 -19.044 -21.280  0.00  0.00    +0.032 C 
ATOM     19  C   UNL     1      33.578 -21.799 -19.520  0.00  0.00    +0.047 C 
ATOM     20  H   UNL     1      32.988 -19.329 -20.614  0.00  0.00    +0.152 HD
ENDBRANCH   6  14
TORSDOF 1
ENDMDL
MODEL 6
REMARK VINA RESULT:      -8.9      4.364      6.764
REMARK  Name = 5329098
REMARK  1 active torsions:
REMARK  status: ('A' for Active; 'I' for Inactive)
REMARK    1  A    between atoms: C_6  and  C_14
REMARK                            x       y       z     vdW  Elec       q    Type
REMARK                         _______ _______ _______ _____ _____    ______ ____
ROOT
ATOM      1  O   UNL     1      33.030 -13.730 -25.723  0.00  0.00    -0.270 OA
ATOM      2  N   UNL     1      33.583 -16.025 -25.791  0.00  0.00    -0.280 N 
ATOM      3  C   UNL     1      34.023 -14.911 -23.840  0.00  0.00    +0.056 C 
ATOM      4  C   UNL     1      34.435 -16.301 -23.672  0.00  0.00    +0.018 C 
ATOM      5  C   UNL     1      34.146 -16.933 -24.885  0.00  0.00    +0.051 C 
ATOM      6  C   UNL     1      34.096 -13.910 -22.960  0.00  0.00    +0.019 C 
ATOM      7  C   UNL     1      33.470 -14.750 -25.227  0.00  0.00    +0.250 C 
ATOM      8  C   UNL     1      34.999 -17.007 -22.626  0.00  0.00    +0.001 C 
ATOM      9  C   UNL     1      34.403 -18.272 -25.101  0.00  0.00    +0.015 C 
ATOM     10  C   UNL     1      35.267 -18.365 -22.823  0.00  0.00    +0.000 C 
ATOM     11  C   UNL     1      34.973 -18.991 -24.049  0.00  0.00    +0.001 C 
ATOM     12  H   UNL     1      33.302 -16.255 -26.706  0.00  0.00    +0.155 HD
ENDROOT
BRANCH   6  14
ATOM     13  N   UNL     1      34.449 -11.801 -24.001  0.00  0.00    -0.316 N 
ATOM     14  C   UNL     1      33.660 -12.522 -23.194  0.00  0.00    +0.044 C 
ATOM     15  C   UNL     1      32.615 -11.831 -22.750  0.00  0.00    -0.008 C 
ATOM     16  C   UNL     1      33.889 -10.555 -24.097  0.00  0.00    +0.025 C 
ATOM     17  C   UNL     1      32.747 -10.544 -23.328  0.00  0.00    +0.007 C 
ATOM     18  C   UNL     1      31.530 -12.268 -21.849  0.00  0.00    +0.032 C 
ATOM     19  C   UNL     1      34.509  -9.497 -24.918  0.00  0.00    +0.047 C 
ATOM     20  H   UNL     1      35.274 -12.110 -24.442  0.00  0.00    +0.152 HD
ENDBRANCH   6  14
TORSDOF 1
ENDMDL
MODEL 7
REMARK VINA RESULT:      -8.9      9.695     12.221
REMARK  Name = 5329098
REMARK  1 active torsions:
REMARK  status: ('A' for Active; 'I' for Inactive)
REMARK    1  A    between atoms: C_6  and  C_14
REMARK                            x       y       z     vdW  Elec       q    Type
REMARK                         _______ _______ _______ _____ _____    ______ ____
ROOT
ATOM      1  O   UNL     1      32.450  -6.028 -21.365  0.00  0.00    -0.270 OA
ATOM      2  N   UNL     1      32.208  -7.884 -19.924  0.00  0.00    -0.280 N 
ATOM      3  C   UNL     1      31.985  -8.278 -22.168  0.00  0.00    +0.056 C 
ATOM      4  C   UNL     1      31.802  -9.543 -21.464  0.00  0.00    +0.018 C 
ATOM      5  C   UNL     1      31.947  -9.247 -20.105  0.00  0.00    +0.051 C 
ATOM      6  C   UNL     1      31.940  -8.043 -23.481  0.00  0.00    +0.019 C 
ATOM      7  C   UNL     1      32.249  -7.208 -21.148  0.00  0.00    +0.250 C 
ATOM      8  C   UNL     1      31.538 -10.835 -21.881  0.00  0.00    +0.001 C 
ATOM      9  C   UNL     1      31.837 -10.211 -19.123  0.00  0.00    +0.015 C 
ATOM     10  C   UNL     1      31.423 -11.826 -20.902  0.00  0.00    +0.000 C 
ATOM     11  C   UNL     1      31.570 -11.518 -19.536  0.00  0.00    +0.001 C 
ATOM     12  H   UNL     1      32.345  -7.456 -19.048  0.00  0.00    +0.155 HD
ENDROOT
BRANCH   6  14
ATOM     13  N   UNL     1      31.060  -5.937 -24.149  0.00  0.00    -0.316 N 
ATOM     14  C   UNL     1      32.136  -6.735 -24.132  0.00  0.00    +0.044 C 
ATOM     15  C   UNL     1      33.193  -6.181 -24.716  0.00  0.00    -0.008 C 
ATOM     16  C   UNL     1      31.431  -4.782 -24.786  0.00  0.00    +0.025 C 
ATOM     17  C   UNL     1      32.753  -4.906 -25.150  0.00  0.00    +0.007 C 
ATOM     18  C   UNL     1      34.549  -6.737 -24.897  0.00  0.00    +0.032 C 
ATOM     19  C   UNL     1      30.477  -3.674 -24.982  0.00  0.00    +0.047 C 
ATOM     20  H   UNL     1      30.173  -6.142 -23.774  0.00  0.00    +0.152 HD
ENDBRANCH   6  14
TORSDOF 1
ENDMDL
MODEL 8
REMARK VINA RESULT:      -8.8      5.257     10.163
REMARK  Name = 5329098
REMARK  1 active torsions:
REMARK  status: ('A' for Active; 'I' for Inactive)
REMARK    1  A    between atoms: C_6  and  C_14
REMARK                            x       y       z     vdW  Elec       q    Type
REMARK                         _______ _______ _______ _____ _____    ______ ____
ROOT
ATOM      1  O   UNL     1      31.785 -12.437 -22.315  0.00  0.00    -0.270 OA
ATOM      2  N   UNL     1      31.624 -10.088 -22.123  0.00  0.00    -0.280 N 
ATOM      3  C   UNL     1      33.282 -10.906 -23.473  0.00  0.00    +0.056 C 
ATOM      4  C   UNL     1      33.357  -9.449 -23.495  0.00  0.00    +0.018 C 
ATOM      5  C   UNL     1      32.328  -9.003 -22.659  0.00  0.00    +0.051 C 
ATOM      6  C   UNL     1      34.053 -11.788 -24.114  0.00  0.00    +0.019 C 
ATOM      7  C   UNL     1      32.147 -11.305 -22.574  0.00  0.00    +0.250 C 
ATOM      8  C   UNL     1      34.186  -8.548 -24.135  0.00  0.00    +0.001 C 
ATOM      9  C   UNL     1      32.089  -7.663 -22.432  0.00  0.00    +0.015 C 
ATOM     10  C   UNL     1      33.961  -7.185 -23.919  0.00  0.00    +0.000 C 
ATOM     11  C   UNL     1      32.923  -6.746 -23.075  0.00  0.00    +0.001 C 
ATOM     12  H   UNL     1      30.860 -10.006 -21.509  0.00  0.00    +0.155 HD
ENDROOT
BRANCH   6  14
ATOM     13  N   UNL     1      34.405 -13.824 -22.937  0.00  0.00    -0.316 N 
ATOM     14  C   UNL     1      33.924 -13.255 -24.050  0.00  0.00    +0.044 C 
ATOM     15  C   UNL     1      33.412 -14.141 -24.898  0.00  0.00    -0.008 C 
ATOM     16  C   UNL     1      34.198 -15.173 -23.058  0.00  0.00    +0.025 C 
ATOM     17  C   UNL     1      33.583 -15.399 -24.269  0.00  0.00    +0.007 C 
ATOM     18  C   UNL     1      32.795 -13.909 -26.219  0.00  0.00    +0.032 C 
ATOM     19  C   UNL     1      34.614 -16.111 -21.999  0.00  0.00    +0.047 C 
ATOM     20  H   UNL     1      34.825 -13.361 -22.177  0.00  0.00    +0.152 HD
ENDBRANCH   6  14
TORSDOF 1
ENDMDL
MODEL 9
REMARK VINA RESULT:      -8.8      4.102      8.627
REMARK  Name = 5329098
REMARK  1 active torsions:
REMARK  status: ('A' for Active; 'I' for Inactive)
REMARK    1  A    between atoms: C_6  and  C_14
REMARK                            x       y       z     vdW  Elec       q    Type
REMARK                         _______ _______ _______ _____ _____    ______ ____
ROOT
ATOM      1  O   UNL     1      37.802 -22.752 -15.571  0.00  0.00    -0.270 OA
ATOM      2  N   UNL     1      37.154 -21.697 -17.582  0.00  0.00    -0.280 N 
ATOM      3  C   UNL     1      35.572 -22.967 -16.522  0.00  0.00    +0.056 C 
ATOM      4  C   UNL     1      34.972 -22.410 -17.730  0.00  0.00    +0.018 C 
ATOM      5  C   UNL     1      35.975 -21.648 -18.336  0.00  0.00    +0.051 C 
ATOM      6  C   UNL     1      35.014 -23.763 -15.607  0.00  0.00    +0.019 C 
ATOM      7  C   UNL     1      36.994 -22.491 -16.442  0.00  0.00    +0.250 C 
ATOM      8  C   UNL     1      33.717 -22.507 -18.301  0.00  0.00    +0.001 C 
ATOM      9  C   UNL     1      35.770 -20.962 -19.517  0.00  0.00    +0.015 C 
ATOM     10  C   UNL     1      33.489 -21.820 -19.498  0.00  0.00    +0.000 C 
ATOM     11  C   UNL     1      34.506 -21.056 -20.100  0.00  0.00    +0.001 C 
ATOM     12  H   UNL     1      37.987 -21.232 -17.824  0.00  0.00    +0.155 HD
ENDROOT
BRANCH   6  14
ATOM     13  N   UNL     1      35.601 -23.512 -13.317  0.00  0.00    -0.316 N 
ATOM     14  C   UNL     1      35.678 -24.292 -14.403  0.00  0.00    +0.044 C 
ATOM     15  C   UNL     1      36.351 -25.417 -14.179  0.00  0.00    -0.008 C 
ATOM     16  C   UNL     1      36.267 -24.163 -12.312  0.00  0.00    +0.025 C 
ATOM     17  C   UNL     1      36.744 -25.350 -12.820  0.00  0.00    +0.007 C 
ATOM     18  C   UNL     1      36.649 -26.520 -15.114  0.00  0.00    +0.032 C 
ATOM     19  C   UNL     1      36.380 -23.578 -10.962  0.00  0.00    +0.047 C 
ATOM     20  H   UNL     1      35.152 -22.639 -13.254  0.00  0.00    +0.152 HD
ENDBRANCH   6  14
TORSDOF 1
ENDMDL
