MODEL 1
REMARK VINA RESULT:      -9.3      0.000      0.000
REMARK  Name = 46926304
REMARK  8 active torsions:
REMARK  status: ('A' for Active; 'I' for Inactive)
REMARK    1  A    between atoms: C_2  and  O_18
REMARK    2  A    between atoms: C_3  and  O_20
REMARK    3  A    between atoms: C_4  and  N_6
REMARK    4  A    between atoms: C_5  and  C_22
REMARK    5  A    between atoms: C_8  and  O_16
REMARK    6  A    between atoms: C_10  and  C_13
REMARK    7  A    between atoms: C_22  and  O_23
REMARK    8  A    between atoms: O_23  and  P_24
REMARK                            x       y       z     vdW  Elec       q    Type
REMARK                         _______ _______ _______ _____ _____    ______ ____
ROOT
ATOM      1  O   UNL     1      31.852 -25.538 -14.550  0.00  0.00    -0.336 OA
ATOM      2  C   UNL     1      31.753 -23.370 -13.606  0.00  0.00    +0.183 C 
ATOM      3  C   UNL     1      30.394 -24.022 -13.444  0.00  0.00    +0.171 C 
ATOM      4  C   UNL     1      32.657 -24.577 -13.836  0.00  0.00    +0.209 C 
ATOM      5  C   UNL     1      30.460 -25.158 -14.456  0.00  0.00    +0.176 C 
ENDROOT
BRANCH   4   6
ATOM      6  N   UNL     1      33.914 -24.234 -14.600  0.00  0.00    -0.200 NA
ATOM      7  N   UNL     1      35.203 -23.425 -16.217  0.00  0.00    -0.248 NA
ATOM      8  C   UNL     1      35.199 -24.512 -14.229  0.00  0.00    +0.222 C 
ATOM      9  C   UNL     1      33.966 -23.582 -15.801  0.00  0.00    +0.205 C 
ATOM     10  C   UNL     1      35.977 -24.003 -15.242  0.00  0.00    +0.151 C 
BRANCH  10  13
ATOM     11  O   UNL     1      38.091 -23.027 -15.598  0.00  0.00    -0.269 OA
ATOM     12  N   UNL     1      38.059 -25.257 -15.060  0.00  0.00    -0.324 N 
ATOM     13  C   UNL     1      37.406 -24.043 -15.321  0.00  0.00    +0.260 C 
ATOM     14  H   UNL     1      39.041 -25.306 -15.109  0.00  0.00    +0.145 HD
ATOM     15  H   UNL     1      37.535 -26.058 -14.830  0.00  0.00    +0.145 HD
ENDBRANCH  10  13
BRANCH   8  16
ATOM     16  O   UNL     1      35.490 -25.143 -13.101  0.00  0.00    -0.365 OA
ATOM     17  H   UNL     1      35.980 -24.706 -12.433  0.00  0.00    +0.212 HD
ENDBRANCH   8  16
ENDBRANCH   4   6
BRANCH   2  18
ATOM     18  O   UNL     1      32.135 -22.601 -12.482  0.00  0.00    -0.378 OA
ATOM     19  H   UNL     1      31.357 -22.428 -11.930  0.00  0.00    +0.211 HD
ENDBRANCH   2  18
BRANCH   3  20
ATOM     20  O   UNL     1      30.270 -24.596 -12.144  0.00  0.00    -0.379 OA
ATOM     21  H   UNL     1      31.095 -24.463 -11.651  0.00  0.00    +0.211 HD
ENDBRANCH   3  20
BRANCH   5  22
ATOM     22  C   UNL     1      29.982 -24.751 -15.843  0.00  0.00    +0.186 C 
BRANCH  22  23
ATOM     23  O   UNL     1      28.677 -24.212 -15.733  0.00  0.00    -0.268 OA
BRANCH  23  24
ATOM     24  P   UNL     1      28.283 -22.889 -16.644  0.00  0.00    +0.533 P 
ATOM     25  O   UNL     1      27.441 -23.470 -17.775  0.00  0.00    -0.115 OA
ATOM     26  O   UNL     1      29.623 -22.320 -17.098  0.00  0.00    -0.222 OA
ATOM     27  O   UNL     1      27.504 -21.984 -15.694  0.00  0.00    -0.115 OA
ENDBRANCH  23  24
ENDBRANCH  22  23
ENDBRANCH   5  22
TORSDOF 8
ENDMDL
MODEL 2
REMARK VINA RESULT:      -9.2      2.197      3.221
REMARK  Name = 46926304
REMARK  8 active torsions:
REMARK  status: ('A' for Active; 'I' for Inactive)
REMARK    1  A    between atoms: C_2  and  O_18
REMARK    2  A    between atoms: C_3  and  O_20
REMARK    3  A    between atoms: C_4  and  N_6
REMARK    4  A    between atoms: C_5  and  C_22
REMARK    5  A    between atoms: C_8  and  O_16
REMARK    6  A    between atoms: C_10  and  C_13
REMARK    7  A    between atoms: C_22  and  O_23
REMARK    8  A    between atoms: O_23  and  P_24
REMARK                            x       y       z     vdW  Elec       q    Type
REMARK                         _______ _______ _______ _____ _____    ______ ____
ROOT
ATOM      1  O   UNL     1      30.809 -24.067 -15.685  0.00  0.00    -0.336 OA
ATOM      2  C   UNL     1      32.119 -23.234 -13.898  0.00  0.00    +0.183 C 
ATOM      3  C   UNL     1      30.726 -23.525 -13.372  0.00  0.00    +0.171 C 
ATOM      4  C   UNL     1      32.158 -24.073 -15.171  0.00  0.00    +0.209 C 
ATOM      5  C   UNL     1      29.909 -23.600 -14.655  0.00  0.00    +0.176 C 
ENDROOT
BRANCH   4   6
ATOM      6  N   UNL     1      33.140 -23.549 -16.192  0.00  0.00    -0.200 NA
ATOM      7  N   UNL     1      35.090 -23.086 -17.147  0.00  0.00    -0.248 NA
ATOM      8  C   UNL     1      32.841 -22.913 -17.364  0.00  0.00    +0.222 C 
ATOM      9  C   UNL     1      34.502 -23.630 -16.105  0.00  0.00    +0.205 C 
ATOM     10  C   UNL     1      34.060 -22.637 -17.936  0.00  0.00    +0.151 C 
BRANCH  10  13
ATOM     11  O   UNL     1      35.439 -21.762 -19.633  0.00  0.00    -0.269 OA
ATOM     12  N   UNL     1      33.174 -21.566 -19.937  0.00  0.00    -0.324 N 
ATOM     13  C   UNL     1      34.285 -21.973 -19.185  0.00  0.00    +0.260 C 
ATOM     14  H   UNL     1      33.306 -21.109 -20.799  0.00  0.00    +0.145 HD
ATOM     15  H   UNL     1      32.264 -21.737 -19.603  0.00  0.00    +0.145 HD
ENDBRANCH  10  13
BRANCH   8  16
ATOM     16  O   UNL     1      31.595 -22.679 -17.745  0.00  0.00    -0.365 OA
ATOM     17  H   UNL     1      31.427 -22.239 -18.554  0.00  0.00    +0.212 HD
ENDBRANCH   8  16
ENDBRANCH   4   6
BRANCH   2  18
ATOM     18  O   UNL     1      33.138 -23.576 -12.979  0.00  0.00    -0.378 OA
ATOM     19  H   UNL     1      33.553 -24.409 -13.252  0.00  0.00    +0.211 HD
ENDBRANCH   2  18
BRANCH   3  20
ATOM     20  O   UNL     1      30.688 -24.808 -12.750  0.00  0.00    -0.379 OA
ATOM     21  H   UNL     1      30.295 -25.452 -13.359  0.00  0.00    +0.211 HD
ENDBRANCH   3  20
BRANCH   5  22
ATOM     22  C   UNL     1      29.349 -22.253 -15.087  0.00  0.00    +0.186 C 
BRANCH  22  23
ATOM     23  O   UNL     1      28.997 -22.325 -16.457  0.00  0.00    -0.268 OA
BRANCH  23  24
ATOM     24  P   UNL     1      27.411 -22.560 -16.861  0.00  0.00    +0.533 P 
ATOM     25  O   UNL     1      27.433 -23.857 -17.664  0.00  0.00    -0.115 OA
ATOM     26  O   UNL     1      27.035 -21.330 -17.680  0.00  0.00    -0.222 OA
ATOM     27  O   UNL     1      26.685 -22.672 -15.523  0.00  0.00    -0.115 OA
ENDBRANCH  23  24
ENDBRANCH  22  23
ENDBRANCH   5  22
TORSDOF 8
ENDMDL
MODEL 3
REMARK VINA RESULT:      -9.1      4.932      7.510
REMARK  Name = 46926304
REMARK  8 active torsions:
REMARK  status: ('A' for Active; 'I' for Inactive)
REMARK    1  A    between atoms: C_2  and  O_18
REMARK    2  A    between atoms: C_3  and  O_20
REMARK    3  A    between atoms: C_4  and  N_6
REMARK    4  A    between atoms: C_5  and  C_22
REMARK    5  A    between atoms: C_8  and  O_16
REMARK    6  A    between atoms: C_10  and  C_13
REMARK    7  A    between atoms: C_22  and  O_23
REMARK    8  A    between atoms: O_23  and  P_24
REMARK                            x       y       z     vdW  Elec       q    Type
REMARK                         _______ _______ _______ _____ _____    ______ ____
ROOT
ATOM      1  O   UNL     1      37.845 -23.473 -13.598  0.00  0.00    -0.336 OA
ATOM      2  C   UNL     1      35.733 -24.078 -12.717  0.00  0.00    +0.183 C 
ATOM      3  C   UNL     1      36.791 -24.396 -11.678  0.00  0.00    +0.171 C 
ATOM      4  C   UNL     1      36.458 -23.075 -13.609  0.00  0.00    +0.209 C 
ATOM      5  C   UNL     1      38.067 -24.399 -12.510  0.00  0.00    +0.176 C 
ENDROOT
BRANCH   4   6
ATOM      6  N   UNL     1      35.908 -23.032 -15.015  0.00  0.00    -0.200 NA
ATOM      7  N   UNL     1      34.579 -23.478 -16.737  0.00  0.00    -0.248 NA
ATOM      8  C   UNL     1      36.400 -22.308 -16.064  0.00  0.00    +0.222 C 
ATOM      9  C   UNL     1      34.816 -23.719 -15.467  0.00  0.00    +0.205 C 
ATOM     10  C   UNL     1      35.563 -22.599 -17.116  0.00  0.00    +0.151 C 
BRANCH  10  13
ATOM     11  O   UNL     1      34.995 -22.562 -19.401  0.00  0.00    -0.269 OA
ATOM     12  N   UNL     1      36.509 -20.994 -18.687  0.00  0.00    -0.324 N 
ATOM     13  C   UNL     1      35.658 -22.084 -18.449  0.00  0.00    +0.260 C 
ATOM     14  H   UNL     1      36.589 -20.624 -19.596  0.00  0.00    +0.145 HD
ATOM     15  H   UNL     1      37.025 -20.601 -17.947  0.00  0.00    +0.145 HD
ENDBRANCH  10  13
BRANCH   8  16
ATOM     16  O   UNL     1      37.464 -21.528 -15.950  0.00  0.00    -0.365 OA
ATOM     17  H   UNL     1      37.380 -20.672 -15.580  0.00  0.00    +0.212 HD
ENDBRANCH   8  16
ENDBRANCH   4   6
BRANCH   2  18
ATOM     18  O   UNL     1      34.545 -23.559 -12.154  0.00  0.00    -0.378 OA
ATOM     19  H   UNL     1      33.800 -24.135 -12.383  0.00  0.00    +0.211 HD
ENDBRANCH   2  18
BRANCH   3  20
ATOM     20  O   UNL     1      36.887 -23.338 -10.727  0.00  0.00    -0.379 OA
ATOM     21  H   UNL     1      36.206 -23.452 -10.046  0.00  0.00    +0.211 HD
ENDBRANCH   3  20
BRANCH   5  22
ATOM     22  C   UNL     1      38.391 -25.762 -13.104  0.00  0.00    +0.186 C 
BRANCH  22  23
ATOM     23  O   UNL     1      38.890 -25.578 -14.417  0.00  0.00    -0.268 OA
BRANCH  23  24
ATOM     24  P   UNL     1      40.521 -25.682 -14.670  0.00  0.00    +0.533 P 
ATOM     25  O   UNL     1      40.632 -26.058 -16.145  0.00  0.00    -0.115 OA
ATOM     26  O   UNL     1      40.991 -26.774 -13.715  0.00  0.00    -0.222 OA
ATOM     27  O   UNL     1      41.052 -24.289 -14.344  0.00  0.00    -0.115 OA
ENDBRANCH  23  24
ENDBRANCH  22  23
ENDBRANCH   5  22
TORSDOF 8
ENDMDL
MODEL 4
REMARK VINA RESULT:      -9.0      3.201      4.391
REMARK  Name = 46926304
REMARK  8 active torsions:
REMARK  status: ('A' for Active; 'I' for Inactive)
REMARK    1  A    between atoms: C_2  and  O_18
REMARK    2  A    between atoms: C_3  and  O_20
REMARK    3  A    between atoms: C_4  and  N_6
REMARK    4  A    between atoms: C_5  and  C_22
REMARK    5  A    between atoms: C_8  and  O_16
REMARK    6  A    between atoms: C_10  and  C_13
REMARK    7  A    between atoms: C_22  and  O_23
REMARK    8  A    between atoms: O_23  and  P_24
REMARK                            x       y       z     vdW  Elec       q    Type
REMARK                         _______ _______ _______ _____ _____    ______ ____
ROOT
ATOM      1  O   UNL     1      35.110 -25.011 -15.538  0.00  0.00    -0.336 OA
ATOM      2  C   UNL     1      34.590 -24.345 -13.327  0.00  0.00    +0.183 C 
ATOM      3  C   UNL     1      33.323 -24.270 -14.158  0.00  0.00    +0.171 C 
ATOM      4  C   UNL     1      35.461 -25.276 -14.164  0.00  0.00    +0.209 C 
ATOM      5  C   UNL     1      33.871 -24.268 -15.579  0.00  0.00    +0.176 C 
ENDROOT
BRANCH   4   6
ATOM      6  N   UNL     1      36.938 -25.075 -13.922  0.00  0.00    -0.200 NA
ATOM      7  N   UNL     1      38.803 -24.294 -13.003  0.00  0.00    -0.248 NA
ATOM      8  C   UNL     1      37.967 -25.666 -14.601  0.00  0.00    +0.222 C 
ATOM      9  C   UNL     1      37.489 -24.259 -12.974  0.00  0.00    +0.205 C 
ATOM     10  C   UNL     1      39.107 -25.169 -14.016  0.00  0.00    +0.151 C 
BRANCH  10  13
ATOM     11  O   UNL     1      41.257 -24.620 -14.806  0.00  0.00    -0.269 OA
ATOM     12  N   UNL     1      40.900 -26.807 -14.218  0.00  0.00    -0.324 N 
ATOM     13  C   UNL     1      40.457 -25.486 -14.375  0.00  0.00    +0.260 C 
ATOM     14  H   UNL     1      41.824 -27.048 -14.458  0.00  0.00    +0.145 HD
ATOM     15  H   UNL     1      40.286 -27.494 -13.870  0.00  0.00    +0.145 HD
ENDBRANCH  10  13
BRANCH   8  16
ATOM     16  O   UNL     1      37.763 -26.521 -15.591  0.00  0.00    -0.365 OA
ATOM     17  H   UNL     1      38.351 -26.544 -16.320  0.00  0.00    +0.212 HD
ENDBRANCH   8  16
ENDBRANCH   4   6
BRANCH   2  18
ATOM     18  O   UNL     1      34.364 -24.828 -12.018  0.00  0.00    -0.378 OA
ATOM     19  H   UNL     1      34.201 -24.081 -11.421  0.00  0.00    +0.211 HD
ENDBRANCH   2  18
BRANCH   3  20
ATOM     20  O   UNL     1      32.546 -25.454 -13.987  0.00  0.00    -0.379 OA
ATOM     21  H   UNL     1      31.606 -25.221 -13.944  0.00  0.00    +0.211 HD
ENDBRANCH   3  20
BRANCH   5  22
ATOM     22  C   UNL     1      34.171 -22.871 -16.102  0.00  0.00    +0.186 C 
BRANCH  22  23
ATOM     23  O   UNL     1      34.776 -22.984 -17.378  0.00  0.00    -0.268 OA
BRANCH  23  24
ATOM     24  P   UNL     1      33.873 -22.646 -18.721  0.00  0.00    +0.533 P 
ATOM     25  O   UNL     1      34.543 -21.405 -19.302  0.00  0.00    -0.115 OA
ATOM     26  O   UNL     1      32.466 -22.398 -18.187  0.00  0.00    -0.222 OA
ATOM     27  O   UNL     1      34.004 -23.888 -19.597  0.00  0.00    -0.115 OA
ENDBRANCH  23  24
ENDBRANCH  22  23
ENDBRANCH   5  22
TORSDOF 8
ENDMDL
MODEL 5
REMARK VINA RESULT:      -9.0      3.680      7.748
REMARK  Name = 46926304
REMARK  8 active torsions:
REMARK  status: ('A' for Active; 'I' for Inactive)
REMARK    1  A    between atoms: C_2  and  O_18
REMARK    2  A    between atoms: C_3  and  O_20
REMARK    3  A    between atoms: C_4  and  N_6
REMARK    4  A    between atoms: C_5  and  C_22
REMARK    5  A    between atoms: C_8  and  O_16
REMARK    6  A    between atoms: C_10  and  C_13
REMARK    7  A    between atoms: C_22  and  O_23
REMARK    8  A    between atoms: O_23  and  P_24
REMARK                            x       y       z     vdW  Elec       q    Type
REMARK                         _______ _______ _______ _____ _____    ______ ____
ROOT
ATOM      1  O   UNL     1      36.709 -23.289 -14.105  0.00  0.00    -0.336 OA
ATOM      2  C   UNL     1      35.510 -24.853 -12.794  0.00  0.00    +0.183 C 
ATOM      3  C   UNL     1      36.961 -24.875 -12.353  0.00  0.00    +0.171 C 
ATOM      4  C   UNL     1      35.416 -23.506 -13.502  0.00  0.00    +0.209 C 
ATOM      5  C   UNL     1      37.663 -24.209 -13.529  0.00  0.00    +0.176 C 
ENDROOT
BRANCH   4   6
ATOM      6  N   UNL     1      34.312 -23.458 -14.531  0.00  0.00    -0.200 NA
ATOM      7  N   UNL     1      33.330 -23.482 -16.523  0.00  0.00    -0.248 NA
ATOM      8  C   UNL     1      32.974 -23.311 -14.291  0.00  0.00    +0.222 C 
ATOM      9  C   UNL     1      34.477 -23.556 -15.885  0.00  0.00    +0.205 C 
ATOM     10  C   UNL     1      32.389 -23.329 -15.535  0.00  0.00    +0.151 C 
BRANCH  10  13
ATOM     11  O   UNL     1      30.566 -22.651 -16.863  0.00  0.00    -0.269 OA
ATOM     12  N   UNL     1      30.071 -23.750 -14.912  0.00  0.00    -0.324 N 
ATOM     13  C   UNL     1      30.991 -23.208 -15.821  0.00  0.00    +0.260 C 
ATOM     14  H   UNL     1      29.106 -23.679 -15.089  0.00  0.00    +0.145 HD
ATOM     15  H   UNL     1      30.392 -24.201 -14.097  0.00  0.00    +0.145 HD
ENDBRANCH  10  13
BRANCH   8  16
ATOM     16  O   UNL     1      32.484 -23.190 -13.067  0.00  0.00    -0.365 OA
ATOM     17  H   UNL     1      33.032 -23.347 -12.325  0.00  0.00    +0.212 HD
ENDBRANCH   8  16
ENDBRANCH   4   6
BRANCH   2  18
ATOM     18  O   UNL     1      34.604 -24.975 -11.715  0.00  0.00    -0.378 OA
ATOM     19  H   UNL     1      33.737 -25.250 -12.051  0.00  0.00    +0.211 HD
ENDBRANCH   2  18
BRANCH   3  20
ATOM     20  O   UNL     1      37.145 -24.049 -11.205  0.00  0.00    -0.379 OA
ATOM     21  H   UNL     1      36.966 -23.125 -11.439  0.00  0.00    +0.211 HD
ENDBRANCH   3  20
BRANCH   5  22
ATOM     22  C   UNL     1      38.086 -25.194 -14.609  0.00  0.00    +0.186 C 
BRANCH  22  23
ATOM     23  O   UNL     1      39.049 -26.079 -14.065  0.00  0.00    -0.268 OA
BRANCH  23  24
ATOM     24  P   UNL     1      40.634 -25.893 -14.495  0.00  0.00    +0.533 P 
ATOM     25  O   UNL     1      41.347 -27.003 -13.727  0.00  0.00    -0.115 OA
ATOM     26  O   UNL     1      40.998 -24.487 -14.033  0.00  0.00    -0.222 OA
ATOM     27  O   UNL     1      40.648 -26.082 -16.010  0.00  0.00    -0.115 OA
ENDBRANCH  23  24
ENDBRANCH  22  23
ENDBRANCH   5  22
TORSDOF 8
ENDMDL
MODEL 6
REMARK VINA RESULT:      -8.4      1.993      2.622
REMARK  Name = 46926304
REMARK  8 active torsions:
REMARK  status: ('A' for Active; 'I' for Inactive)
REMARK    1  A    between atoms: C_2  and  O_18
REMARK    2  A    between atoms: C_3  and  O_20
REMARK    3  A    between atoms: C_4  and  N_6
REMARK    4  A    between atoms: C_5  and  C_22
REMARK    5  A    between atoms: C_8  and  O_16
REMARK    6  A    between atoms: C_10  and  C_13
REMARK    7  A    between atoms: C_22  and  O_23
REMARK    8  A    between atoms: O_23  and  P_24
REMARK                            x       y       z     vdW  Elec       q    Type
REMARK                         _______ _______ _______ _____ _____    ______ ____
ROOT
ATOM      1  O   UNL     1      31.450 -23.975 -16.326  0.00  0.00    -0.336 OA
ATOM      2  C   UNL     1      31.841 -24.223 -14.005  0.00  0.00    +0.183 C 
ATOM      3  C   UNL     1      30.371 -24.481 -14.270  0.00  0.00    +0.171 C 
ATOM      4  C   UNL     1      32.451 -24.423 -15.388  0.00  0.00    +0.209 C 
ATOM      5  C   UNL     1      30.179 -23.859 -15.647  0.00  0.00    +0.176 C 
ENDROOT
BRANCH   4   6
ATOM      6  N   UNL     1      33.751 -23.677 -15.572  0.00  0.00    -0.200 NA
ATOM      7  N   UNL     1      35.680 -22.708 -15.046  0.00  0.00    -0.248 NA
ATOM      8  C   UNL     1      34.262 -23.198 -16.745  0.00  0.00    +0.222 C 
ATOM      9  C   UNL     1      34.637 -23.359 -14.580  0.00  0.00    +0.205 C 
ATOM     10  C   UNL     1      35.452 -22.604 -16.396  0.00  0.00    +0.151 C 
BRANCH  10  13
ATOM     11  O   UNL     1      36.373 -22.160 -18.517  0.00  0.00    -0.269 OA
ATOM     12  N   UNL     1      37.283 -21.032 -16.739  0.00  0.00    -0.324 N 
ATOM     13  C   UNL     1      36.371 -21.951 -17.279  0.00  0.00    +0.260 C 
ATOM     14  H   UNL     1      37.922 -20.571 -17.328  0.00  0.00    +0.145 HD
ATOM     15  H   UNL     1      37.283 -20.850 -15.772  0.00  0.00    +0.145 HD
ENDBRANCH  10  13
BRANCH   8  16
ATOM     16  O   UNL     1      33.637 -23.347 -17.903  0.00  0.00    -0.365 OA
ATOM     17  H   UNL     1      33.016 -24.039 -18.015  0.00  0.00    +0.212 HD
ENDBRANCH   8  16
ENDBRANCH   4   6
BRANCH   2  18
ATOM     18  O   UNL     1      32.387 -25.090 -13.030  0.00  0.00    -0.378 OA
ATOM     19  H   UNL     1      32.572 -25.953 -13.432  0.00  0.00    +0.211 HD
ENDBRANCH   2  18
BRANCH   3  20
ATOM     20  O   UNL     1      30.124 -25.882 -14.381  0.00  0.00    -0.379 OA
ATOM     21  H   UNL     1      29.368 -26.032 -14.969  0.00  0.00    +0.211 HD
ENDBRANCH   3  20
BRANCH   5  22
ATOM     22  C   UNL     1      29.802 -22.386 -15.590  0.00  0.00    +0.186 C 
BRANCH  22  23
ATOM     23  O   UNL     1      29.101 -22.051 -16.774  0.00  0.00    -0.268 OA
BRANCH  23  24
ATOM     24  P   UNL     1      27.500 -22.446 -16.891  0.00  0.00    +0.533 P 
ATOM     25  O   UNL     1      26.884 -21.246 -17.605  0.00  0.00    -0.115 OA
ATOM     26  O   UNL     1      27.036 -22.613 -15.448  0.00  0.00    -0.222 OA
ATOM     27  O   UNL     1      27.478 -23.733 -17.712  0.00  0.00    -0.115 OA
ENDBRANCH  23  24
ENDBRANCH  22  23
ENDBRANCH   5  22
TORSDOF 8
ENDMDL
MODEL 7
REMARK VINA RESULT:      -8.4      2.987      6.787
REMARK  Name = 46926304
REMARK  8 active torsions:
REMARK  status: ('A' for Active; 'I' for Inactive)
REMARK    1  A    between atoms: C_2  and  O_18
REMARK    2  A    between atoms: C_3  and  O_20
REMARK    3  A    between atoms: C_4  and  N_6
REMARK    4  A    between atoms: C_5  and  C_22
REMARK    5  A    between atoms: C_8  and  O_16
REMARK    6  A    between atoms: C_10  and  C_13
REMARK    7  A    between atoms: C_22  and  O_23
REMARK    8  A    between atoms: O_23  and  P_24
REMARK                            x       y       z     vdW  Elec       q    Type
REMARK                         _______ _______ _______ _____ _____    ______ ____
ROOT
ATOM      1  O   UNL     1      36.123 -25.530 -15.223  0.00  0.00    -0.336 OA
ATOM      2  C   UNL     1      36.757 -23.271 -14.915  0.00  0.00    +0.183 C 
ATOM      3  C   UNL     1      37.873 -24.154 -14.392  0.00  0.00    +0.171 C 
ATOM      4  C   UNL     1      36.000 -24.227 -15.830  0.00  0.00    +0.209 C 
ATOM      5  C   UNL     1      37.171 -25.496 -14.228  0.00  0.00    +0.176 C 
ENDROOT
BRANCH   4   6
ATOM      6  N   UNL     1      34.552 -23.840 -16.018  0.00  0.00    -0.200 NA
ATOM      7  N   UNL     1      32.741 -22.982 -16.975  0.00  0.00    -0.248 NA
ATOM      8  C   UNL     1      33.520 -24.087 -15.156  0.00  0.00    +0.222 C 
ATOM      9  C   UNL     1      34.036 -23.175 -17.095  0.00  0.00    +0.205 C 
ATOM     10  C   UNL     1      32.413 -23.548 -15.768  0.00  0.00    +0.151 C 
BRANCH  10  13
ATOM     11  O   UNL     1      30.076 -23.719 -16.003  0.00  0.00    -0.269 OA
ATOM     12  N   UNL     1      30.879 -23.370 -13.883  0.00  0.00    -0.324 N 
ATOM     13  C   UNL     1      31.074 -23.548 -15.261  0.00  0.00    +0.260 C 
ATOM     14  H   UNL     1      29.967 -23.367 -13.513  0.00  0.00    +0.145 HD
ATOM     15  H   UNL     1      31.653 -23.247 -13.288  0.00  0.00    +0.145 HD
ENDBRANCH  10  13
BRANCH   8  16
ATOM     16  O   UNL     1      33.693 -24.724 -14.008  0.00  0.00    -0.365 OA
ATOM     17  H   UNL     1      34.079 -25.577 -13.999  0.00  0.00    +0.212 HD
ENDBRANCH   8  16
ENDBRANCH   4   6
BRANCH   2  18
ATOM     18  O   UNL     1      37.231 -22.121 -15.587  0.00  0.00    -0.378 OA
ATOM     19  H   UNL     1      36.612 -21.882 -16.294  0.00  0.00    +0.211 HD
ENDBRANCH   2  18
BRANCH   3  20
ATOM     20  O   UNL     1      38.890 -24.307 -15.381  0.00  0.00    -0.379 OA
ATOM     21  H   UNL     1      39.695 -23.851 -15.091  0.00  0.00    +0.211 HD
ENDBRANCH   3  20
BRANCH   5  22
ATOM     22  C   UNL     1      36.533 -25.672 -12.858  0.00  0.00    +0.186 C 
BRANCH  22  23
ATOM     23  O   UNL     1      37.204 -24.835 -11.933  0.00  0.00    -0.268 OA
BRANCH  23  24
ATOM     24  P   UNL     1      36.337 -23.675 -11.134  0.00  0.00    +0.533 P 
ATOM     25  O   UNL     1      35.042 -23.579 -11.936  0.00  0.00    -0.115 OA
ATOM     26  O   UNL     1      37.206 -22.424 -11.208  0.00  0.00    -0.222 OA
ATOM     27  O   UNL     1      36.153 -24.232  -9.726  0.00  0.00    -0.115 OA
ENDBRANCH  23  24
ENDBRANCH  22  23
ENDBRANCH   5  22
TORSDOF 8
ENDMDL
MODEL 8
REMARK VINA RESULT:      -8.4      1.634      2.137
REMARK  Name = 46926304
REMARK  8 active torsions:
REMARK  status: ('A' for Active; 'I' for Inactive)
REMARK    1  A    between atoms: C_2  and  O_18
REMARK    2  A    between atoms: C_3  and  O_20
REMARK    3  A    between atoms: C_4  and  N_6
REMARK    4  A    between atoms: C_5  and  C_22
REMARK    5  A    between atoms: C_8  and  O_16
REMARK    6  A    between atoms: C_10  and  C_13
REMARK    7  A    between atoms: C_22  and  O_23
REMARK    8  A    between atoms: O_23  and  P_24
REMARK                            x       y       z     vdW  Elec       q    Type
REMARK                         _______ _______ _______ _____ _____    ______ ____
ROOT
ATOM      1  O   UNL     1      31.207 -24.065 -16.073  0.00  0.00    -0.336 OA
ATOM      2  C   UNL     1      31.009 -24.320 -13.728  0.00  0.00    +0.183 C 
ATOM      3  C   UNL     1      29.626 -24.441 -14.339  0.00  0.00    +0.171 C 
ATOM      4  C   UNL     1      31.909 -24.594 -14.928  0.00  0.00    +0.209 C 
ATOM      5  C   UNL     1      29.828 -23.821 -15.715  0.00  0.00    +0.176 C 
ENDROOT
BRANCH   4   6
ATOM      6  N   UNL     1      33.281 -23.977 -14.789  0.00  0.00    -0.200 NA
ATOM      7  N   UNL     1      35.057 -22.737 -15.277  0.00  0.00    -0.248 NA
ATOM      8  C   UNL     1      34.171 -24.182 -13.773  0.00  0.00    +0.222 C 
ATOM      9  C   UNL     1      33.857 -23.103 -15.669  0.00  0.00    +0.205 C 
ATOM     10  C   UNL     1      35.260 -23.407 -14.096  0.00  0.00    +0.151 C 
BRANCH  10  13
ATOM     11  O   UNL     1      37.589 -23.128 -13.886  0.00  0.00    -0.269 OA
ATOM     12  N   UNL     1      36.388 -23.297 -11.939  0.00  0.00    -0.324 N 
ATOM     13  C   UNL     1      36.468 -23.277 -13.339  0.00  0.00    +0.260 C 
ATOM     14  H   UNL     1      37.207 -23.209 -11.399  0.00  0.00    +0.145 HD
ATOM     15  H   UNL     1      35.514 -23.400 -11.497  0.00  0.00    +0.145 HD
ENDBRANCH  10  13
BRANCH   8  16
ATOM     16  O   UNL     1      33.909 -24.984 -12.752  0.00  0.00    -0.365 OA
ATOM     17  H   UNL     1      33.653 -24.624 -11.927  0.00  0.00    +0.212 HD
ENDBRANCH   8  16
ENDBRANCH   4   6
BRANCH   2  18
ATOM     18  O   UNL     1      31.222 -25.223 -12.661  0.00  0.00    -0.378 OA
ATOM     19  H   UNL     1      31.959 -25.814 -12.879  0.00  0.00    +0.211 HD
ENDBRANCH   2  18
BRANCH   3  20
ATOM     20  O   UNL     1      29.281 -25.813 -14.519  0.00  0.00    -0.379 OA
ATOM     21  H   UNL     1      28.744 -25.909 -15.321  0.00  0.00    +0.211 HD
ENDBRANCH   3  20
BRANCH   5  22
ATOM     22  C   UNL     1      29.590 -22.318 -15.734  0.00  0.00    +0.186 C 
BRANCH  22  23
ATOM     23  O   UNL     1      28.938 -21.977 -16.944  0.00  0.00    -0.268 OA
BRANCH  23  24
ATOM     24  P   UNL     1      27.327 -22.316 -17.104  0.00  0.00    +0.533 P 
ATOM     25  O   UNL     1      26.766 -21.076 -17.794  0.00  0.00    -0.115 OA
ATOM     26  O   UNL     1      26.830 -22.507 -15.675  0.00  0.00    -0.222 OA
ATOM     27  O   UNL     1      27.280 -23.577 -17.961  0.00  0.00    -0.115 OA
ENDBRANCH  23  24
ENDBRANCH  22  23
ENDBRANCH   5  22
TORSDOF 8
ENDMDL
MODEL 9
REMARK VINA RESULT:      -8.3      2.584      3.627
REMARK  Name = 46926304
REMARK  8 active torsions:
REMARK  status: ('A' for Active; 'I' for Inactive)
REMARK    1  A    between atoms: C_2  and  O_18
REMARK    2  A    between atoms: C_3  and  O_20
REMARK    3  A    between atoms: C_4  and  N_6
REMARK    4  A    between atoms: C_5  and  C_22
REMARK    5  A    between atoms: C_8  and  O_16
REMARK    6  A    between atoms: C_10  and  C_13
REMARK    7  A    between atoms: C_22  and  O_23
REMARK    8  A    between atoms: O_23  and  P_24
REMARK                            x       y       z     vdW  Elec       q    Type
REMARK                         _______ _______ _______ _____ _____    ______ ____
ROOT
ATOM      1  O   UNL     1      32.118 -23.982 -16.574  0.00  0.00    -0.336 OA
ATOM      2  C   UNL     1      33.284 -23.260 -14.645  0.00  0.00    +0.183 C 
ATOM      3  C   UNL     1      31.943 -23.818 -14.209  0.00  0.00    +0.171 C 
ATOM      4  C   UNL     1      33.450 -23.881 -16.028  0.00  0.00    +0.209 C 
ATOM      5  C   UNL     1      31.153 -23.807 -15.512  0.00  0.00    +0.176 C 
ENDROOT
BRANCH   4   6
ATOM      6  N   UNL     1      34.356 -23.076 -16.929  0.00  0.00    -0.200 NA
ATOM      7  N   UNL     1      36.200 -22.078 -17.661  0.00  0.00    -0.248 NA
ATOM      8  C   UNL     1      34.020 -22.495 -18.120  0.00  0.00    +0.222 C 
ATOM      9  C   UNL     1      35.674 -22.798 -16.695  0.00  0.00    +0.205 C 
ATOM     10  C   UNL     1      35.174 -21.885 -18.552  0.00  0.00    +0.151 C 
BRANCH  10  13
ATOM     11  O   UNL     1      36.452 -21.029 -20.335  0.00  0.00    -0.269 OA
ATOM     12  N   UNL     1      34.216 -20.521 -20.330  0.00  0.00    -0.324 N 
ATOM     13  C   UNL     1      35.341 -21.137 -19.762  0.00  0.00    +0.260 C 
ATOM     14  H   UNL     1      34.307 -20.002 -21.161  0.00  0.00    +0.145 HD
ATOM     15  H   UNL     1      33.336 -20.609 -19.897  0.00  0.00    +0.145 HD
ENDBRANCH  10  13
BRANCH   8  16
ATOM     16  O   UNL     1      32.802 -22.583 -18.632  0.00  0.00    -0.365 OA
ATOM     17  H   UNL     1      32.327 -21.805 -18.846  0.00  0.00    +0.212 HD
ENDBRANCH   8  16
ENDBRANCH   4   6
BRANCH   2  18
ATOM     18  O   UNL     1      34.335 -23.595 -13.759  0.00  0.00    -0.378 OA
ATOM     19  H   UNL     1      34.370 -24.558 -13.648  0.00  0.00    +0.211 HD
ENDBRANCH   2  18
BRANCH   3  20
ATOM     20  O   UNL     1      32.081 -25.173 -13.789  0.00  0.00    -0.379 OA
ATOM     21  H   UNL     1      31.818 -25.252 -12.858  0.00  0.00    +0.211 HD
ENDBRANCH   3  20
BRANCH   5  22
ATOM     22  C   UNL     1      30.413 -22.499 -15.751  0.00  0.00    +0.186 C 
BRANCH  22  23
ATOM     23  O   UNL     1      29.633 -22.627 -16.926  0.00  0.00    -0.268 OA
BRANCH  23  24
ATOM     24  P   UNL     1      28.001 -22.847 -16.779  0.00  0.00    +0.533 P 
ATOM     25  O   UNL     1      27.413 -21.549 -17.322  0.00  0.00    -0.115 OA
ATOM     26  O   UNL     1      27.773 -23.053 -15.285  0.00  0.00    -0.222 OA
ATOM     27  O   UNL     1      27.697 -24.072 -17.637  0.00  0.00    -0.115 OA
ENDBRANCH  23  24
ENDBRANCH  22  23
ENDBRANCH   5  22
TORSDOF 8
ENDMDL
