MODEL 1
REMARK VINA RESULT:      -8.7      0.000      0.000
REMARK  Name = 9270
REMARK  5 active torsions:
REMARK  status: ('A' for Active; 'I' for Inactive)
REMARK    1  A    between atoms: C_5  and  C_19
REMARK    2  A    between atoms: C_5  and  O_21
REMARK    3  A    between atoms: C_18  and  O_25
REMARK    4  A    between atoms: O_21  and  C_23
REMARK    5  A    between atoms: O_25  and  C_27
REMARK                            x       y       z     vdW  Elec       q    Type
REMARK                         _______ _______ _______ _____ _____    ______ ____
ROOT
ATOM      1  C   UNL     1      35.422 -19.714 -21.263  0.00  0.00    +0.045 C 
ATOM      2  C   UNL     1      34.206 -20.072 -20.380  0.00  0.00    +0.004 C 
ATOM      3  C   UNL     1      34.427 -21.341 -19.551  0.00  0.00    +0.001 C 
ATOM      4  C   UNL     1      35.661 -21.130 -18.622  0.00  0.00    +0.004 C 
ATOM      5  C   UNL     1      34.854 -18.489 -22.042  0.00  0.00    +0.189 C 
ATOM      6  C   UNL     1      36.627 -19.459 -20.338  0.00  0.00    +0.004 C 
ATOM      7  C   UNL     1      33.032 -20.030 -21.354  0.00  0.00    +0.005 C 
ATOM      8  C   UNL     1      36.906 -20.658 -19.413  0.00  0.00    +0.000 C 
ATOM      9  C   UNL     1      35.942 -22.405 -17.772  0.00  0.00    +0.018 C 
ATOM     10  C   UNL     1      33.401 -18.927 -22.367  0.00  0.00    +0.053 C 
ATOM     11  C   UNL     1      33.193 -21.701 -18.713  0.00  0.00    +0.004 C 
ATOM     12  C   UNL     1      35.810 -20.834 -22.274  0.00  0.00    +0.004 C 
ATOM     13  C   UNL     1      34.679 -22.869 -17.057  0.00  0.00    -0.045 C 
ATOM     14  C   UNL     1      33.436 -22.971 -17.903  0.00  0.00    +0.022 C 
ATOM     15  C   UNL     1      37.118 -22.169 -16.798  0.00  0.00    +0.008 C 
ATOM     16  C   UNL     1      37.168 -23.221 -15.697  0.00  0.00    +0.049 C 
ATOM     17  C   UNL     1      34.658 -23.200 -15.754  0.00  0.00    +0.008 C 
ATOM     18  C   UNL     1      35.878 -23.213 -14.882  0.00  0.00    +0.190 C 
ENDROOT
BRANCH   5  19
ATOM     19  C   UNL     1      34.843 -17.242 -21.252  0.00  0.00    -0.040 C 
ATOM     20  C   UNL     1      34.834 -16.227 -20.612  0.00  0.00    -0.011 C 
ENDBRANCH   5  19
BRANCH   5  21
ATOM     21  O   UNL     1      35.580 -18.252 -23.241  0.00  0.00    -0.443 OA
BRANCH  21  23
ATOM     22  O   UNL     1      34.306 -18.989 -25.022  0.00  0.00    -0.250 OA
ATOM     23  C   UNL     1      34.827 -18.092 -24.373  0.00  0.00    +0.318 C 
ATOM     24  C   UNL     1      34.724 -16.637 -24.717  0.00  0.00    +0.121 C 
ENDBRANCH  21  23
ENDBRANCH   5  21
BRANCH  18  25
ATOM     25  O   UNL     1      35.873 -24.378 -14.062  0.00  0.00    -0.448 OA
BRANCH  25  27
ATOM     26  O   UNL     1      34.368 -24.559 -12.319  0.00  0.00    -0.250 OA
ATOM     27  C   UNL     1      35.443 -24.198 -12.778  0.00  0.00    +0.318 C 
ATOM     28  C   UNL     1      36.492 -23.477 -11.988  0.00  0.00    +0.121 C 
ENDBRANCH  25  27
ENDBRANCH  18  25
TORSDOF 5
ENDMDL
MODEL 2
REMARK VINA RESULT:      -8.7      5.342      8.898
REMARK  Name = 9270
REMARK  5 active torsions:
REMARK  status: ('A' for Active; 'I' for Inactive)
REMARK    1  A    between atoms: C_5  and  C_19
REMARK    2  A    between atoms: C_5  and  O_21
REMARK    3  A    between atoms: C_18  and  O_25
REMARK    4  A    between atoms: O_21  and  C_23
REMARK    5  A    between atoms: O_25  and  C_27
REMARK                            x       y       z     vdW  Elec       q    Type
REMARK                         _______ _______ _______ _____ _____    ______ ____
ROOT
ATOM      1  C   UNL     1      36.106 -24.695 -14.356  0.00  0.00    +0.045 C 
ATOM      2  C   UNL     1      35.696 -23.489 -15.231  0.00  0.00    +0.004 C 
ATOM      3  C   UNL     1      34.374 -23.715 -15.971  0.00  0.00    +0.001 C 
ATOM      4  C   UNL     1      33.245 -23.967 -14.926  0.00  0.00    +0.004 C 
ATOM      5  C   UNL     1      37.500 -24.214 -13.850  0.00  0.00    +0.189 C 
ATOM      6  C   UNL     1      35.012 -24.911 -13.295  0.00  0.00    +0.004 C 
ATOM      7  C   UNL     1      36.951 -23.196 -16.048  0.00  0.00    +0.005 C 
ATOM      8  C   UNL     1      33.622 -25.093 -13.930  0.00  0.00    +0.000 C 
ATOM      9  C   UNL     1      31.881 -24.226 -15.632  0.00  0.00    +0.018 C 
ATOM     10  C   UNL     1      38.122 -23.561 -15.113  0.00  0.00    +0.053 C 
ATOM     11  C   UNL     1      34.006 -22.522 -16.864  0.00  0.00    +0.004 C 
ATOM     12  C   UNL     1      36.277 -26.018 -15.159  0.00  0.00    +0.004 C 
ATOM     13  C   UNL     1      31.578 -23.128 -16.643  0.00  0.00    -0.045 C 
ATOM     14  C   UNL     1      32.691 -22.775 -17.595  0.00  0.00    +0.022 C 
ATOM     15  C   UNL     1      30.749 -24.402 -14.595  0.00  0.00    +0.008 C 
ATOM     16  C   UNL     1      29.370 -24.260 -15.226  0.00  0.00    +0.049 C 
ATOM     17  C   UNL     1      30.383 -22.515 -16.718  0.00  0.00    +0.008 C 
ATOM     18  C   UNL     1      29.206 -22.886 -15.867  0.00  0.00    +0.190 C 
ENDROOT
BRANCH   5  19
ATOM     19  C   UNL     1      37.423 -23.228 -12.755  0.00  0.00    -0.040 C 
ATOM     20  C   UNL     1      37.359 -22.426 -11.864  0.00  0.00    -0.011 C 
ENDBRANCH   5  19
BRANCH   5  21
ATOM     21  O   UNL     1      38.300 -25.306 -13.412  0.00  0.00    -0.443 OA
BRANCH  21  23
ATOM     22  O   UNL     1      40.495 -24.586 -13.377  0.00  0.00    -0.250 OA
ATOM     23  C   UNL     1      39.604 -25.294 -13.826  0.00  0.00    +0.318 C 
ATOM     24  C   UNL     1      39.798 -26.289 -14.930  0.00  0.00    +0.121 C 
ENDBRANCH  21  23
ENDBRANCH   5  21
BRANCH  18  25
ATOM     25  O   UNL     1      28.024 -22.913 -16.662  0.00  0.00    -0.448 OA
BRANCH  25  27
ATOM     26  O   UNL     1      26.591 -22.156 -15.016  0.00  0.00    -0.250 OA
ATOM     27  C   UNL     1      26.968 -22.194 -16.179  0.00  0.00    +0.318 C 
ATOM     28  C   UNL     1      26.314 -21.439 -17.296  0.00  0.00    +0.121 C 
ENDBRANCH  25  27
ENDBRANCH  18  25
TORSDOF 5
ENDMDL
MODEL 3
REMARK VINA RESULT:      -8.3      5.874      9.252
REMARK  Name = 9270
REMARK  5 active torsions:
REMARK  status: ('A' for Active; 'I' for Inactive)
REMARK    1  A    between atoms: C_5  and  C_19
REMARK    2  A    between atoms: C_5  and  O_21
REMARK    3  A    between atoms: C_18  and  O_25
REMARK    4  A    between atoms: O_21  and  C_23
REMARK    5  A    between atoms: O_25  and  C_27
REMARK                            x       y       z     vdW  Elec       q    Type
REMARK                         _______ _______ _______ _____ _____    ______ ____
ROOT
ATOM      1  C   UNL     1      36.349 -24.098 -14.321  0.00  0.00    +0.045 C 
ATOM      2  C   UNL     1      35.154 -24.608 -13.483  0.00  0.00    +0.004 C 
ATOM      3  C   UNL     1      33.909 -23.729 -13.629  0.00  0.00    +0.001 C 
ATOM      4  C   UNL     1      33.479 -23.705 -15.127  0.00  0.00    +0.004 C 
ATOM      5  C   UNL     1      37.454 -25.102 -13.875  0.00  0.00    +0.189 C 
ATOM      6  C   UNL     1      35.937 -24.121 -15.804  0.00  0.00    +0.004 C 
ATOM      7  C   UNL     1      35.751 -24.805 -12.092  0.00  0.00    +0.005 C 
ATOM      8  C   UNL     1      34.654 -23.310 -16.058  0.00  0.00    +0.000 C 
ATOM      9  C   UNL     1      32.226 -22.803 -15.332  0.00  0.00    +0.018 C 
ATOM     10  C   UNL     1      37.210 -25.233 -12.348  0.00  0.00    +0.053 C 
ATOM     11  C   UNL     1      32.748 -24.231 -12.758  0.00  0.00    +0.004 C 
ATOM     12  C   UNL     1      36.791 -22.649 -13.958  0.00  0.00    +0.004 C 
ATOM     13  C   UNL     1      31.118 -23.186 -14.360  0.00  0.00    -0.045 C 
ATOM     14  C   UNL     1      31.522 -23.335 -12.916  0.00  0.00    +0.022 C 
ATOM     15  C   UNL     1      31.757 -22.839 -16.804  0.00  0.00    +0.008 C 
ATOM     16  C   UNL     1      30.338 -22.307 -16.965  0.00  0.00    +0.049 C 
ATOM     17  C   UNL     1      29.840 -23.360 -14.741  0.00  0.00    +0.008 C 
ATOM     18  C   UNL     1      29.354 -23.133 -16.141  0.00  0.00    +0.190 C 
ENDROOT
BRANCH   5  19
ATOM     19  C   UNL     1      37.345 -26.425 -14.522  0.00  0.00    -0.040 C 
ATOM     20  C   UNL     1      37.256 -27.500 -15.049  0.00  0.00    -0.011 C 
ENDBRANCH   5  19
BRANCH   5  21
ATOM     21  O   UNL     1      38.757 -24.589 -14.127  0.00  0.00    -0.443 OA
BRANCH  21  23
ATOM     22  O   UNL     1      40.070 -26.298 -13.293  0.00  0.00    -0.250 OA
ATOM     23  C   UNL     1      39.762 -25.515 -14.182  0.00  0.00    +0.318 C 
ATOM     24  C   UNL     1      40.453 -25.441 -15.511  0.00  0.00    +0.121 C 
ENDBRANCH  21  23
ENDBRANCH   5  21
BRANCH  18  25
ATOM     25  O   UNL     1      28.113 -22.434 -16.115  0.00  0.00    -0.448 OA
BRANCH  25  27
ATOM     26  O   UNL     1      27.378 -23.517 -18.018  0.00  0.00    -0.250 OA
ATOM     27  C   UNL     1      27.316 -22.599 -17.212  0.00  0.00    +0.318 C 
ATOM     28  C   UNL     1      26.331 -21.473 -17.298  0.00  0.00    +0.121 C 
ENDBRANCH  25  27
ENDBRANCH  18  25
TORSDOF 5
ENDMDL
MODEL 4
REMARK VINA RESULT:      -8.2      1.457      3.062
REMARK  Name = 9270
REMARK  5 active torsions:
REMARK  status: ('A' for Active; 'I' for Inactive)
REMARK    1  A    between atoms: C_5  and  C_19
REMARK    2  A    between atoms: C_5  and  O_21
REMARK    3  A    between atoms: C_18  and  O_25
REMARK    4  A    between atoms: O_21  and  C_23
REMARK    5  A    between atoms: O_25  and  C_27
REMARK                            x       y       z     vdW  Elec       q    Type
REMARK                         _______ _______ _______ _____ _____    ______ ____
ROOT
ATOM      1  C   UNL     1      34.372 -18.944 -21.840  0.00  0.00    +0.045 C 
ATOM      2  C   UNL     1      35.664 -19.644 -21.361  0.00  0.00    +0.004 C 
ATOM      3  C   UNL     1      35.588 -20.095 -19.899  0.00  0.00    +0.001 C 
ATOM      4  C   UNL     1      34.403 -21.095 -19.740  0.00  0.00    +0.004 C 
ATOM      5  C   UNL     1      34.801 -18.514 -23.276  0.00  0.00    +0.189 C 
ATOM      6  C   UNL     1      33.212 -19.950 -21.726  0.00  0.00    +0.004 C 
ATOM      7  C   UNL     1      36.769 -18.674 -21.770  0.00  0.00    +0.005 C 
ATOM      8  C   UNL     1      33.080 -20.515 -20.300  0.00  0.00    +0.000 C 
ATOM      9  C   UNL     1      34.268 -21.567 -18.261  0.00  0.00    +0.018 C 
ATOM     10  C   UNL     1      36.259 -18.023 -23.072  0.00  0.00    +0.053 C 
ATOM     11  C   UNL     1      36.895 -20.751 -19.433  0.00  0.00    +0.004 C 
ATOM     12  C   UNL     1      34.005 -17.677 -21.010  0.00  0.00    +0.004 C 
ATOM     13  C   UNL     1      35.603 -22.074 -17.731  0.00  0.00    -0.045 C 
ATOM     14  C   UNL     1      36.796 -21.185 -17.974  0.00  0.00    +0.022 C 
ATOM     15  C   UNL     1      33.141 -22.614 -18.118  0.00  0.00    +0.008 C 
ATOM     16  C   UNL     1      33.237 -23.380 -16.804  0.00  0.00    +0.049 C 
ATOM     17  C   UNL     1      35.730 -23.232 -17.059  0.00  0.00    +0.008 C 
ATOM     18  C   UNL     1      34.571 -24.114 -16.701  0.00  0.00    +0.190 C 
ENDROOT
BRANCH   5  19
ATOM     19  C   UNL     1      34.769 -19.618 -24.256  0.00  0.00    -0.040 C 
ATOM     20  C   UNL     1      34.745 -20.515 -25.053  0.00  0.00    -0.011 C 
ENDBRANCH   5  19
BRANCH   5  21
ATOM     21  O   UNL     1      33.986 -17.458 -23.769  0.00  0.00    -0.443 OA
BRANCH  21  23
ATOM     22  O   UNL     1      35.030 -16.762 -25.709  0.00  0.00    -0.250 OA
ATOM     23  C   UNL     1      34.612 -16.550 -24.579  0.00  0.00    +0.318 C 
ATOM     24  C   UNL     1      34.718 -15.229 -23.879  0.00  0.00    +0.121 C 
ENDBRANCH  21  23
ENDBRANCH   5  21
BRANCH  18  25
ATOM     25  O   UNL     1      34.712 -24.576 -15.361  0.00  0.00    -0.448 OA
BRANCH  25  27
ATOM     26  O   UNL     1      36.001 -26.447 -15.778  0.00  0.00    -0.250 OA
ATOM     27  C   UNL     1      35.750 -25.436 -15.137  0.00  0.00    +0.318 C 
ATOM     28  C   UNL     1      36.558 -24.961 -13.969  0.00  0.00    +0.121 C 
ENDBRANCH  25  27
ENDBRANCH  18  25
TORSDOF 5
ENDMDL
MODEL 5
REMARK VINA RESULT:      -8.0      5.745      7.738
REMARK  Name = 9270
REMARK  5 active torsions:
REMARK  status: ('A' for Active; 'I' for Inactive)
REMARK    1  A    between atoms: C_5  and  C_19
REMARK    2  A    between atoms: C_5  and  O_21
REMARK    3  A    between atoms: C_18  and  O_25
REMARK    4  A    between atoms: O_21  and  C_23
REMARK    5  A    between atoms: O_25  and  C_27
REMARK                            x       y       z     vdW  Elec       q    Type
REMARK                         _______ _______ _______ _____ _____    ______ ____
ROOT
ATOM      1  C   UNL     1      31.309 -23.420 -14.838  0.00  0.00    +0.045 C 
ATOM      2  C   UNL     1      32.404 -23.488 -15.926  0.00  0.00    +0.004 C 
ATOM      3  C   UNL     1      33.795 -23.134 -15.391  0.00  0.00    +0.001 C 
ATOM      4  C   UNL     1      34.171 -24.134 -14.257  0.00  0.00    +0.004 C 
ATOM      5  C   UNL     1      30.040 -23.705 -15.697  0.00  0.00    +0.189 C 
ATOM      6  C   UNL     1      31.659 -24.443 -13.742  0.00  0.00    +0.004 C 
ATOM      7  C   UNL     1      31.826 -22.656 -17.068  0.00  0.00    +0.005 C 
ATOM      8  C   UNL     1      33.069 -24.215 -13.171  0.00  0.00    +0.000 C 
ATOM      9  C   UNL     1      35.572 -23.801 -13.663  0.00  0.00    +0.018 C 
ATOM     10  C   UNL     1      30.303 -22.886 -16.989  0.00  0.00    +0.053 C 
ATOM     11  C   UNL     1      34.860 -23.168 -16.497  0.00  0.00    +0.004 C 
ATOM     12  C   UNL     1      31.177 -22.017 -14.173  0.00  0.00    +0.004 C 
ATOM     13  C   UNL     1      36.612 -23.673 -14.768  0.00  0.00    -0.045 C 
ATOM     14  C   UNL     1      36.233 -22.805 -15.941  0.00  0.00    +0.022 C 
ATOM     15  C   UNL     1      35.976 -24.837 -12.590  0.00  0.00    +0.008 C 
ATOM     16  C   UNL     1      37.466 -24.785 -12.278  0.00  0.00    +0.049 C 
ATOM     17  C   UNL     1      37.816 -24.268 -14.709  0.00  0.00    +0.008 C 
ATOM     18  C   UNL     1      38.292 -25.064 -13.530  0.00  0.00    +0.190 C 
ENDROOT
BRANCH   5  19
ATOM     19  C   UNL     1      29.862 -25.133 -16.030  0.00  0.00    -0.040 C 
ATOM     20  C   UNL     1      29.716 -26.293 -16.300  0.00  0.00    -0.011 C 
ENDBRANCH   5  19
BRANCH   5  21
ATOM     21  O   UNL     1      28.859 -23.247 -15.051  0.00  0.00    -0.443 OA
BRANCH  21  23
ATOM     22  O   UNL     1      27.560 -23.580 -16.932  0.00  0.00    -0.250 OA
ATOM     23  C   UNL     1      27.781 -23.026 -15.865  0.00  0.00    +0.318 C 
ATOM     24  C   UNL     1      26.887 -21.988 -15.257  0.00  0.00    +0.121 C 
ENDBRANCH  21  23
ENDBRANCH   5  21
BRANCH  18  25
ATOM     25  O   UNL     1      39.647 -24.736 -13.241  0.00  0.00    -0.448 OA
BRANCH  25  27
ATOM     26  O   UNL     1      41.262 -24.375 -14.853  0.00  0.00    -0.250 OA
ATOM     27  C   UNL     1      40.563 -25.120 -14.180  0.00  0.00    +0.318 C 
ATOM     28  C   UNL     1      40.596 -26.615 -14.275  0.00  0.00    +0.121 C 
ENDBRANCH  25  27
ENDBRANCH  18  25
TORSDOF 5
ENDMDL
MODEL 6
REMARK VINA RESULT:      -7.6      6.424     10.257
REMARK  Name = 9270
REMARK  5 active torsions:
REMARK  status: ('A' for Active; 'I' for Inactive)
REMARK    1  A    between atoms: C_5  and  C_19
REMARK    2  A    between atoms: C_5  and  O_21
REMARK    3  A    between atoms: C_18  and  O_25
REMARK    4  A    between atoms: O_21  and  C_23
REMARK    5  A    between atoms: O_25  and  C_27
REMARK                            x       y       z     vdW  Elec       q    Type
REMARK                         _______ _______ _______ _____ _____    ______ ____
ROOT
ATOM      1  C   UNL     1      31.827 -10.239 -22.546  0.00  0.00    +0.045 C 
ATOM      2  C   UNL     1      32.345 -10.978 -21.291  0.00  0.00    +0.004 C 
ATOM      3  C   UNL     1      32.259 -12.501 -21.422  0.00  0.00    +0.001 C 
ATOM      4  C   UNL     1      33.116 -12.953 -22.643  0.00  0.00    +0.004 C 
ATOM      5  C   UNL     1      31.931  -8.760 -22.065  0.00  0.00    +0.189 C 
ATOM      6  C   UNL     1      32.705 -10.652 -23.741  0.00  0.00    +0.004 C 
ATOM      7  C   UNL     1      31.601 -10.299 -20.144  0.00  0.00    +0.005 C 
ATOM      8  C   UNL     1      32.738 -12.179 -23.931  0.00  0.00    +0.000 C 
ATOM      9  C   UNL     1      33.043 -14.498 -22.833  0.00  0.00    +0.018 C 
ATOM     10  C   UNL     1      31.432  -8.835 -20.597  0.00  0.00    +0.053 C 
ATOM     11  C   UNL     1      32.741 -13.214 -20.150  0.00  0.00    +0.004 C 
ATOM     12  C   UNL     1      30.344 -10.565 -22.893  0.00  0.00    +0.004 C 
ATOM     13  C   UNL     1      33.363 -15.219 -21.530  0.00  0.00    -0.045 C 
ATOM     14  C   UNL     1      32.640 -14.729 -20.303  0.00  0.00    +0.022 C 
ATOM     15  C   UNL     1      33.950 -14.953 -23.998  0.00  0.00    +0.008 C 
ATOM     16  C   UNL     1      34.215 -16.453 -23.963  0.00  0.00    +0.049 C 
ATOM     17  C   UNL     1      34.218 -16.255 -21.461  0.00  0.00    +0.008 C 
ATOM     18  C   UNL     1      34.896 -16.853 -22.658  0.00  0.00    +0.190 C 
ENDROOT
BRANCH   5  19
ATOM     19  C   UNL     1      33.306  -8.222 -22.106  0.00  0.00    -0.040 C 
ATOM     20  C   UNL     1      34.423  -7.784 -22.139  0.00  0.00    -0.011 C 
ENDBRANCH   5  19
BRANCH   5  21
ATOM     21  O   UNL     1      31.094  -7.903 -22.830  0.00  0.00    -0.443 OA
BRANCH  21  23
ATOM     22  O   UNL     1      31.086  -5.990 -21.534  0.00  0.00    -0.250 OA
ATOM     23  C   UNL     1      31.247  -6.562 -22.604  0.00  0.00    +0.318 C 
ATOM     24  C   UNL     1      31.648  -5.872 -23.873  0.00  0.00    +0.121 C 
ENDBRANCH  21  23
ENDBRANCH   5  21
BRANCH  18  25
ATOM     25  O   UNL     1      34.868 -18.274 -22.568  0.00  0.00    -0.448 OA
BRANCH  25  27
ATOM     26  O   UNL     1      36.128 -18.616 -20.663  0.00  0.00    -0.250 OA
ATOM     27  C   UNL     1      35.119 -18.796 -21.331  0.00  0.00    +0.318 C 
ATOM     28  C   UNL     1      33.963 -19.641 -20.892  0.00  0.00    +0.121 C 
ENDBRANCH  25  27
ENDBRANCH  18  25
TORSDOF 5
ENDMDL
MODEL 7
REMARK VINA RESULT:      -7.4      1.516      9.096
REMARK  Name = 9270
REMARK  5 active torsions:
REMARK  status: ('A' for Active; 'I' for Inactive)
REMARK    1  A    between atoms: C_5  and  C_19
REMARK    2  A    between atoms: C_5  and  O_21
REMARK    3  A    between atoms: C_18  and  O_25
REMARK    4  A    between atoms: O_21  and  C_23
REMARK    5  A    between atoms: O_25  and  C_27
REMARK                            x       y       z     vdW  Elec       q    Type
REMARK                         _______ _______ _______ _____ _____    ______ ____
ROOT
ATOM      1  C   UNL     1      36.348 -23.572 -15.127  0.00  0.00    +0.045 C 
ATOM      2  C   UNL     1      35.100 -23.894 -15.979  0.00  0.00    +0.004 C 
ATOM      3  C   UNL     1      34.638 -22.707 -16.828  0.00  0.00    +0.001 C 
ATOM      4  C   UNL     1      35.793 -22.292 -17.790  0.00  0.00    +0.004 C 
ATOM      5  C   UNL     1      36.488 -24.897 -14.318  0.00  0.00    +0.189 C 
ATOM      6  C   UNL     1      37.500 -23.209 -16.082  0.00  0.00    +0.004 C 
ATOM      7  C   UNL     1      34.125 -24.497 -14.972  0.00  0.00    +0.005 C 
ATOM      8  C   UNL     1      37.121 -22.055 -17.028  0.00  0.00    +0.000 C 
ATOM      9  C   UNL     1      35.378 -21.069 -18.661  0.00  0.00    +0.018 C 
ATOM     10  C   UNL     1      35.018 -25.241 -13.958  0.00  0.00    +0.053 C 
ATOM     11  C   UNL     1      33.375 -23.036 -17.636  0.00  0.00    +0.004 C 
ATOM     12  C   UNL     1      36.139 -22.385 -14.140  0.00  0.00    +0.004 C 
ATOM     13  C   UNL     1      34.040 -21.320 -19.345  0.00  0.00    -0.045 C 
ATOM     14  C   UNL     1      32.931 -21.836 -18.467  0.00  0.00    +0.022 C 
ATOM     15  C   UNL     1      36.495 -20.705 -19.666  0.00  0.00    +0.008 C 
ATOM     16  C   UNL     1      35.988 -19.798 -20.780  0.00  0.00    +0.049 C 
ATOM     17  C   UNL     1      33.831 -21.075 -20.651  0.00  0.00    +0.008 C 
ATOM     18  C   UNL     1      34.862 -20.472 -21.558  0.00  0.00    +0.190 C 
ENDROOT
BRANCH   5  19
ATOM     19  C   UNL     1      37.091 -26.000 -15.093  0.00  0.00    -0.040 C 
ATOM     20  C   UNL     1      37.581 -26.896 -15.723  0.00  0.00    -0.011 C 
ENDBRANCH   5  19
BRANCH   5  21
ATOM     21  O   UNL     1      37.257 -24.708 -13.137  0.00  0.00    -0.443 OA
BRANCH  21  23
ATOM     22  O   UNL     1      36.895 -26.514 -11.741  0.00  0.00    -0.250 OA
ATOM     23  C   UNL     1      36.783 -25.326 -12.012  0.00  0.00    +0.318 C 
ATOM     24  C   UNL     1      36.092 -24.326 -11.134  0.00  0.00    +0.121 C 
ENDBRANCH  21  23
ENDBRANCH   5  21
BRANCH  18  25
ATOM     25  O   UNL     1      34.256 -19.488 -22.391  0.00  0.00    -0.448 OA
BRANCH  25  27
ATOM     26  O   UNL     1      35.076 -20.095 -24.463  0.00  0.00    -0.250 OA
ATOM     27  C   UNL     1      34.873 -19.264 -23.589  0.00  0.00    +0.318 C 
ATOM     28  C   UNL     1      35.280 -17.825 -23.689  0.00  0.00    +0.121 C 
ENDBRANCH  25  27
ENDBRANCH  18  25
TORSDOF 5
ENDMDL
MODEL 8
REMARK VINA RESULT:      -6.9      2.003      8.765
REMARK  Name = 9270
REMARK  5 active torsions:
REMARK  status: ('A' for Active; 'I' for Inactive)
REMARK    1  A    between atoms: C_5  and  C_19
REMARK    2  A    between atoms: C_5  and  O_21
REMARK    3  A    between atoms: C_18  and  O_25
REMARK    4  A    between atoms: O_21  and  C_23
REMARK    5  A    between atoms: O_25  and  C_27
REMARK                            x       y       z     vdW  Elec       q    Type
REMARK                         _______ _______ _______ _____ _____    ______ ____
ROOT
ATOM      1  C   UNL     1      33.309 -23.614 -16.719  0.00  0.00    +0.045 C 
ATOM      2  C   UNL     1      34.624 -22.806 -16.642  0.00  0.00    +0.004 C 
ATOM      3  C   UNL     1      35.141 -22.382 -18.020  0.00  0.00    +0.001 C 
ATOM      4  C   UNL     1      34.063 -21.497 -18.715  0.00  0.00    +0.004 C 
ATOM      5  C   UNL     1      33.118 -23.984 -15.216  0.00  0.00    +0.189 C 
ATOM      6  C   UNL     1      32.234 -22.719 -17.363  0.00  0.00    +0.004 C 
ATOM      7  C   UNL     1      35.521 -23.666 -15.756  0.00  0.00    +0.005 C 
ATOM      8  C   UNL     1      32.676 -22.187 -18.737  0.00  0.00    +0.000 C 
ATOM      9  C   UNL     1      34.534 -21.058 -20.134  0.00  0.00    +0.018 C 
ATOM     10  C   UNL     1      34.557 -24.343 -14.761  0.00  0.00    +0.053 C 
ATOM     11  C   UNL     1      36.468 -21.616 -17.923  0.00  0.00    +0.004 C 
ATOM     12  C   UNL     1      33.427 -24.919 -17.561  0.00  0.00    +0.004 C 
ATOM     13  C   UNL     1      35.925 -20.439 -20.076  0.00  0.00    -0.045 C 
ATOM     14  C   UNL     1      36.965 -21.212 -19.308  0.00  0.00    +0.022 C 
ATOM     15  C   UNL     1      33.498 -20.120 -20.793  0.00  0.00    +0.008 C 
ATOM     16  C   UNL     1      34.084 -19.365 -21.980  0.00  0.00    +0.049 C 
ATOM     17  C   UNL     1      36.235 -19.283 -20.689  0.00  0.00    +0.008 C 
ATOM     18  C   UNL     1      35.274 -18.515 -21.547  0.00  0.00    +0.190 C 
ENDROOT
BRANCH   5  19
ATOM     19  C   UNL     1      32.588 -22.875 -14.399  0.00  0.00    -0.040 C 
ATOM     20  C   UNL     1      32.159 -21.972 -13.734  0.00  0.00    -0.011 C 
ENDBRANCH   5  19
BRANCH   5  21
ATOM     21  O   UNL     1      32.255 -25.104 -15.061  0.00  0.00    -0.443 OA
BRANCH  21  23
ATOM     22  O   UNL     1      31.227 -24.991 -12.995  0.00  0.00    -0.250 OA
ATOM     23  C   UNL     1      31.193 -24.926 -14.216  0.00  0.00    +0.318 C 
ATOM     24  C   UNL     1      29.954 -24.633 -15.008  0.00  0.00    +0.121 C 
ENDBRANCH  21  23
ENDBRANCH   5  21
BRANCH  18  25
ATOM     25  O   UNL     1      35.935 -18.059 -22.723  0.00  0.00    -0.448 OA
BRANCH  25  27
ATOM     26  O   UNL     1      35.256 -15.856 -22.871  0.00  0.00    -0.250 OA
ATOM     27  C   UNL     1      35.369 -16.980 -23.341  0.00  0.00    +0.318 C 
ATOM     28  C   UNL     1      34.891 -17.369 -24.707  0.00  0.00    +0.121 C 
ENDBRANCH  25  27
ENDBRANCH  18  25
TORSDOF 5
ENDMDL
MODEL 9
REMARK VINA RESULT:      -6.7      4.347      9.987
REMARK  Name = 9270
REMARK  5 active torsions:
REMARK  status: ('A' for Active; 'I' for Inactive)
REMARK    1  A    between atoms: C_5  and  C_19
REMARK    2  A    between atoms: C_5  and  O_21
REMARK    3  A    between atoms: C_18  and  O_25
REMARK    4  A    between atoms: O_21  and  C_23
REMARK    5  A    between atoms: O_25  and  C_27
REMARK                            x       y       z     vdW  Elec       q    Type
REMARK                         _______ _______ _______ _____ _____    ______ ____
ROOT
ATOM      1  C   UNL     1      34.356 -18.141 -22.134  0.00  0.00    +0.045 C 
ATOM      2  C   UNL     1      34.526 -17.154 -23.311  0.00  0.00    +0.004 C 
ATOM      3  C   UNL     1      33.466 -16.049 -23.317  0.00  0.00    +0.001 C 
ATOM      4  C   UNL     1      33.566 -15.244 -21.986  0.00  0.00    +0.004 C 
ATOM      5  C   UNL     1      35.473 -19.175 -22.469  0.00  0.00    +0.189 C 
ATOM      6  C   UNL     1      34.502 -17.351 -20.821  0.00  0.00    +0.004 C 
ATOM      7  C   UNL     1      34.639 -18.066 -24.529  0.00  0.00    +0.005 C 
ATOM      8  C   UNL     1      33.516 -16.172 -20.746  0.00  0.00    +0.000 C 
ATOM      9  C   UNL     1      32.489 -14.120 -21.934  0.00  0.00    +0.018 C 
ATOM     10  C   UNL     1      35.353 -19.330 -24.009  0.00  0.00    +0.053 C 
ATOM     11  C   UNL     1      33.630 -15.104 -24.515  0.00  0.00    +0.004 C 
ATOM     12  C   UNL     1      32.974 -18.861 -22.120  0.00  0.00    +0.004 C 
ATOM     13  C   UNL     1      32.534 -13.268 -23.196  0.00  0.00    -0.045 C 
ATOM     14  C   UNL     1      32.559 -14.017 -24.503  0.00  0.00    +0.022 C 
ATOM     15  C   UNL     1      32.637 -13.275 -20.647  0.00  0.00    +0.008 C 
ATOM     16  C   UNL     1      31.886 -11.954 -20.743  0.00  0.00    +0.049 C 
ATOM     17  C   UNL     1      32.525 -11.924 -23.170  0.00  0.00    +0.008 C 
ATOM     18  C   UNL     1      32.404 -11.119 -21.910  0.00  0.00    +0.190 C 
ENDROOT
BRANCH   5  19
ATOM     19  C   UNL     1      36.829 -18.715 -22.110  0.00  0.00    -0.040 C 
ATOM     20  C   UNL     1      37.932 -18.342 -21.818  0.00  0.00    -0.011 C 
ENDBRANCH   5  19
BRANCH   5  21
ATOM     21  O   UNL     1      35.240 -20.422 -21.826  0.00  0.00    -0.443 OA
BRANCH  21  23
ATOM     22  O   UNL     1      36.352 -20.035 -19.837  0.00  0.00    -0.250 OA
ATOM     23  C   UNL     1      35.376 -20.424 -20.464  0.00  0.00    +0.318 C 
ATOM     24  C   UNL     1      34.137 -20.980 -19.828  0.00  0.00    +0.121 C 
ENDBRANCH  21  23
ENDBRANCH   5  21
BRANCH  18  25
ATOM     25  O   UNL     1      31.496 -10.040 -22.112  0.00  0.00    -0.448 OA
BRANCH  25  27
ATOM     26  O   UNL     1      32.184  -8.242 -23.389  0.00  0.00    -0.250 OA
ATOM     27  C   UNL     1      32.067  -8.815 -22.315  0.00  0.00    +0.318 C 
ATOM     28  C   UNL     1      32.545  -8.255 -21.010  0.00  0.00    +0.121 C 
ENDBRANCH  25  27
ENDBRANCH  18  25
TORSDOF 5
ENDMDL
