MODEL 1
REMARK VINA RESULT:      -5.7      0.000      0.000
REMARK  Name = 2366
REMARK  3 active torsions:
REMARK  status: ('A' for Active; 'I' for Inactive)
REMARK    1  A    between atoms: C_1  and  C_3
REMARK    2  A    between atoms: C_1  and  C_8
REMARK    3  A    between atoms: C_8  and  N_9
REMARK                            x       y       z     vdW  Elec       q    Type
REMARK                         _______ _______ _______ _____ _____    ______ ____
ROOT
ATOM      1  C   UNL     1      34.233 -18.490 -21.438  0.00  0.00    +0.023 C 
ENDROOT
BRANCH   1   3
ATOM      2  N   UNL     1      35.682 -20.083 -20.332  0.00  0.00    -0.248 NA
ATOM      3  C   UNL     1      34.411 -19.735 -20.635  0.00  0.00    +0.057 C 
ATOM      4  C   UNL     1      33.295 -20.457 -20.246  0.00  0.00    +0.015 C 
ATOM      5  C   UNL     1      33.496 -21.612 -19.497  0.00  0.00    +0.003 C 
ATOM      6  C   UNL     1      35.837 -21.212 -19.604  0.00  0.00    +0.098 C 
ATOM      7  C   UNL     1      34.787 -22.004 -19.166  0.00  0.00    +0.021 C 
ENDBRANCH   1   3
BRANCH   1   8
ATOM      8  C   UNL     1      35.565 -17.756 -21.660  0.00  0.00    -0.075 C 
BRANCH   8   9
ATOM      9  N   UNL     1      36.186 -18.142 -22.923  0.00  0.00    +0.383 N 
ATOM     10  C   UNL     1      35.188 -18.255 -23.978  0.00  0.00    -0.106 C 
ATOM     11  H   UNL     1      36.651 -19.043 -22.806  0.00  0.00    -0.085 HD
ATOM     12  H   UNL     1      36.861 -17.424 -23.188  0.00  0.00    -0.085 HD
ENDBRANCH   8   9
ENDBRANCH   1   8
TORSDOF 3
ENDMDL
MODEL 2
REMARK VINA RESULT:      -5.6      1.228      1.890
REMARK  Name = 2366
REMARK  3 active torsions:
REMARK  status: ('A' for Active; 'I' for Inactive)
REMARK    1  A    between atoms: C_1  and  C_3
REMARK    2  A    between atoms: C_1  and  C_8
REMARK    3  A    between atoms: C_8  and  N_9
REMARK                            x       y       z     vdW  Elec       q    Type
REMARK                         _______ _______ _______ _____ _____    ______ ____
ROOT
ATOM      1  C   UNL     1      36.195 -18.584 -21.634  0.00  0.00    +0.023 C 
ENDROOT
BRANCH   1   3
ATOM      2  N   UNL     1      33.871 -19.156 -21.262  0.00  0.00    -0.248 NA
ATOM      3  C   UNL     1      35.163 -19.459 -21.003  0.00  0.00    +0.057 C 
ATOM      4  C   UNL     1      35.566 -20.515 -20.202  0.00  0.00    +0.015 C 
ATOM      5  C   UNL     1      34.580 -21.311 -19.630  0.00  0.00    +0.003 C 
ATOM      6  C   UNL     1      32.941 -19.952 -20.688  0.00  0.00    +0.098 C 
ATOM      7  C   UNL     1      33.240 -21.031 -19.872  0.00  0.00    +0.021 C 
ENDBRANCH   1   3
BRANCH   1   8
ATOM      8  C   UNL     1      35.568 -17.556 -22.588  0.00  0.00    -0.075 C 
BRANCH   8   9
ATOM      9  N   UNL     1      35.439 -18.089 -23.940  0.00  0.00    +0.383 N 
ATOM     10  C   UNL     1      34.762 -17.137 -24.810  0.00  0.00    -0.106 C 
ATOM     11  H   UNL     1      34.899 -18.954 -23.909  0.00  0.00    -0.085 HD
ATOM     12  H   UNL     1      36.372 -18.265 -24.313  0.00  0.00    -0.085 HD
ENDBRANCH   8   9
ENDBRANCH   1   8
TORSDOF 3
ENDMDL
MODEL 3
REMARK VINA RESULT:      -5.4      2.642      5.437
REMARK  Name = 2366
REMARK  3 active torsions:
REMARK  status: ('A' for Active; 'I' for Inactive)
REMARK    1  A    between atoms: C_1  and  C_3
REMARK    2  A    between atoms: C_1  and  C_8
REMARK    3  A    between atoms: C_8  and  N_9
REMARK                            x       y       z     vdW  Elec       q    Type
REMARK                         _______ _______ _______ _____ _____    ______ ____
ROOT
ATOM      1  C   UNL     1      33.805 -23.075 -18.736  0.00  0.00    +0.023 C 
ENDROOT
BRANCH   1   3
ATOM      2  N   UNL     1      32.767 -21.172 -19.815  0.00  0.00    -0.248 NA
ATOM      3  C   UNL     1      33.923 -21.799 -19.501  0.00  0.00    +0.057 C 
ATOM      4  C   UNL     1      35.179 -21.327 -19.844  0.00  0.00    +0.015 C 
ATOM      5  C   UNL     1      35.255 -20.135 -20.556  0.00  0.00    +0.003 C 
ATOM      6  C   UNL     1      32.881 -20.017 -20.508  0.00  0.00    +0.098 C 
ATOM      7  C   UNL     1      34.088 -19.461 -20.899  0.00  0.00    +0.021 C 
ENDBRANCH   1   3
BRANCH   1   8
ATOM      8  C   UNL     1      33.119 -22.866 -17.377  0.00  0.00    -0.075 C 
BRANCH   8   9
ATOM      9  N   UNL     1      31.681 -22.666 -17.527  0.00  0.00    +0.383 N 
ATOM     10  C   UNL     1      30.981 -22.999 -16.295  0.00  0.00    -0.106 C 
ATOM     11  H   UNL     1      31.337 -23.265 -18.279  0.00  0.00    -0.085 HD
ATOM     12  H   UNL     1      31.509 -21.685 -17.746  0.00  0.00    -0.085 HD
ENDBRANCH   8   9
ENDBRANCH   1   8
TORSDOF 3
ENDMDL
MODEL 4
REMARK VINA RESULT:      -5.4      1.549      2.047
REMARK  Name = 2366
REMARK  3 active torsions:
REMARK  status: ('A' for Active; 'I' for Inactive)
REMARK    1  A    between atoms: C_1  and  C_3
REMARK    2  A    between atoms: C_1  and  C_8
REMARK    3  A    between atoms: C_8  and  N_9
REMARK                            x       y       z     vdW  Elec       q    Type
REMARK                         _______ _______ _______ _____ _____    ______ ____
ROOT
ATOM      1  C   UNL     1      35.694 -18.386 -21.704  0.00  0.00    +0.023 C 
ENDROOT
BRANCH   1   3
ATOM      2  N   UNL     1      35.693 -20.301 -20.222  0.00  0.00    -0.248 NA
ATOM      3  C   UNL     1      34.950 -19.440 -20.955  0.00  0.00    +0.057 C 
ATOM      4  C   UNL     1      33.568 -19.488 -21.041  0.00  0.00    +0.015 C 
ATOM      5  C   UNL     1      32.906 -20.482 -20.330  0.00  0.00    +0.003 C 
ATOM      6  C   UNL     1      35.013 -21.253 -19.545  0.00  0.00    +0.098 C 
ATOM      7  C   UNL     1      33.634 -21.386 -19.565  0.00  0.00    +0.021 C 
ENDBRANCH   1   3
BRANCH   1   8
ATOM      8  C   UNL     1      34.868 -17.099 -21.854  0.00  0.00    -0.075 C 
BRANCH   8   9
ATOM      9  N   UNL     1      34.941 -16.272 -20.654  0.00  0.00    +0.383 N 
ATOM     10  C   UNL     1      34.027 -15.142 -20.747  0.00  0.00    -0.106 C 
ATOM     11  H   UNL     1      35.894 -15.922 -20.547  0.00  0.00    -0.085 HD
ATOM     12  H   UNL     1      34.678 -16.839 -19.849  0.00  0.00    -0.085 HD
ENDBRANCH   8   9
ENDBRANCH   1   8
TORSDOF 3
ENDMDL
MODEL 5
REMARK VINA RESULT:      -5.4      2.053      4.650
REMARK  Name = 2366
REMARK  3 active torsions:
REMARK  status: ('A' for Active; 'I' for Inactive)
REMARK    1  A    between atoms: C_1  and  C_3
REMARK    2  A    between atoms: C_1  and  C_8
REMARK    3  A    between atoms: C_8  and  N_9
REMARK                            x       y       z     vdW  Elec       q    Type
REMARK                         _______ _______ _______ _____ _____    ______ ____
ROOT
ATOM      1  C   UNL     1      36.509 -21.486 -19.237  0.00  0.00    +0.023 C 
ENDROOT
BRANCH   1   3
ATOM      2  N   UNL     1      35.645 -19.637 -20.542  0.00  0.00    -0.248 NA
ATOM      3  C   UNL     1      35.356 -20.764 -19.851  0.00  0.00    +0.057 C 
ATOM      4  C   UNL     1      34.076 -21.268 -19.691  0.00  0.00    +0.015 C 
ATOM      5  C   UNL     1      33.024 -20.572 -20.277  0.00  0.00    +0.003 C 
ATOM      6  C   UNL     1      34.596 -18.988 -21.096  0.00  0.00    +0.098 C 
ATOM      7  C   UNL     1      33.280 -19.409 -20.994  0.00  0.00    +0.021 C 
ENDBRANCH   1   3
BRANCH   1   8
ATOM      8  C   UNL     1      36.198 -21.948 -17.805  0.00  0.00    -0.075 C 
BRANCH   8   9
ATOM      9  N   UNL     1      37.134 -21.377 -16.843  0.00  0.00    +0.383 N 
ATOM     10  C   UNL     1      37.456 -22.341 -15.799  0.00  0.00    -0.106 C 
ATOM     11  H   UNL     1      36.713 -20.551 -16.415  0.00  0.00    -0.085 HD
ATOM     12  H   UNL     1      37.994 -21.126 -17.331  0.00  0.00    -0.085 HD
ENDBRANCH   8   9
ENDBRANCH   1   8
TORSDOF 3
ENDMDL
MODEL 6
REMARK VINA RESULT:      -5.3      1.418      4.672
REMARK  Name = 2366
REMARK  3 active torsions:
REMARK  status: ('A' for Active; 'I' for Inactive)
REMARK    1  A    between atoms: C_1  and  C_3
REMARK    2  A    between atoms: C_1  and  C_8
REMARK    3  A    between atoms: C_8  and  N_9
REMARK                            x       y       z     vdW  Elec       q    Type
REMARK                         _______ _______ _______ _____ _____    ______ ____
ROOT
ATOM      1  C   UNL     1      34.528 -20.024 -20.700  0.00  0.00    +0.023 C 
ENDROOT
BRANCH   1   3
ATOM      2  N   UNL     1      34.773 -19.275 -22.990  0.00  0.00    -0.248 NA
ATOM      3  C   UNL     1      34.711 -18.919 -21.686  0.00  0.00    +0.057 C 
ATOM      4  C   UNL     1      34.804 -17.613 -21.234  0.00  0.00    +0.015 C 
ATOM      5  C   UNL     1      34.972 -16.607 -22.179  0.00  0.00    +0.003 C 
ATOM      6  C   UNL     1      34.937 -18.269 -23.878  0.00  0.00    +0.098 C 
ATOM      7  C   UNL     1      35.041 -16.933 -23.528  0.00  0.00    +0.021 C 
ENDBRANCH   1   3
BRANCH   1   8
ATOM      8  C   UNL     1      33.045 -20.272 -20.385  0.00  0.00    -0.075 C 
BRANCH   8   9
ATOM      9  N   UNL     1      32.820 -21.627 -19.892  0.00  0.00    +0.383 N 
ATOM     10  C   UNL     1      33.975 -22.104 -19.145  0.00  0.00    -0.106 C 
ATOM     11  H   UNL     1      32.656 -22.248 -20.685  0.00  0.00    -0.085 HD
ATOM     12  H   UNL     1      32.011 -21.619 -19.272  0.00  0.00    -0.085 HD
ENDBRANCH   8   9
ENDBRANCH   1   8
TORSDOF 3
ENDMDL
MODEL 7
REMARK VINA RESULT:      -5.3      1.352      4.875
REMARK  Name = 2366
REMARK  3 active torsions:
REMARK  status: ('A' for Active; 'I' for Inactive)
REMARK    1  A    between atoms: C_1  and  C_3
REMARK    2  A    between atoms: C_1  and  C_8
REMARK    3  A    between atoms: C_8  and  N_9
REMARK                            x       y       z     vdW  Elec       q    Type
REMARK                         _______ _______ _______ _____ _____    ______ ____
ROOT
ATOM      1  C   UNL     1      36.050 -18.670 -21.441  0.00  0.00    +0.023 C 
ENDROOT
BRANCH   1   3
ATOM      2  N   UNL     1      35.408 -16.862 -22.919  0.00  0.00    -0.248 NA
ATOM      3  C   UNL     1      35.451 -18.200 -22.725  0.00  0.00    +0.057 C 
ATOM      4  C   UNL     1      34.981 -19.131 -23.636  0.00  0.00    +0.015 C 
ATOM      5  C   UNL     1      34.431 -18.660 -24.823  0.00  0.00    +0.003 C 
ATOM      6  C   UNL     1      34.866 -16.443 -24.084  0.00  0.00    +0.098 C 
ATOM      7  C   UNL     1      34.368 -17.292 -25.059  0.00  0.00    +0.021 C 
ENDBRANCH   1   3
BRANCH   1   8
ATOM      8  C   UNL     1      35.303 -19.886 -20.873  0.00  0.00    -0.075 C 
BRANCH   8   9
ATOM      9  N   UNL     1      36.038 -20.502 -19.773  0.00  0.00    +0.383 N 
ATOM     10  C   UNL     1      35.364 -21.707 -19.310  0.00  0.00    -0.106 C 
ATOM     11  H   UNL     1      36.103 -19.838 -19.000  0.00  0.00    -0.085 HD
ATOM     12  H   UNL     1      36.969 -20.755 -20.104  0.00  0.00    -0.085 HD
ENDBRANCH   8   9
ENDBRANCH   1   8
TORSDOF 3
ENDMDL
MODEL 8
REMARK VINA RESULT:      -5.2      2.813      4.356
REMARK  Name = 2366
REMARK  3 active torsions:
REMARK  status: ('A' for Active; 'I' for Inactive)
REMARK    1  A    between atoms: C_1  and  C_3
REMARK    2  A    between atoms: C_1  and  C_8
REMARK    3  A    between atoms: C_8  and  N_9
REMARK                            x       y       z     vdW  Elec       q    Type
REMARK                         _______ _______ _______ _____ _____    ______ ____
ROOT
ATOM      1  C   UNL     1      34.626 -15.821 -20.749  0.00  0.00    +0.023 C 
ENDROOT
BRANCH   1   3
ATOM      2  N   UNL     1      34.972 -16.603 -23.015  0.00  0.00    -0.248 NA
ATOM      3  C   UNL     1      34.696 -16.940 -21.734  0.00  0.00    +0.057 C 
ATOM      4  C   UNL     1      34.482 -18.239 -21.303  0.00  0.00    +0.015 C 
ATOM      5  C   UNL     1      34.555 -19.258 -22.246  0.00  0.00    +0.003 C 
ATOM      6  C   UNL     1      35.034 -17.621 -23.902  0.00  0.00    +0.098 C 
ATOM      7  C   UNL     1      34.836 -18.952 -23.572  0.00  0.00    +0.021 C 
ENDBRANCH   1   3
BRANCH   1   8
ATOM      8  C   UNL     1      33.206 -15.246 -20.634  0.00  0.00    -0.075 C 
BRANCH   8   9
ATOM      9  N   UNL     1      32.637 -14.956 -21.946  0.00  0.00    +0.383 N 
ATOM     10  C   UNL     1      32.326 -13.540 -22.074  0.00  0.00    -0.106 C 
ATOM     11  H   UNL     1      31.781 -15.499 -22.067  0.00  0.00    -0.085 HD
ATOM     12  H   UNL     1      33.320 -15.206 -22.661  0.00  0.00    -0.085 HD
ENDBRANCH   8   9
ENDBRANCH   1   8
TORSDOF 3
ENDMDL
MODEL 9
REMARK VINA RESULT:      -5.2      2.188      5.039
REMARK  Name = 2366
REMARK  3 active torsions:
REMARK  status: ('A' for Active; 'I' for Inactive)
REMARK    1  A    between atoms: C_1  and  C_3
REMARK    2  A    between atoms: C_1  and  C_8
REMARK    3  A    between atoms: C_8  and  N_9
REMARK                            x       y       z     vdW  Elec       q    Type
REMARK                         _______ _______ _______ _____ _____    ______ ____
ROOT
ATOM      1  C   UNL     1      34.728 -22.340 -18.577  0.00  0.00    +0.023 C 
ENDROOT
BRANCH   1   3
ATOM      2  N   UNL     1      35.558 -20.584 -20.022  0.00  0.00    -0.248 NA
ATOM      3  C   UNL     1      34.472 -21.225 -19.534  0.00  0.00    +0.057 C 
ATOM      4  C   UNL     1      33.166 -20.905 -19.871  0.00  0.00    +0.015 C 
ATOM      5  C   UNL     1      32.962 -19.861 -20.767  0.00  0.00    +0.003 C 
ATOM      6  C   UNL     1      35.319 -19.575 -20.890  0.00  0.00    +0.098 C 
ATOM      7  C   UNL     1      34.054 -19.178 -21.290  0.00  0.00    +0.021 C 
ENDBRANCH   1   3
BRANCH   1   8
ATOM      8  C   UNL     1      33.423 -22.909 -17.998  0.00  0.00    -0.075 C 
BRANCH   8   9
ATOM      9  N   UNL     1      33.636 -23.512 -16.686  0.00  0.00    +0.383 N 
ATOM     10  C   UNL     1      34.892 -23.059 -16.106  0.00  0.00    -0.106 C 
ATOM     11  H   UNL     1      33.660 -24.527 -16.784  0.00  0.00    -0.085 HD
ATOM     12  H   UNL     1      32.872 -23.232 -16.070  0.00  0.00    -0.085 HD
ENDBRANCH   8   9
ENDBRANCH   1   8
TORSDOF 3
ENDMDL
