MODEL 1
REMARK VINA RESULT:     -10.4      0.000      0.000
REMARK  Name = 12594
REMARK  2 active torsions:
REMARK  status: ('A' for Active; 'I' for Inactive)
REMARK    1  A    between atoms: C_20  and  O_21
REMARK    2  A    between atoms: O_21  and  S_22
REMARK                            x       y       z     vdW  Elec       q    Type
REMARK                         _______ _______ _______ _____ _____    ______ ____
ROOT
ATOM      1  O   UNL     1      34.321 -24.493 -12.416  0.00  0.00    -0.296 OA
ATOM      2  C   UNL     1      34.443 -22.311 -17.180  0.00  0.00    +0.004 C 
ATOM      3  C   UNL     1      35.849 -22.769 -16.686  0.00  0.00    +0.005 C 
ATOM      4  C   UNL     1      35.803 -22.983 -15.172  0.00  0.00    +0.007 C 
ATOM      5  C   UNL     1      34.761 -24.044 -14.767  0.00  0.00    +0.052 C 
ATOM      6  C   UNL     1      34.416 -22.114 -18.748  0.00  0.00    +0.015 C 
ATOM      7  C   UNL     1      33.288 -23.199 -16.631  0.00  0.00    +0.001 C 
ATOM      8  C   UNL     1      33.384 -23.495 -15.124  0.00  0.00    +0.007 C 
ATOM      9  C   UNL     1      37.069 -23.395 -14.429  0.00  0.00    +0.008 C 
ATOM     10  C   UNL     1      36.907 -21.722 -17.062  0.00  0.00    +0.025 C 
ATOM     11  C   UNL     1      35.666 -21.359 -19.222  0.00  0.00    -0.047 C 
ATOM     12  C   UNL     1      33.149 -21.286 -19.114  0.00  0.00    +0.006 C 
ATOM     13  C   UNL     1      35.098 -24.128 -13.289  0.00  0.00    +0.150 C 
ATOM     14  C   UNL     1      36.542 -23.732 -13.027  0.00  0.00    +0.064 C 
ATOM     15  C   UNL     1      36.753 -21.186 -18.449  0.00  0.00    -0.035 C 
ATOM     16  C   UNL     1      34.977 -25.453 -15.349  0.00  0.00    +0.007 C 
ATOM     17  C   UNL     1      34.372 -23.473 -19.487  0.00  0.00    +0.004 C 
ATOM     18  C   UNL     1      35.639 -20.791 -20.622  0.00  0.00    +0.054 C 
ATOM     19  C   UNL     1      33.123 -20.779 -20.556  0.00  0.00    +0.033 C 
ATOM     20  C   UNL     1      34.377 -19.973 -20.880  0.00  0.00    +0.151 C 
ENDROOT
BRANCH  20  21
ATOM     21  O   UNL     1      34.356 -19.592 -22.252  0.00  0.00    -0.203 OA
BRANCH  21  22
ATOM     22  S   UNL     1      34.987 -18.155 -22.701  0.00  0.00    +0.239 S 
ATOM     23  O   UNL     1      34.570 -18.028 -24.274  0.00  0.00    -0.116 OA
ATOM     24  O   UNL     1      34.273 -17.120 -21.976  0.00  0.00    -0.022 OA
ATOM     25  O   UNL     1      36.434 -18.230 -22.628  0.00  0.00    -0.116 OA
ENDBRANCH  21  22
ENDBRANCH  20  21
TORSDOF 2
ENDMDL
MODEL 2
REMARK VINA RESULT:      -9.5      5.783      7.650
REMARK  Name = 12594
REMARK  2 active torsions:
REMARK  status: ('A' for Active; 'I' for Inactive)
REMARK    1  A    between atoms: C_20  and  O_21
REMARK    2  A    between atoms: O_21  and  S_22
REMARK                            x       y       z     vdW  Elec       q    Type
REMARK                         _______ _______ _______ _____ _____    ______ ____
ROOT
ATOM      1  O   UNL     1      28.518 -24.623 -15.205  0.00  0.00    -0.296 OA
ATOM      2  C   UNL     1      33.706 -24.575 -14.461  0.00  0.00    +0.004 C 
ATOM      3  C   UNL     1      33.198 -23.345 -15.272  0.00  0.00    +0.005 C 
ATOM      4  C   UNL     1      31.796 -23.642 -15.808  0.00  0.00    +0.007 C 
ATOM      5  C   UNL     1      30.794 -23.943 -14.676  0.00  0.00    +0.052 C 
ATOM      6  C   UNL     1      35.137 -24.311 -13.845  0.00  0.00    +0.015 C 
ATOM      7  C   UNL     1      32.658 -25.100 -13.436  0.00  0.00    +0.001 C 
ATOM      8  C   UNL     1      31.235 -25.238 -14.004  0.00  0.00    +0.007 C 
ATOM      9  C   UNL     1      31.085 -22.610 -16.676  0.00  0.00    +0.008 C 
ATOM     10  C   UNL     1      34.169 -23.031 -16.418  0.00  0.00    +0.025 C 
ATOM     11  C   UNL     1      36.062 -23.656 -14.880  0.00  0.00    -0.047 C 
ATOM     12  C   UNL     1      35.742 -25.680 -13.413  0.00  0.00    +0.006 C 
ATOM     13  C   UNL     1      29.530 -24.008 -15.515  0.00  0.00    +0.150 C 
ATOM     14  C   UNL     1      29.664 -23.181 -16.783  0.00  0.00    +0.064 C 
ATOM     15  C   UNL     1      35.609 -23.107 -16.021  0.00  0.00    -0.035 C 
ATOM     16  C   UNL     1      30.583 -22.815 -13.649  0.00  0.00    +0.007 C 
ATOM     17  C   UNL     1      35.058 -23.375 -12.615  0.00  0.00    +0.004 C 
ATOM     18  C   UNL     1      37.542 -23.648 -14.576  0.00  0.00    +0.054 C 
ATOM     19  C   UNL     1      37.227 -25.626 -13.052  0.00  0.00    +0.033 C 
ATOM     20  C   UNL     1      38.050 -25.034 -14.191  0.00  0.00    +0.151 C 
ENDROOT
BRANCH  20  21
ATOM     21  O   UNL     1      39.411 -24.921 -13.786  0.00  0.00    -0.203 OA
BRANCH  21  22
ATOM     22  S   UNL     1      40.592 -25.511 -14.746  0.00  0.00    +0.239 S 
ATOM     23  O   UNL     1      41.614 -24.251 -14.915  0.00  0.00    -0.116 OA
ATOM     24  O   UNL     1      41.289 -26.541 -13.996  0.00  0.00    -0.022 OA
ATOM     25  O   UNL     1      40.035 -25.812 -16.051  0.00  0.00    -0.116 OA
ENDBRANCH  21  22
ENDBRANCH  20  21
TORSDOF 2
ENDMDL
MODEL 3
REMARK VINA RESULT:      -8.7      4.951      6.155
REMARK  Name = 12594
REMARK  2 active torsions:
REMARK  status: ('A' for Active; 'I' for Inactive)
REMARK    1  A    between atoms: C_20  and  O_21
REMARK    2  A    between atoms: O_21  and  S_22
REMARK                            x       y       z     vdW  Elec       q    Type
REMARK                         _______ _______ _______ _____ _____    ______ ____
ROOT
ATOM      1  O   UNL     1      38.647 -24.198 -11.574  0.00  0.00    -0.296 OA
ATOM      2  C   UNL     1      34.131 -23.469 -14.130  0.00  0.00    +0.004 C 
ATOM      3  C   UNL     1      35.246 -24.080 -15.031  0.00  0.00    +0.005 C 
ATOM      4  C   UNL     1      36.605 -23.861 -14.364  0.00  0.00    +0.007 C 
ATOM      5  C   UNL     1      36.678 -24.511 -12.969  0.00  0.00    +0.052 C 
ATOM      6  C   UNL     1      32.695 -23.702 -14.749  0.00  0.00    +0.015 C 
ATOM      7  C   UNL     1      34.257 -23.892 -12.638  0.00  0.00    +0.001 C 
ATOM      8  C   UNL     1      35.683 -23.784 -12.071  0.00  0.00    +0.007 C 
ATOM      9  C   UNL     1      37.875 -24.331 -15.065  0.00  0.00    +0.008 C 
ATOM     10  C   UNL     1      35.209 -23.438 -16.425  0.00  0.00    +0.025 C 
ATOM     11  C   UNL     1      32.697 -23.402 -16.255  0.00  0.00    -0.047 C 
ATOM     12  C   UNL     1      31.696 -22.741 -14.038  0.00  0.00    +0.006 C 
ATOM     13  C   UNL     1      38.151 -24.267 -12.690  0.00  0.00    +0.150 C 
ATOM     14  C   UNL     1      38.946 -24.149 -13.980  0.00  0.00    +0.064 C 
ATOM     15  C   UNL     1      33.827 -23.276 -16.973  0.00  0.00    -0.035 C 
ATOM     16  C   UNL     1      36.469 -26.036 -12.928  0.00  0.00    +0.007 C 
ATOM     17  C   UNL     1      32.227 -25.164 -14.554  0.00  0.00    +0.004 C 
ATOM     18  C   UNL     1      31.354 -23.243 -16.928  0.00  0.00    +0.054 C 
ATOM     19  C   UNL     1      30.325 -22.649 -14.709  0.00  0.00    +0.033 C 
ATOM     20  C   UNL     1      30.455 -22.264 -16.180  0.00  0.00    +0.151 C 
ENDROOT
BRANCH  20  21
ATOM     21  O   UNL     1      29.168 -22.272 -16.789  0.00  0.00    -0.203 OA
BRANCH  21  22
ATOM     22  S   UNL     1      28.114 -23.467 -16.434  0.00  0.00    +0.239 S 
ATOM     23  O   UNL     1      26.853 -22.679 -15.762  0.00  0.00    -0.116 OA
ATOM     24  O   UNL     1      27.657 -24.031 -17.691  0.00  0.00    -0.022 OA
ATOM     25  O   UNL     1      28.695 -24.326 -15.420  0.00  0.00    -0.116 OA
ENDBRANCH  21  22
ENDBRANCH  20  21
TORSDOF 2
ENDMDL
MODEL 4
REMARK VINA RESULT:      -8.5      8.388     12.457
REMARK  Name = 12594
REMARK  2 active torsions:
REMARK  status: ('A' for Active; 'I' for Inactive)
REMARK    1  A    between atoms: C_20  and  O_21
REMARK    2  A    between atoms: O_21  and  S_22
REMARK                            x       y       z     vdW  Elec       q    Type
REMARK                         _______ _______ _______ _____ _____    ______ ____
ROOT
ATOM      1  O   UNL     1      33.089  -6.372 -22.878  0.00  0.00    -0.296 OA
ATOM      2  C   UNL     1      33.247 -11.601 -22.578  0.00  0.00    +0.004 C 
ATOM      3  C   UNL     1      32.137 -10.975 -21.680  0.00  0.00    +0.005 C 
ATOM      4  C   UNL     1      32.429  -9.486 -21.488  0.00  0.00    +0.007 C 
ATOM      5  C   UNL     1      32.476  -8.726 -22.827  0.00  0.00    +0.052 C 
ATOM      6  C   UNL     1      32.975 -13.135 -22.848  0.00  0.00    +0.015 C 
ATOM      7  C   UNL     1      33.529 -10.769 -23.863  0.00  0.00    +0.001 C 
ATOM      8  C   UNL     1      33.668  -9.257 -23.615  0.00  0.00    +0.007 C 
ATOM      9  C   UNL     1      31.511  -8.644 -20.608  0.00  0.00    +0.008 C 
ATOM     10  C   UNL     1      32.079 -11.703 -20.329  0.00  0.00    +0.025 C 
ATOM     11  C   UNL     1      32.559 -13.849 -21.554  0.00  0.00    -0.047 C 
ATOM     12  C   UNL     1      34.290 -13.775 -23.385  0.00  0.00    +0.006 C 
ATOM     13  C   UNL     1      32.598  -7.317 -22.275  0.00  0.00    +0.150 C 
ATOM     14  C   UNL     1      32.002  -7.215 -20.881  0.00  0.00    +0.064 C 
ATOM     15  C   UNL     1      32.178 -13.190 -20.446  0.00  0.00    -0.035 C 
ATOM     16  C   UNL     1      31.183  -8.760 -23.663  0.00  0.00    +0.007 C 
ATOM     17  C   UNL     1      31.846 -13.334 -23.887  0.00  0.00    +0.004 C 
ATOM     18  C   UNL     1      32.595 -15.360 -21.559  0.00  0.00    +0.054 C 
ATOM     19  C   UNL     1      34.271 -15.303 -23.435  0.00  0.00    +0.033 C 
ATOM     20  C   UNL     1      33.928 -15.896 -22.072  0.00  0.00    +0.151 C 
ENDROOT
BRANCH  20  21
ATOM     21  O   UNL     1      33.836 -17.312 -22.179  0.00  0.00    -0.203 OA
BRANCH  21  22
ATOM     22  S   UNL     1      35.127 -18.237 -21.800  0.00  0.00    +0.239 S 
ATOM     23  O   UNL     1      34.483 -19.718 -21.567  0.00  0.00    -0.116 OA
ATOM     24  O   UNL     1      35.972 -18.308 -22.978  0.00  0.00    -0.022 OA
ATOM     25  O   UNL     1      35.676 -17.786 -20.535  0.00  0.00    -0.116 OA
ENDBRANCH  21  22
ENDBRANCH  20  21
TORSDOF 2
ENDMDL
MODEL 5
REMARK VINA RESULT:      -7.8     13.502     17.593
REMARK  Name = 12594
REMARK  2 active torsions:
REMARK  status: ('A' for Active; 'I' for Inactive)
REMARK    1  A    between atoms: C_20  and  O_21
REMARK    2  A    between atoms: O_21  and  S_22
REMARK                            x       y       z     vdW  Elec       q    Type
REMARK                         _______ _______ _______ _____ _____    ______ ____
ROOT
ATOM      1  O   UNL     1      30.176  -1.786 -26.167  0.00  0.00    -0.296 OA
ATOM      2  C   UNL     1      32.080  -6.405 -24.584  0.00  0.00    +0.004 C 
ATOM      3  C   UNL     1      33.194  -5.411 -25.033  0.00  0.00    +0.005 C 
ATOM      4  C   UNL     1      32.562  -4.292 -25.864  0.00  0.00    +0.007 C 
ATOM      5  C   UNL     1      31.491  -3.518 -25.074  0.00  0.00    +0.052 C 
ATOM      6  C   UNL     1      32.667  -7.564 -23.684  0.00  0.00    +0.015 C 
ATOM      7  C   UNL     1      30.840  -5.690 -23.973  0.00  0.00    +0.001 C 
ATOM      8  C   UNL     1      30.345  -4.482 -24.786  0.00  0.00    +0.007 C 
ATOM      9  C   UNL     1      33.448  -3.205 -26.463  0.00  0.00    +0.008 C 
ATOM     10  C   UNL     1      34.270  -6.153 -25.839  0.00  0.00    +0.025 C 
ATOM     11  C   UNL     1      33.970  -8.111 -24.285  0.00  0.00    -0.047 C 
ATOM     12  C   UNL     1      31.615  -8.710 -23.617  0.00  0.00    +0.006 C 
ATOM     13  C   UNL     1      31.219  -2.422 -26.090  0.00  0.00    +0.150 C 
ATOM     14  C   UNL     1      32.424  -2.187 -26.985  0.00  0.00    +0.064 C 
ATOM     15  C   UNL     1      34.655  -7.473 -25.250  0.00  0.00    -0.035 C 
ATOM     16  C   UNL     1      31.977  -2.818 -23.791  0.00  0.00    +0.007 C 
ATOM     17  C   UNL     1      32.975  -7.065 -22.252  0.00  0.00    +0.004 C 
ATOM     18  C   UNL     1      34.475  -9.431 -23.749  0.00  0.00    +0.054 C 
ATOM     19  C   UNL     1      32.140 -10.013 -23.013  0.00  0.00    +0.033 C 
ATOM     20  C   UNL     1      33.386 -10.498 -23.747  0.00  0.00    +0.151 C 
ENDROOT
BRANCH  20  21
ATOM     21  O   UNL     1      33.892 -11.663 -23.104  0.00  0.00    -0.203 OA
BRANCH  21  22
ATOM     22  S   UNL     1      33.460 -13.141 -23.648  0.00  0.00    +0.239 S 
ATOM     23  O   UNL     1      34.637 -14.118 -23.082  0.00  0.00    -0.116 OA
ATOM     24  O   UNL     1      32.227 -13.507 -22.976  0.00  0.00    -0.022 OA
ATOM     25  O   UNL     1      33.530 -13.150 -25.097  0.00  0.00    -0.116 OA
ENDBRANCH  21  22
ENDBRANCH  20  21
TORSDOF 2
ENDMDL
