MODEL 1
REMARK VINA RESULT:     -11.8      0.000      0.000
REMARK  Name = 66000
REMARK  8 active torsions:
REMARK  status: ('A' for Active; 'I' for Inactive)
REMARK    1  A    between atoms: C_1  and  O_19
REMARK    2  A    between atoms: C_4  and  C_7
REMARK    3  A    between atoms: C_10  and  C_15
REMARK    4  A    between atoms: O_19  and  C_20
REMARK    5  A    between atoms: C_20  and  C_24
REMARK    6  A    between atoms: C_23  and  C_28
REMARK    7  A    between atoms: C_28  and  C_30
REMARK    8  A    between atoms: C_30  and  O_31
REMARK                            x       y       z     vdW  Elec       q    Type
REMARK                         _______ _______ _______ _____ _____    ______ ____
ROOT
ATOM      1  C   UNL     1      34.801 -22.888 -17.384  0.00  0.00    +0.139 C 
ATOM      2  C   UNL     1      35.994 -22.232 -17.662  0.00  0.00    +0.037 C 
ATOM      3  C   UNL     1      33.665 -22.653 -18.148  0.00  0.00    +0.037 C 
ATOM      4  C   UNL     1      34.916 -21.084 -19.493  0.00  0.00    +0.000 C 
ATOM      5  C   UNL     1      36.051 -21.326 -18.720  0.00  0.00    +0.003 C 
ATOM      6  C   UNL     1      33.722 -21.747 -19.207  0.00  0.00    +0.003 C 
ENDROOT
BRANCH   4   7
ATOM      7  C   UNL     1      34.975 -20.144 -20.591  0.00  0.00    +0.000 C 
ATOM      8  C   UNL     1      36.161 -19.462 -20.863  0.00  0.00    +0.000 C 
ATOM      9  C   UNL     1      33.846 -19.920 -21.380  0.00  0.00    +0.000 C 
ATOM     10  C   UNL     1      35.090 -18.333 -22.710  0.00  0.00    +0.031 C 
ATOM     11  C   UNL     1      36.218 -18.556 -21.923  0.00  0.00    +0.003 C 
ATOM     12  C   UNL     1      33.903 -19.014 -22.439  0.00  0.00    +0.003 C 
BRANCH  10  15
ATOM     13  N   UNL     1      34.700 -17.730 -25.088  0.00  0.00    -0.343 N 
ATOM     14  N   UNL     1      35.643 -16.177 -23.619  0.00  0.00    -0.285 NA
ATOM     15  C   UNL     1      35.149 -17.388 -23.815  0.00  0.00    +0.117 C 
ATOM     16  H   UNL     1      34.750 -17.075 -25.821  0.00  0.00    +0.144 HD
ATOM     17  H   UNL     1      34.332 -18.628 -25.255  0.00  0.00    +0.144 HD
ATOM     18  H   UNL     1      35.685 -15.536 -24.365  0.00  0.00    +0.188 HD
ENDBRANCH  10  15
ENDBRANCH   4   7
BRANCH   1  19
ATOM     19  O   UNL     1      34.745 -23.779 -16.341  0.00  0.00    -0.474 OA
BRANCH  19  20
ATOM     20  C   UNL     1      35.202 -23.323 -15.080  0.00  0.00    +0.225 C 
BRANCH  20  24
ATOM     21  O   UNL     1      36.949 -27.256 -15.944  0.00  0.00    -0.275 OA
ATOM     22  N   UNL     1      35.444 -25.756 -14.964  0.00  0.00    -0.302 N 
ATOM     23  C   UNL     1      37.722 -25.271 -14.747  0.00  0.00    +0.089 C 
ATOM     24  C   UNL     1      35.499 -24.532 -14.202  0.00  0.00    +0.116 C 
ATOM     25  C   UNL     1      36.924 -24.538 -13.662  0.00  0.00    +0.033 C 
ATOM     26  C   UNL     1      36.703 -26.249 -15.298  0.00  0.00    +0.223 C 
ATOM     27  H   UNL     1      34.603 -26.199 -15.220  0.00  0.00    +0.149 HD
BRANCH  23  28
ATOM     28  C   UNL     1      38.967 -25.954 -14.213  0.00  0.00    +0.118 C 
BRANCH  28  30
ATOM     29  O   UNL     1      41.007 -24.627 -14.339  0.00  0.00    -0.250 OA
ATOM     30  C   UNL     1      40.225 -25.416 -14.847  0.00  0.00    +0.314 C 
BRANCH  30  31
ATOM     31  O   UNL     1      40.381 -25.938 -16.091  0.00  0.00    -0.480 OA
ATOM     32  H   UNL     1      39.630 -26.121 -16.620  0.00  0.00    +0.295 HD
ENDBRANCH  30  31
ENDBRANCH  28  30
ENDBRANCH  23  28
ENDBRANCH  20  24
ENDBRANCH  19  20
ENDBRANCH   1  19
TORSDOF 8
ENDMDL
MODEL 2
REMARK VINA RESULT:     -11.7      1.664      2.541
REMARK  Name = 66000
REMARK  8 active torsions:
REMARK  status: ('A' for Active; 'I' for Inactive)
REMARK    1  A    between atoms: C_1  and  O_19
REMARK    2  A    between atoms: C_4  and  C_7
REMARK    3  A    between atoms: C_10  and  C_15
REMARK    4  A    between atoms: O_19  and  C_20
REMARK    5  A    between atoms: C_20  and  C_24
REMARK    6  A    between atoms: C_23  and  C_28
REMARK    7  A    between atoms: C_28  and  C_30
REMARK    8  A    between atoms: C_30  and  O_31
REMARK                            x       y       z     vdW  Elec       q    Type
REMARK                         _______ _______ _______ _____ _____    ______ ____
ROOT
ATOM      1  C   UNL     1      34.643 -22.206 -18.766  0.00  0.00    +0.139 C 
ATOM      2  C   UNL     1      35.837 -21.703 -19.269  0.00  0.00    +0.037 C 
ATOM      3  C   UNL     1      33.421 -21.699 -19.190  0.00  0.00    +0.037 C 
ATOM      4  C   UNL     1      34.586 -20.157 -20.640  0.00  0.00    +0.000 C 
ATOM      5  C   UNL     1      35.807 -20.674 -20.209  0.00  0.00    +0.003 C 
ATOM      6  C   UNL     1      33.393 -20.669 -20.130  0.00  0.00    +0.003 C 
ENDROOT
BRANCH   4   7
ATOM      7  C   UNL     1      34.556 -19.089 -21.616  0.00  0.00    +0.000 C 
ATOM      8  C   UNL     1      34.351 -17.772 -21.203  0.00  0.00    +0.000 C 
ATOM      9  C   UNL     1      34.732 -19.375 -22.970  0.00  0.00    +0.000 C 
ATOM     10  C   UNL     1      34.500 -17.029 -23.496  0.00  0.00    +0.031 C 
ATOM     11  C   UNL     1      34.323 -16.742 -22.143  0.00  0.00    +0.003 C 
ATOM     12  C   UNL     1      34.704 -18.345 -23.910  0.00  0.00    +0.003 C 
BRANCH  10  15
ATOM     13  N   UNL     1      34.303 -14.625 -24.092  0.00  0.00    -0.343 N 
ATOM     14  N   UNL     1      34.598 -16.233 -25.762  0.00  0.00    -0.285 NA
ATOM     15  C   UNL     1      34.470 -15.954 -24.477  0.00  0.00    +0.117 C 
ATOM     16  H   UNL     1      34.285 -13.915 -24.773  0.00  0.00    +0.144 HD
ATOM     17  H   UNL     1      34.202 -14.398 -23.140  0.00  0.00    +0.144 HD
ATOM     18  H   UNL     1      34.578 -15.508 -26.428  0.00  0.00    +0.188 HD
ENDBRANCH  10  15
ENDBRANCH   4   7
BRANCH   1  19
ATOM     19  O   UNL     1      34.671 -23.219 -17.839  0.00  0.00    -0.474 OA
BRANCH  19  20
ATOM     20  C   UNL     1      33.980 -22.997 -16.623  0.00  0.00    +0.225 C 
BRANCH  20  24
ATOM     21  O   UNL     1      34.366 -24.675 -12.584  0.00  0.00    -0.275 OA
ATOM     22  N   UNL     1      34.414 -22.995 -14.213  0.00  0.00    -0.302 N 
ATOM     23  C   UNL     1      35.599 -24.959 -14.676  0.00  0.00    +0.089 C 
ATOM     24  C   UNL     1      35.002 -22.784 -15.514  0.00  0.00    +0.116 C 
ATOM     25  C   UNL     1      36.130 -23.809 -15.540  0.00  0.00    +0.033 C 
ATOM     26  C   UNL     1      34.735 -24.233 -13.662  0.00  0.00    +0.223 C 
ATOM     27  H   UNL     1      33.844 -22.331 -13.761  0.00  0.00    +0.149 HD
BRANCH  23  28
ATOM     28  C   UNL     1      36.700 -25.780 -14.032  0.00  0.00    +0.118 C 
BRANCH  28  30
ATOM     29  O   UNL     1      36.761 -27.234 -15.987  0.00  0.00    -0.250 OA
ATOM     30  C   UNL     1      37.302 -26.773 -14.993  0.00  0.00    +0.314 C 
BRANCH  30  31
ATOM     31  O   UNL     1      38.561 -27.098 -14.601  0.00  0.00    -0.480 OA
ATOM     32  H   UNL     1      38.792 -27.995 -14.461  0.00  0.00    +0.295 HD
ENDBRANCH  30  31
ENDBRANCH  28  30
ENDBRANCH  23  28
ENDBRANCH  20  24
ENDBRANCH  19  20
ENDBRANCH   1  19
TORSDOF 8
ENDMDL
MODEL 3
REMARK VINA RESULT:     -11.5      1.677      2.364
REMARK  Name = 66000
REMARK  8 active torsions:
REMARK  status: ('A' for Active; 'I' for Inactive)
REMARK    1  A    between atoms: C_1  and  O_19
REMARK    2  A    between atoms: C_4  and  C_7
REMARK    3  A    between atoms: C_10  and  C_15
REMARK    4  A    between atoms: O_19  and  C_20
REMARK    5  A    between atoms: C_20  and  C_24
REMARK    6  A    between atoms: C_23  and  C_28
REMARK    7  A    between atoms: C_28  and  C_30
REMARK    8  A    between atoms: C_30  and  O_31
REMARK                            x       y       z     vdW  Elec       q    Type
REMARK                         _______ _______ _______ _____ _____    ______ ____
ROOT
ATOM      1  C   UNL     1      35.347 -21.983 -18.483  0.00  0.00    +0.139 C 
ATOM      2  C   UNL     1      34.072 -21.712 -18.967  0.00  0.00    +0.037 C 
ATOM      3  C   UNL     1      36.459 -21.333 -19.004  0.00  0.00    +0.037 C 
ATOM      4  C   UNL     1      35.019 -20.121 -20.519  0.00  0.00    +0.000 C 
ATOM      5  C   UNL     1      33.908 -20.778 -19.989  0.00  0.00    +0.003 C 
ATOM      6  C   UNL     1      36.294 -20.399 -20.027  0.00  0.00    +0.003 C 
ENDROOT
BRANCH   4   7
ATOM      7  C   UNL     1      34.849 -19.152 -21.579  0.00  0.00    +0.000 C 
ATOM      8  C   UNL     1      34.720 -17.797 -21.272  0.00  0.00    +0.000 C 
ATOM      9  C   UNL     1      34.816 -19.571 -22.910  0.00  0.00    +0.000 C 
ATOM     10  C   UNL     1      34.524 -17.282 -23.625  0.00  0.00    +0.031 C 
ATOM     11  C   UNL     1      34.558 -16.862 -22.295  0.00  0.00    +0.003 C 
ATOM     12  C   UNL     1      34.653 -18.636 -23.932  0.00  0.00    +0.003 C 
BRANCH  10  15
ATOM     13  N   UNL     1      33.788 -15.057 -24.448  0.00  0.00    -0.343 N 
ATOM     14  N   UNL     1      34.737 -16.604 -25.921  0.00  0.00    -0.285 NA
ATOM     15  C   UNL     1      34.354 -16.307 -24.691  0.00  0.00    +0.117 C 
ATOM     16  H   UNL     1      33.682 -14.414 -25.185  0.00  0.00    +0.144 HD
ATOM     17  H   UNL     1      33.494 -14.819 -23.539  0.00  0.00    +0.144 HD
ATOM     18  H   UNL     1      34.623 -15.946 -26.644  0.00  0.00    +0.188 HD
ENDBRANCH  10  15
ENDBRANCH   4   7
BRANCH   1  19
ATOM     19  O   UNL     1      35.508 -22.904 -17.478  0.00  0.00    -0.474 OA
BRANCH  19  20
ATOM     20  C   UNL     1      36.425 -22.577 -16.448  0.00  0.00    +0.225 C 
BRANCH  20  24
ATOM     21  O   UNL     1      36.383 -26.809 -15.281  0.00  0.00    -0.275 OA
ATOM     22  N   UNL     1      35.545 -24.630 -15.446  0.00  0.00    -0.302 N 
ATOM     23  C   UNL     1      37.725 -24.872 -14.631  0.00  0.00    +0.089 C 
ATOM     24  C   UNL     1      35.997 -23.288 -15.171  0.00  0.00    +0.116 C 
ATOM     25  C   UNL     1      37.152 -23.517 -14.202  0.00  0.00    +0.033 C 
ATOM     26  C   UNL     1      36.495 -25.601 -15.138  0.00  0.00    +0.223 C 
ATOM     27  H   UNL     1      34.656 -24.838 -15.813  0.00  0.00    +0.149 HD
BRANCH  23  28
ATOM     28  C   UNL     1      38.424 -25.609 -13.504  0.00  0.00    +0.118 C 
BRANCH  28  30
ATOM     29  O   UNL     1      37.896 -24.599 -11.350  0.00  0.00    -0.250 OA
ATOM     30  C   UNL     1      37.695 -25.460 -12.192  0.00  0.00    +0.314 C 
BRANCH  30  31
ATOM     31  O   UNL     1      36.758 -26.435 -12.066  0.00  0.00    -0.480 OA
ATOM     32  H   UNL     1      36.266 -26.712 -12.814  0.00  0.00    +0.295 HD
ENDBRANCH  30  31
ENDBRANCH  28  30
ENDBRANCH  23  28
ENDBRANCH  20  24
ENDBRANCH  19  20
ENDBRANCH   1  19
TORSDOF 8
ENDMDL
MODEL 4
REMARK VINA RESULT:     -11.3      1.915      2.992
REMARK  Name = 66000
REMARK  8 active torsions:
REMARK  status: ('A' for Active; 'I' for Inactive)
REMARK    1  A    between atoms: C_1  and  O_19
REMARK    2  A    between atoms: C_4  and  C_7
REMARK    3  A    between atoms: C_10  and  C_15
REMARK    4  A    between atoms: O_19  and  C_20
REMARK    5  A    between atoms: C_20  and  C_24
REMARK    6  A    between atoms: C_23  and  C_28
REMARK    7  A    between atoms: C_28  and  C_30
REMARK    8  A    between atoms: C_30  and  O_31
REMARK                            x       y       z     vdW  Elec       q    Type
REMARK                         _______ _______ _______ _____ _____    ______ ____
ROOT
ATOM      1  C   UNL     1      34.890 -22.186 -18.558  0.00  0.00    +0.139 C 
ATOM      2  C   UNL     1      33.655 -21.748 -19.020  0.00  0.00    +0.037 C 
ATOM      3  C   UNL     1      36.069 -21.654 -19.065  0.00  0.00    +0.037 C 
ATOM      4  C   UNL     1      34.777 -20.223 -20.520  0.00  0.00    +0.000 C 
ATOM      5  C   UNL     1      33.598 -20.763 -20.005  0.00  0.00    +0.003 C 
ATOM      6  C   UNL     1      36.012 -20.669 -20.051  0.00  0.00    +0.003 C 
ENDROOT
BRANCH   4   7
ATOM      7  C   UNL     1      34.718 -19.201 -21.543  0.00  0.00    +0.000 C 
ATOM      8  C   UNL     1      34.812 -19.556 -22.889  0.00  0.00    +0.000 C 
ATOM      9  C   UNL     1      34.566 -17.862 -21.184  0.00  0.00    +0.000 C 
ATOM     10  C   UNL     1      34.603 -17.232 -23.516  0.00  0.00    +0.031 C 
ATOM     11  C   UNL     1      34.755 -18.571 -23.876  0.00  0.00    +0.003 C 
ATOM     12  C   UNL     1      34.509 -16.877 -22.170  0.00  0.00    +0.003 C 
BRANCH  10  15
ATOM     13  N   UNL     1      34.378 -14.860 -24.219  0.00  0.00    -0.343 N 
ATOM     14  N   UNL     1      34.642 -16.543 -25.818  0.00  0.00    -0.285 NA
ATOM     15  C   UNL     1      34.543 -16.205 -24.545  0.00  0.00    +0.117 C 
ATOM     16  H   UNL     1      34.340 -14.183 -24.932  0.00  0.00    +0.144 HD
ATOM     17  H   UNL     1      34.299 -14.589 -23.277  0.00  0.00    +0.144 HD
ATOM     18  H   UNL     1      34.602 -15.851 -26.516  0.00  0.00    +0.188 HD
ENDBRANCH  10  15
ENDBRANCH   4   7
BRANCH   1  19
ATOM     19  O   UNL     1      34.946 -23.156 -17.588  0.00  0.00    -0.474 OA
BRANCH  19  20
ATOM     20  C   UNL     1      35.407 -22.761 -16.308  0.00  0.00    +0.225 C 
BRANCH  20  24
ATOM     21  O   UNL     1      38.770 -24.416 -14.024  0.00  0.00    -0.275 OA
ATOM     22  N   UNL     1      36.903 -24.490 -15.434  0.00  0.00    -0.302 N 
ATOM     23  C   UNL     1      36.669 -23.323 -13.419  0.00  0.00    +0.089 C 
ATOM     24  C   UNL     1      35.546 -24.001 -15.436  0.00  0.00    +0.116 C 
ATOM     25  C   UNL     1      35.290 -23.720 -13.959  0.00  0.00    +0.033 C 
ATOM     26  C   UNL     1      37.607 -24.146 -14.282  0.00  0.00    +0.223 C 
ATOM     27  H   UNL     1      37.292 -25.013 -16.171  0.00  0.00    +0.149 HD
BRANCH  23  28
ATOM     28  C   UNL     1      36.834 -23.603 -11.937  0.00  0.00    +0.118 C 
BRANCH  28  30
ATOM     29  O   UNL     1      36.811 -26.038 -11.825  0.00  0.00    -0.250 OA
ATOM     30  C   UNL     1      36.301 -24.961 -11.555  0.00  0.00    +0.314 C 
BRANCH  30  31
ATOM     31  O   UNL     1      35.150 -24.828 -10.848  0.00  0.00    -0.480 OA
ATOM     32  H   UNL     1      34.387 -24.471 -11.257  0.00  0.00    +0.295 HD
ENDBRANCH  30  31
ENDBRANCH  28  30
ENDBRANCH  23  28
ENDBRANCH  20  24
ENDBRANCH  19  20
ENDBRANCH   1  19
TORSDOF 8
ENDMDL
MODEL 5
REMARK VINA RESULT:     -11.2      3.317      5.386
REMARK  Name = 66000
REMARK  8 active torsions:
REMARK  status: ('A' for Active; 'I' for Inactive)
REMARK    1  A    between atoms: C_1  and  O_19
REMARK    2  A    between atoms: C_4  and  C_7
REMARK    3  A    between atoms: C_10  and  C_15
REMARK    4  A    between atoms: O_19  and  C_20
REMARK    5  A    between atoms: C_20  and  C_24
REMARK    6  A    between atoms: C_23  and  C_28
REMARK    7  A    between atoms: C_28  and  C_30
REMARK    8  A    between atoms: C_30  and  O_31
REMARK                            x       y       z     vdW  Elec       q    Type
REMARK                         _______ _______ _______ _____ _____    ______ ____
ROOT
ATOM      1  C   UNL     1      34.747 -22.196 -18.606  0.00  0.00    +0.139 C 
ATOM      2  C   UNL     1      33.518 -21.762 -19.088  0.00  0.00    +0.037 C 
ATOM      3  C   UNL     1      35.931 -21.649 -19.083  0.00  0.00    +0.037 C 
ATOM      4  C   UNL     1      34.657 -20.212 -20.549  0.00  0.00    +0.000 C 
ATOM      5  C   UNL     1      33.473 -20.767 -20.063  0.00  0.00    +0.003 C 
ATOM      6  C   UNL     1      35.887 -20.654 -20.059  0.00  0.00    +0.003 C 
ENDROOT
BRANCH   4   7
ATOM      7  C   UNL     1      34.612 -19.180 -21.561  0.00  0.00    +0.000 C 
ATOM      8  C   UNL     1      34.389 -17.852 -21.194  0.00  0.00    +0.000 C 
ATOM      9  C   UNL     1      34.791 -19.511 -22.904  0.00  0.00    +0.000 C 
ATOM     10  C   UNL     1      34.526 -17.188 -23.513  0.00  0.00    +0.031 C 
ATOM     11  C   UNL     1      34.346 -16.856 -22.170  0.00  0.00    +0.003 C 
ATOM     12  C   UNL     1      34.748 -18.514 -23.881  0.00  0.00    +0.003 C 
BRANCH  10  15
ATOM     13  N   UNL     1      34.071 -14.853 -24.226  0.00  0.00    -0.343 N 
ATOM     14  N   UNL     1      34.828 -16.430 -25.774  0.00  0.00    -0.285 NA
ATOM     15  C   UNL     1      34.480 -16.149 -24.530  0.00  0.00    +0.117 C 
ATOM     16  H   UNL     1      34.047 -14.166 -24.931  0.00  0.00    +0.144 HD
ATOM     17  H   UNL     1      33.804 -14.624 -23.307  0.00  0.00    +0.144 HD
ATOM     18  H   UNL     1      34.798 -15.730 -26.464  0.00  0.00    +0.188 HD
ENDBRANCH  10  15
ENDBRANCH   4   7
BRANCH   1  19
ATOM     19  O   UNL     1      34.791 -23.177 -17.646  0.00  0.00    -0.474 OA
BRANCH  19  20
ATOM     20  C   UNL     1      34.297 -22.841 -16.361  0.00  0.00    +0.225 C 
BRANCH  20  24
ATOM     21  O   UNL     1      31.842 -23.314 -12.753  0.00  0.00    -0.275 OA
ATOM     22  N   UNL     1      33.228 -24.021 -14.501  0.00  0.00    -0.302 N 
ATOM     23  C   UNL     1      31.365 -22.727 -15.077  0.00  0.00    +0.089 C 
ATOM     24  C   UNL     1      33.283 -23.896 -15.938  0.00  0.00    +0.116 C 
ATOM     25  C   UNL     1      31.850 -23.521 -16.296  0.00  0.00    +0.033 C 
ATOM     26  C   UNL     1      32.127 -23.379 -13.939  0.00  0.00    +0.223 C 
ATOM     27  H   UNL     1      33.899 -24.510 -13.973  0.00  0.00    +0.149 HD
BRANCH  23  28
ATOM     28  C   UNL     1      29.861 -22.783 -14.888  0.00  0.00    +0.118 C 
BRANCH  28  30
ATOM     29  O   UNL     1      28.936 -22.039 -17.016  0.00  0.00    -0.250 OA
ATOM     30  C   UNL     1      29.130 -22.925 -16.198  0.00  0.00    +0.314 C 
BRANCH  30  31
ATOM     31  O   UNL     1      28.702 -24.205 -16.357  0.00  0.00    -0.480 OA
ATOM     32  H   UNL     1      28.919 -24.678 -17.136  0.00  0.00    +0.295 HD
ENDBRANCH  30  31
ENDBRANCH  28  30
ENDBRANCH  23  28
ENDBRANCH  20  24
ENDBRANCH  19  20
ENDBRANCH   1  19
TORSDOF 8
ENDMDL
MODEL 6
REMARK VINA RESULT:     -10.6      4.757     10.765
REMARK  Name = 66000
REMARK  8 active torsions:
REMARK  status: ('A' for Active; 'I' for Inactive)
REMARK    1  A    between atoms: C_1  and  O_19
REMARK    2  A    between atoms: C_4  and  C_7
REMARK    3  A    between atoms: C_10  and  C_15
REMARK    4  A    between atoms: O_19  and  C_20
REMARK    5  A    between atoms: C_20  and  C_24
REMARK    6  A    between atoms: C_23  and  C_28
REMARK    7  A    between atoms: C_28  and  C_30
REMARK    8  A    between atoms: C_30  and  O_31
REMARK                            x       y       z     vdW  Elec       q    Type
REMARK                         _______ _______ _______ _____ _____    ______ ____
ROOT
ATOM      1  C   UNL     1      34.884 -20.523 -20.816  0.00  0.00    +0.139 C 
ATOM      2  C   UNL     1      33.524 -20.515 -20.529  0.00  0.00    +0.037 C 
ATOM      3  C   UNL     1      35.777 -21.219 -20.011  0.00  0.00    +0.037 C 
ATOM      4  C   UNL     1      33.939 -21.915 -18.605  0.00  0.00    +0.000 C 
ATOM      5  C   UNL     1      33.050 -21.214 -19.420  0.00  0.00    +0.003 C 
ATOM      6  C   UNL     1      35.302 -21.917 -18.900  0.00  0.00    +0.003 C 
ENDROOT
BRANCH   4   7
ATOM      7  C   UNL     1      33.448 -22.639 -17.453  0.00  0.00    +0.000 C 
ATOM      8  C   UNL     1      32.075 -22.797 -17.262  0.00  0.00    +0.000 C 
ATOM      9  C   UNL     1      34.346 -23.182 -16.534  0.00  0.00    +0.000 C 
ATOM     10  C   UNL     1      32.500 -24.039 -15.234  0.00  0.00    +0.031 C 
ATOM     11  C   UNL     1      31.600 -23.496 -16.152  0.00  0.00    +0.003 C 
ATOM     12  C   UNL     1      33.872 -23.882 -15.424  0.00  0.00    +0.003 C 
BRANCH  10  15
ATOM     13  N   UNL     1      30.699 -25.251 -14.026  0.00  0.00    -0.343 N 
ATOM     14  N   UNL     1      32.800 -24.978 -13.042  0.00  0.00    -0.285 NA
ATOM     15  C   UNL     1      32.005 -24.768 -14.076  0.00  0.00    +0.117 C 
ATOM     16  H   UNL     1      30.385 -25.741 -13.232  0.00  0.00    +0.144 HD
ATOM     17  H   UNL     1      30.090 -25.101 -14.785  0.00  0.00    +0.144 HD
ATOM     18  H   UNL     1      32.468 -25.471 -12.257  0.00  0.00    +0.188 HD
ENDBRANCH  10  15
ENDBRANCH   4   7
BRANCH   1  19
ATOM     19  O   UNL     1      35.351 -19.834 -21.908  0.00  0.00    -0.474 OA
BRANCH  19  20
ATOM     20  C   UNL     1      34.537 -18.786 -22.403  0.00  0.00    +0.225 C 
BRANCH  20  24
ATOM     21  O   UNL     1      34.200 -16.168 -25.911  0.00  0.00    -0.275 OA
ATOM     22  N   UNL     1      35.293 -17.572 -24.390  0.00  0.00    -0.302 N 
ATOM     23  C   UNL     1      34.023 -15.820 -23.498  0.00  0.00    +0.089 C 
ATOM     24  C   UNL     1      35.437 -17.691 -22.959  0.00  0.00    +0.116 C 
ATOM     25  C   UNL     1      35.053 -16.299 -22.469  0.00  0.00    +0.033 C 
ATOM     26  C   UNL     1      34.497 -16.494 -24.772  0.00  0.00    +0.223 C 
ATOM     27  H   UNL     1      35.714 -18.189 -25.031  0.00  0.00    +0.149 HD
BRANCH  23  28
ATOM     28  C   UNL     1      33.958 -14.310 -23.620  0.00  0.00    +0.118 C 
BRANCH  28  30
ATOM     29  O   UNL     1      32.379 -12.580 -22.945  0.00  0.00    -0.250 OA
ATOM     30  C   UNL     1      32.781 -13.732 -22.876  0.00  0.00    +0.314 C 
BRANCH  30  31
ATOM     31  O   UNL     1      32.206 -14.686 -22.099  0.00  0.00    -0.480 OA
ATOM     32  H   UNL     1      32.051 -15.542 -22.446  0.00  0.00    +0.295 HD
ENDBRANCH  30  31
ENDBRANCH  28  30
ENDBRANCH  23  28
ENDBRANCH  20  24
ENDBRANCH  19  20
ENDBRANCH   1  19
TORSDOF 8
ENDMDL
MODEL 7
REMARK VINA RESULT:     -10.5      4.715     10.832
REMARK  Name = 66000
REMARK  8 active torsions:
REMARK  status: ('A' for Active; 'I' for Inactive)
REMARK    1  A    between atoms: C_1  and  O_19
REMARK    2  A    between atoms: C_4  and  C_7
REMARK    3  A    between atoms: C_10  and  C_15
REMARK    4  A    between atoms: O_19  and  C_20
REMARK    5  A    between atoms: C_20  and  C_24
REMARK    6  A    between atoms: C_23  and  C_28
REMARK    7  A    between atoms: C_28  and  C_30
REMARK    8  A    between atoms: C_30  and  O_31
REMARK                            x       y       z     vdW  Elec       q    Type
REMARK                         _______ _______ _______ _____ _____    ______ ____
ROOT
ATOM      1  C   UNL     1      35.154 -20.285 -20.904  0.00  0.00    +0.139 C 
ATOM      2  C   UNL     1      33.959 -20.734 -20.356  0.00  0.00    +0.037 C 
ATOM      3  C   UNL     1      36.367 -20.555 -20.284  0.00  0.00    +0.037 C 
ATOM      4  C   UNL     1      35.191 -21.740 -18.539  0.00  0.00    +0.000 C 
ATOM      5  C   UNL     1      33.978 -21.465 -19.169  0.00  0.00    +0.003 C 
ATOM      6  C   UNL     1      36.386 -21.285 -19.095  0.00  0.00    +0.003 C 
ENDROOT
BRANCH   4   7
ATOM      7  C   UNL     1      35.211 -22.497 -17.306  0.00  0.00    +0.000 C 
ATOM      8  C   UNL     1      36.364 -22.523 -16.521  0.00  0.00    +0.000 C 
ATOM      9  C   UNL     1      34.076 -23.200 -16.900  0.00  0.00    +0.000 C 
ATOM     10  C   UNL     1      35.248 -23.955 -14.927  0.00  0.00    +0.031 C 
ATOM     11  C   UNL     1      36.383 -23.252 -15.332  0.00  0.00    +0.003 C 
ATOM     12  C   UNL     1      34.095 -23.930 -15.711  0.00  0.00    +0.003 C 
BRANCH  10  15
ATOM     13  N   UNL     1      36.259 -25.662 -13.432  0.00  0.00    -0.343 N 
ATOM     14  N   UNL     1      34.330 -24.516 -12.778  0.00  0.00    -0.285 NA
ATOM     15  C   UNL     1      35.268 -24.715 -13.687  0.00  0.00    +0.117 C 
ATOM     16  H   UNL     1      36.252 -26.165 -12.587  0.00  0.00    +0.144 HD
ATOM     17  H   UNL     1      36.964 -25.827 -14.099  0.00  0.00    +0.144 HD
ATOM     18  H   UNL     1      34.341 -25.030 -11.938  0.00  0.00    +0.188 HD
ENDBRANCH  10  15
ENDBRANCH   4   7
BRANCH   1  19
ATOM     19  O   UNL     1      35.136 -19.565 -22.074  0.00  0.00    -0.474 OA
BRANCH  19  20
ATOM     20  C   UNL     1      34.484 -18.307 -22.044  0.00  0.00    +0.225 C 
BRANCH  20  24
ATOM     21  O   UNL     1      34.194 -16.312 -25.944  0.00  0.00    -0.275 OA
ATOM     22  N   UNL     1      35.274 -17.406 -24.179  0.00  0.00    -0.302 N 
ATOM     23  C   UNL     1      33.916 -15.582 -23.628  0.00  0.00    +0.089 C 
ATOM     24  C   UNL     1      35.368 -17.284 -22.744  0.00  0.00    +0.116 C 
ATOM     25  C   UNL     1      34.921 -15.847 -22.502  0.00  0.00    +0.033 C 
ATOM     26  C   UNL     1      34.459 -16.437 -24.758  0.00  0.00    +0.223 C 
ATOM     27  H   UNL     1      35.739 -18.103 -24.696  0.00  0.00    +0.149 HD
BRANCH  23  28
ATOM     28  C   UNL     1      33.806 -14.115 -23.999  0.00  0.00    +0.118 C 
BRANCH  28  30
ATOM     29  O   UNL     1      32.137 -13.867 -22.241  0.00  0.00    -0.250 OA
ATOM     30  C   UNL     1      32.858 -13.371 -23.093  0.00  0.00    +0.314 C 
BRANCH  30  31
ATOM     31  O   UNL     1      32.911 -12.040 -23.355  0.00  0.00    -0.480 OA
ATOM     32  H   UNL     1      32.210 -11.480 -23.085  0.00  0.00    +0.295 HD
ENDBRANCH  30  31
ENDBRANCH  28  30
ENDBRANCH  23  28
ENDBRANCH  20  24
ENDBRANCH  19  20
ENDBRANCH   1  19
TORSDOF 8
ENDMDL
MODEL 8
REMARK VINA RESULT:     -10.4      2.747      4.340
REMARK  Name = 66000
REMARK  8 active torsions:
REMARK  status: ('A' for Active; 'I' for Inactive)
REMARK    1  A    between atoms: C_1  and  O_19
REMARK    2  A    between atoms: C_4  and  C_7
REMARK    3  A    between atoms: C_10  and  C_15
REMARK    4  A    between atoms: O_19  and  C_20
REMARK    5  A    between atoms: C_20  and  C_24
REMARK    6  A    between atoms: C_23  and  C_28
REMARK    7  A    between atoms: C_28  and  C_30
REMARK    8  A    between atoms: C_30  and  O_31
REMARK                            x       y       z     vdW  Elec       q    Type
REMARK                         _______ _______ _______ _____ _____    ______ ____
ROOT
ATOM      1  C   UNL     1      34.777 -22.231 -18.471  0.00  0.00    +0.139 C 
ATOM      2  C   UNL     1      33.551 -21.807 -18.971  0.00  0.00    +0.037 C 
ATOM      3  C   UNL     1      35.964 -21.688 -18.944  0.00  0.00    +0.037 C 
ATOM      4  C   UNL     1      34.701 -20.275 -20.443  0.00  0.00    +0.000 C 
ATOM      5  C   UNL     1      33.514 -20.826 -19.961  0.00  0.00    +0.003 C 
ATOM      6  C   UNL     1      35.927 -20.707 -19.935  0.00  0.00    +0.003 C 
ENDROOT
BRANCH   4   7
ATOM      7  C   UNL     1      34.663 -19.257 -21.470  0.00  0.00    +0.000 C 
ATOM      8  C   UNL     1      34.449 -17.923 -21.122  0.00  0.00    +0.000 C 
ATOM      9  C   UNL     1      34.841 -19.609 -22.808  0.00  0.00    +0.000 C 
ATOM     10  C   UNL     1      34.592 -17.294 -23.450  0.00  0.00    +0.031 C 
ATOM     11  C   UNL     1      34.413 -16.941 -22.113  0.00  0.00    +0.003 C 
ATOM     12  C   UNL     1      34.805 -18.627 -23.799  0.00  0.00    +0.003 C 
BRANCH  10  15
ATOM     13  N   UNL     1      34.344 -14.928 -24.168  0.00  0.00    -0.343 N 
ATOM     14  N   UNL     1      34.715 -16.607 -25.750  0.00  0.00    -0.285 NA
ATOM     15  C   UNL     1      34.554 -16.270 -24.483  0.00  0.00    +0.117 C 
ATOM     16  H   UNL     1      34.322 -14.253 -24.883  0.00  0.00    +0.144 HD
ATOM     17  H   UNL     1      34.219 -14.658 -23.230  0.00  0.00    +0.144 HD
ATOM     18  H   UNL     1      34.689 -15.916 -26.451  0.00  0.00    +0.188 HD
ENDBRANCH  10  15
ENDBRANCH   4   7
BRANCH   1  19
ATOM     19  O   UNL     1      34.813 -23.198 -17.497  0.00  0.00    -0.474 OA
BRANCH  19  20
ATOM     20  C   UNL     1      35.476 -22.869 -16.289  0.00  0.00    +0.225 C 
BRANCH  20  24
ATOM     21  O   UNL     1      34.293 -23.596 -12.124  0.00  0.00    -0.275 OA
ATOM     22  N   UNL     1      35.664 -23.756 -14.015  0.00  0.00    -0.302 N 
ATOM     23  C   UNL     1      33.399 -24.273 -14.296  0.00  0.00    +0.089 C 
ATOM     24  C   UNL     1      35.526 -24.110 -15.407  0.00  0.00    +0.116 C 
ATOM     25  C   UNL     1      34.225 -24.903 -15.423  0.00  0.00    +0.033 C 
ATOM     26  C   UNL     1      34.468 -23.846 -13.307  0.00  0.00    +0.223 C 
ATOM     27  H   UNL     1      36.516 -23.480 -13.607  0.00  0.00    +0.149 HD
BRANCH  23  28
ATOM     28  C   UNL     1      32.385 -25.227 -13.693  0.00  0.00    +0.118 C 
BRANCH  28  30
ATOM     29  O   UNL     1      30.879 -23.478 -12.909  0.00  0.00    -0.250 OA
ATOM     30  C   UNL     1      31.055 -24.559 -13.449  0.00  0.00    +0.314 C 
BRANCH  30  31
ATOM     31  O   UNL     1      30.049 -25.338 -13.924  0.00  0.00    -0.480 OA
ATOM     32  H   UNL     1      29.272 -25.462 -13.415  0.00  0.00    +0.295 HD
ENDBRANCH  30  31
ENDBRANCH  28  30
ENDBRANCH  23  28
ENDBRANCH  20  24
ENDBRANCH  19  20
ENDBRANCH   1  19
TORSDOF 8
ENDMDL
MODEL 9
REMARK VINA RESULT:     -10.4      8.641     12.406
REMARK  Name = 66000
REMARK  8 active torsions:
REMARK  status: ('A' for Active; 'I' for Inactive)
REMARK    1  A    between atoms: C_1  and  O_19
REMARK    2  A    between atoms: C_4  and  C_7
REMARK    3  A    between atoms: C_10  and  C_15
REMARK    4  A    between atoms: O_19  and  C_20
REMARK    5  A    between atoms: C_20  and  C_24
REMARK    6  A    between atoms: C_23  and  C_28
REMARK    7  A    between atoms: C_28  and  C_30
REMARK    8  A    between atoms: C_30  and  O_31
REMARK                            x       y       z     vdW  Elec       q    Type
REMARK                         _______ _______ _______ _____ _____    ______ ____
ROOT
ATOM      1  C   UNL     1      32.258 -12.835 -22.207  0.00  0.00    +0.139 C 
ATOM      2  C   UNL     1      31.457 -12.163 -21.292  0.00  0.00    +0.037 C 
ATOM      3  C   UNL     1      32.882 -12.151 -23.243  0.00  0.00    +0.037 C 
ATOM      4  C   UNL     1      31.896 -10.091 -22.454  0.00  0.00    +0.000 C 
ATOM      5  C   UNL     1      31.275 -10.786 -21.416  0.00  0.00    +0.003 C 
ATOM      6  C   UNL     1      32.699 -10.774 -23.368  0.00  0.00    +0.003 C 
ENDROOT
BRANCH   4   7
ATOM      7  C   UNL     1      31.708  -8.663 -22.584  0.00  0.00    +0.000 C 
ATOM      8  C   UNL     1      31.180  -8.133 -23.762  0.00  0.00    +0.000 C 
ATOM      9  C   UNL     1      32.052  -7.815 -21.531  0.00  0.00    +0.000 C 
ATOM     10  C   UNL     1      31.341  -5.909 -22.834  0.00  0.00    +0.031 C 
ATOM     11  C   UNL     1      30.996  -6.756 -23.887  0.00  0.00    +0.003 C 
ATOM     12  C   UNL     1      31.869  -6.437 -21.656  0.00  0.00    +0.003 C 
BRANCH  10  15
ATOM     13  N   UNL     1      31.753  -3.751 -23.993  0.00  0.00    -0.343 N 
ATOM     14  N   UNL     1      30.395  -3.827 -22.093  0.00  0.00    -0.285 NA
ATOM     15  C   UNL     1      31.150  -4.472 -22.964  0.00  0.00    +0.117 C 
ATOM     16  H   UNL     1      31.611  -2.779 -24.062  0.00  0.00    +0.144 HD
ATOM     17  H   UNL     1      32.322  -4.213 -24.650  0.00  0.00    +0.144 HD
ATOM     18  H   UNL     1      30.265  -2.855 -22.179  0.00  0.00    +0.188 HD
ENDBRANCH  10  15
ENDBRANCH   4   7
BRANCH   1  19
ATOM     19  O   UNL     1      32.436 -14.191 -22.085  0.00  0.00    -0.474 OA
BRANCH  19  20
ATOM     20  C   UNL     1      33.001 -14.658 -20.872  0.00  0.00    +0.225 C 
BRANCH  20  24
ATOM     21  O   UNL     1      35.268 -18.415 -20.728  0.00  0.00    -0.275 OA
ATOM     22  N   UNL     1      34.880 -16.138 -20.350  0.00  0.00    -0.302 N 
ATOM     23  C   UNL     1      34.541 -16.928 -22.526  0.00  0.00    +0.089 C 
ATOM     24  C   UNL     1      34.469 -14.983 -21.112  0.00  0.00    +0.116 C 
ATOM     25  C   UNL     1      34.757 -15.411 -22.547  0.00  0.00    +0.033 C 
ATOM     26  C   UNL     1      34.959 -17.298 -21.116  0.00  0.00    +0.223 C 
ATOM     27  H   UNL     1      35.085 -16.108 -19.388  0.00  0.00    +0.149 HD
BRANCH  23  28
ATOM     28  C   UNL     1      35.339 -17.660 -23.589  0.00  0.00    +0.118 C 
BRANCH  28  30
ATOM     29  O   UNL     1      34.760 -16.762 -25.779  0.00  0.00    -0.250 OA
ATOM     30  C   UNL     1      34.652 -17.634 -24.931  0.00  0.00    +0.314 C 
BRANCH  30  31
ATOM     31  O   UNL     1      33.876 -18.739 -25.079  0.00  0.00    -0.480 OA
ATOM     32  H   UNL     1      33.816 -19.365 -24.386  0.00  0.00    +0.295 HD
ENDBRANCH  30  31
ENDBRANCH  28  30
ENDBRANCH  23  28
ENDBRANCH  20  24
ENDBRANCH  19  20
ENDBRANCH   1  19
TORSDOF 8
ENDMDL
