MODEL 1
REMARK VINA RESULT:      -3.9      0.000      0.000
REMARK  Name = 249
REMARK  2 active torsions:
REMARK  status: ('A' for Active; 'I' for Inactive)
REMARK    1  A    between atoms: N_1  and  C_5
REMARK    2  A    between atoms: C_5  and  C_7
REMARK                            x       y       z     vdW  Elec       q    Type
REMARK                         _______ _______ _______ _____ _____    ______ ____
ROOT
ATOM      1  N   UNL     1      37.733 -25.468 -14.201  0.00  0.00    +0.391 N 
ATOM      2  C   UNL     1      37.167 -26.569 -15.086  0.00  0.00    -0.095 C 
ATOM      3  C   UNL     1      36.955 -25.419 -12.893  0.00  0.00    -0.095 C 
ATOM      4  C   UNL     1      37.610 -24.130 -14.915  0.00  0.00    -0.095 C 
ENDROOT
BRANCH   1   5
ATOM      5  C   UNL     1      39.198 -25.754 -13.908  0.00  0.00    +0.001 C 
BRANCH   5   7
ATOM      6  O   UNL     1      40.663 -26.056 -15.808  0.00  0.00    -0.291 OA
ATOM      7  C   UNL     1      40.086 -25.303 -15.031  0.00  0.00    +0.185 C 
ENDBRANCH   5   7
ENDBRANCH   1   5
TORSDOF 2
ENDMDL
MODEL 2
REMARK VINA RESULT:      -3.9      1.774      2.673
REMARK  Name = 249
REMARK  2 active torsions:
REMARK  status: ('A' for Active; 'I' for Inactive)
REMARK    1  A    between atoms: N_1  and  C_5
REMARK    2  A    between atoms: C_5  and  C_7
REMARK                            x       y       z     vdW  Elec       q    Type
REMARK                         _______ _______ _______ _____ _____    ______ ____
ROOT
ATOM      1  N   UNL     1      38.299 -25.218 -13.941  0.00  0.00    +0.391 N 
ATOM      2  C   UNL     1      37.749 -24.179 -14.908  0.00  0.00    -0.095 C 
ATOM      3  C   UNL     1      38.235 -24.673 -12.521  0.00  0.00    -0.095 C 
ATOM      4  C   UNL     1      39.744 -25.530 -14.301  0.00  0.00    -0.095 C 
ENDROOT
BRANCH   1   5
ATOM      5  C   UNL     1      37.467 -26.489 -14.034  0.00  0.00    +0.001 C 
BRANCH   5   7
ATOM      6  O   UNL     1      36.735 -27.328 -16.180  0.00  0.00    -0.291 OA
ATOM      7  C   UNL     1      36.622 -26.510 -15.274  0.00  0.00    +0.185 C 
ENDBRANCH   5   7
ENDBRANCH   1   5
TORSDOF 2
ENDMDL
MODEL 3
REMARK VINA RESULT:      -3.8      2.240      2.909
REMARK  Name = 249
REMARK  2 active torsions:
REMARK  status: ('A' for Active; 'I' for Inactive)
REMARK    1  A    between atoms: N_1  and  C_5
REMARK    2  A    between atoms: C_5  and  C_7
REMARK                            x       y       z     vdW  Elec       q    Type
REMARK                         _______ _______ _______ _____ _____    ______ ____
ROOT
ATOM      1  N   UNL     1      38.103 -25.475 -14.006  0.00  0.00    +0.391 N 
ATOM      2  C   UNL     1      37.411 -26.765 -14.424  0.00  0.00    -0.095 C 
ATOM      3  C   UNL     1      37.438 -24.296 -14.702  0.00  0.00    -0.095 C 
ATOM      4  C   UNL     1      39.570 -25.536 -14.403  0.00  0.00    -0.095 C 
ENDROOT
BRANCH   1   5
ATOM      5  C   UNL     1      37.991 -25.303 -12.499  0.00  0.00    +0.001 C 
BRANCH   5   7
ATOM      6  O   UNL     1      38.850 -23.207 -11.653  0.00  0.00    -0.291 OA
ATOM      7  C   UNL     1      37.915 -23.857 -12.110  0.00  0.00    +0.185 C 
ENDBRANCH   5   7
ENDBRANCH   1   5
TORSDOF 2
ENDMDL
MODEL 4
REMARK VINA RESULT:      -3.8      2.411      3.101
REMARK  Name = 249
REMARK  2 active torsions:
REMARK  status: ('A' for Active; 'I' for Inactive)
REMARK    1  A    between atoms: N_1  and  C_5
REMARK    2  A    between atoms: C_5  and  C_7
REMARK                            x       y       z     vdW  Elec       q    Type
REMARK                         _______ _______ _______ _____ _____    ______ ____
ROOT
ATOM      1  N   UNL     1      36.365 -24.837 -13.574  0.00  0.00    +0.391 N 
ATOM      2  C   UNL     1      37.272 -23.626 -13.742  0.00  0.00    -0.095 C 
ATOM      3  C   UNL     1      35.081 -24.415 -12.873  0.00  0.00    -0.095 C 
ATOM      4  C   UNL     1      37.077 -25.891 -12.738  0.00  0.00    -0.095 C 
ENDROOT
BRANCH   1   5
ATOM      5  C   UNL     1      36.030 -25.414 -14.941  0.00  0.00    +0.001 C 
BRANCH   5   7
ATOM      6  O   UNL     1      36.697 -27.343 -16.237  0.00  0.00    -0.291 OA
ATOM      7  C   UNL     1      36.794 -26.677 -15.212  0.00  0.00    +0.185 C 
ENDBRANCH   5   7
ENDBRANCH   1   5
TORSDOF 2
ENDMDL
MODEL 5
REMARK VINA RESULT:      -3.7     10.821     11.649
REMARK  Name = 249
REMARK  2 active torsions:
REMARK  status: ('A' for Active; 'I' for Inactive)
REMARK    1  A    between atoms: N_1  and  C_5
REMARK    2  A    between atoms: C_5  and  C_7
REMARK                            x       y       z     vdW  Elec       q    Type
REMARK                         _______ _______ _______ _____ _____    ______ ____
ROOT
ATOM      1  N   UNL     1      42.047 -15.270 -17.124  0.00  0.00    +0.391 N 
ATOM      2  C   UNL     1      41.229 -14.329 -17.998  0.00  0.00    -0.095 C 
ATOM      3  C   UNL     1      43.412 -14.653 -16.854  0.00  0.00    -0.095 C 
ATOM      4  C   UNL     1      42.224 -16.601 -17.841  0.00  0.00    -0.095 C 
ENDROOT
BRANCH   1   5
ATOM      5  C   UNL     1      41.323 -15.497 -15.805  0.00  0.00    +0.001 C 
BRANCH   5   7
ATOM      6  O   UNL     1      40.674 -14.086 -13.952  0.00  0.00    -0.291 OA
ATOM      7  C   UNL     1      40.970 -14.201 -15.137  0.00  0.00    +0.185 C 
ENDBRANCH   5   7
ENDBRANCH   1   5
TORSDOF 2
ENDMDL
MODEL 6
REMARK VINA RESULT:      -3.7      9.248     10.259
REMARK  Name = 249
REMARK  2 active torsions:
REMARK  status: ('A' for Active; 'I' for Inactive)
REMARK    1  A    between atoms: N_1  and  C_5
REMARK    2  A    between atoms: C_5  and  C_7
REMARK                            x       y       z     vdW  Elec       q    Type
REMARK                         _______ _______ _______ _____ _____    ______ ____
ROOT
ATOM      1  N   UNL     1      34.759 -18.964 -21.453  0.00  0.00    +0.391 N 
ATOM      2  C   UNL     1      34.972 -17.497 -21.108  0.00  0.00    -0.095 C 
ATOM      3  C   UNL     1      35.839 -19.804 -20.785  0.00  0.00    -0.095 C 
ATOM      4  C   UNL     1      34.835 -19.146 -22.962  0.00  0.00    -0.095 C 
ENDROOT
BRANCH   1   5
ATOM      5  C   UNL     1      33.392 -19.410 -20.957  0.00  0.00    +0.001 C 
BRANCH   5   7
ATOM      6  O   UNL     1      32.615 -21.030 -19.339  0.00  0.00    -0.291 OA
ATOM      7  C   UNL     1      33.483 -20.649 -20.116  0.00  0.00    +0.185 C 
ENDBRANCH   5   7
ENDBRANCH   1   5
TORSDOF 2
ENDMDL
MODEL 7
REMARK VINA RESULT:      -3.7      2.385      3.014
REMARK  Name = 249
REMARK  2 active torsions:
REMARK  status: ('A' for Active; 'I' for Inactive)
REMARK    1  A    between atoms: N_1  and  C_5
REMARK    2  A    between atoms: C_5  and  C_7
REMARK                            x       y       z     vdW  Elec       q    Type
REMARK                         _______ _______ _______ _____ _____    ______ ____
ROOT
ATOM      1  N   UNL     1      37.323 -25.017 -14.193  0.00  0.00    +0.391 N 
ATOM      2  C   UNL     1      37.638 -23.873 -15.147  0.00  0.00    -0.095 C 
ATOM      3  C   UNL     1      37.298 -26.329 -14.965  0.00  0.00    -0.095 C 
ATOM      4  C   UNL     1      35.964 -24.780 -13.552  0.00  0.00    -0.095 C 
ENDROOT
BRANCH   1   5
ATOM      5  C   UNL     1      38.390 -25.085 -13.111  0.00  0.00    +0.001 C 
BRANCH   5   7
ATOM      6  O   UNL     1      38.743 -23.168 -11.681  0.00  0.00    -0.291 OA
ATOM      7  C   UNL     1      38.083 -24.160 -11.970  0.00  0.00    +0.185 C 
ENDBRANCH   5   7
ENDBRANCH   1   5
TORSDOF 2
ENDMDL
MODEL 8
REMARK VINA RESULT:      -3.6      8.820      9.627
REMARK  Name = 249
REMARK  2 active torsions:
REMARK  status: ('A' for Active; 'I' for Inactive)
REMARK    1  A    between atoms: N_1  and  C_5
REMARK    2  A    between atoms: C_5  and  C_7
REMARK                            x       y       z     vdW  Elec       q    Type
REMARK                         _______ _______ _______ _____ _____    ______ ____
ROOT
ATOM      1  N   UNL     1      30.439 -23.547 -15.671  0.00  0.00    +0.391 N 
ATOM      2  C   UNL     1      31.734 -23.359 -16.449  0.00  0.00    -0.095 C 
ATOM      3  C   UNL     1      30.621 -23.027 -14.251  0.00  0.00    -0.095 C 
ATOM      4  C   UNL     1      30.084 -25.026 -15.628  0.00  0.00    -0.095 C 
ENDROOT
BRANCH   1   5
ATOM      5  C   UNL     1      29.320 -22.776 -16.353  0.00  0.00    +0.001 C 
BRANCH   5   7
ATOM      6  O   UNL     1      27.510 -23.436 -17.814  0.00  0.00    -0.291 OA
ATOM      7  C   UNL     1      28.251 -23.692 -16.871  0.00  0.00    +0.185 C 
ENDBRANCH   5   7
ENDBRANCH   1   5
TORSDOF 2
ENDMDL
MODEL 9
REMARK VINA RESULT:      -3.6      3.092      3.959
REMARK  Name = 249
REMARK  2 active torsions:
REMARK  status: ('A' for Active; 'I' for Inactive)
REMARK    1  A    between atoms: N_1  and  C_5
REMARK    2  A    between atoms: C_5  and  C_7
REMARK                            x       y       z     vdW  Elec       q    Type
REMARK                         _______ _______ _______ _____ _____    ______ ____
ROOT
ATOM      1  N   UNL     1      36.643 -25.247 -14.253  0.00  0.00    +0.391 N 
ATOM      2  C   UNL     1      35.260 -24.675 -14.528  0.00  0.00    -0.095 C 
ATOM      3  C   UNL     1      37.703 -24.269 -14.741  0.00  0.00    -0.095 C 
ATOM      4  C   UNL     1      36.799 -26.571 -14.986  0.00  0.00    -0.095 C 
ENDROOT
BRANCH   1   5
ATOM      5  C   UNL     1      36.812 -25.472 -12.757  0.00  0.00    +0.001 C 
BRANCH   5   7
ATOM      6  O   UNL     1      35.378 -25.092 -10.848  0.00  0.00    -0.291 OA
ATOM      7  C   UNL     1      35.755 -24.760 -11.967  0.00  0.00    +0.185 C 
ENDBRANCH   5   7
ENDBRANCH   1   5
TORSDOF 2
ENDMDL
