MODEL 1
REMARK VINA RESULT:     -11.4      0.000      0.000
REMARK  Name = 158376
REMARK  11 active torsions:
REMARK  status: ('A' for Active; 'I' for Inactive)
REMARK    1  A    between atoms: C_1  and  N_22
REMARK    2  A    between atoms: C_2  and  C_9
REMARK    3  A    between atoms: N_8  and  CA_11
REMARK    4  A    between atoms: CA_11  and  C_13
REMARK    5  A    between atoms: CA_11  and  CB_16
REMARK    6  A    between atoms: C_13  and  O_14
REMARK    7  A    between atoms: CB_16  and  CG_17
REMARK    8  A    between atoms: CG_17  and  CD_19
REMARK    9  A    between atoms: CD_19  and  OE1_20
REMARK   10  A    between atoms: N_22  and  C_24
REMARK   11  A    between atoms: C_24  and  C_29
REMARK                            x       y       z     vdW  Elec       q    Type
REMARK                         _______ _______ _______ _____ _____    ______ ____
ROOT
ATOM      1  C   UNL     1      35.489 -19.627 -20.852  0.00  0.00    +0.048 C 
ATOM      2  C   UNL     1      34.357 -21.717 -19.391  0.00  0.00    +0.053 C 
ATOM      3  C   UNL     1      36.310 -20.516 -20.156  0.00  0.00    +0.015 C 
ATOM      4  C   UNL     1      34.104 -19.783 -20.816  0.00  0.00    +0.015 C 
ATOM      5  C   UNL     1      35.744 -21.561 -19.427  0.00  0.00    +0.006 C 
ATOM      6  C   UNL     1      33.538 -20.828 -20.085  0.00  0.00    +0.006 C 
ENDROOT
BRANCH   2   9
ATOM      7  O   UNL     1      33.807 -23.972 -19.062  0.00  0.00    -0.270 OA
ATOM      8  N   UNL     1      33.187 -22.483 -17.395  0.00  0.00    -0.293 N 
ATOM      9  C   ACE A   0      33.755 -22.830 -18.613  0.00  0.00    +0.246 C 
ATOM     10  H   UNL     1      33.193 -21.538 -17.121  0.00  0.00    +0.150 HD
BRANCH   8  11
ATOM     11  CA  UNL     1      32.585 -23.454 -16.516  0.00  0.00    +0.172 C 
BRANCH  11  13
ATOM     12  OXT UNL     1      30.500 -22.371 -17.161  0.00  0.00    -0.248 OA
ATOM     13  C   UNL     1      31.109 -23.128 -16.414  0.00  0.00    +0.332 C 
BRANCH  13  14
ATOM     14  O   UNL     1      30.507 -23.810 -15.405  0.00  0.00    -0.479 OA
ATOM     15  H   UNL     1      31.003 -24.411 -14.886  0.00  0.00    +0.295 HD
ENDBRANCH  13  14
ENDBRANCH  11  13
BRANCH  11  16
ATOM     16  CB  UNL     1      33.294 -23.544 -15.159  0.00  0.00    +0.043 C 
BRANCH  16  17
ATOM     17  CG  UNL     1      34.588 -24.367 -15.136  0.00  0.00    +0.112 C 
BRANCH  17  19
ATOM     18  OE2 UNL     1      35.860 -22.367 -15.700  0.00  0.00    -0.250 OA
ATOM     19  CD  UNL     1      35.822 -23.575 -15.508  0.00  0.00    +0.314 C 
BRANCH  19  20
ATOM     20  OE1 UNL     1      36.909 -24.379 -15.650  0.00  0.00    -0.480 OA
ATOM     21  HE1 UNL     1      37.649 -24.082 -16.141  0.00  0.00    +0.295 HD
ENDBRANCH  19  20
ENDBRANCH  17  19
ENDBRANCH  16  17
ENDBRANCH  11  16
ENDBRANCH   8  11
ENDBRANCH   2   9
BRANCH   1  22
ATOM     22  N   UNL     1      36.061 -18.571 -21.591  0.00  0.00    -0.302 N 
ATOM     23  C   UNL     1      37.435 -18.652 -22.045  0.00  0.00    +0.112 C 
BRANCH  22  24
ATOM     24  C   UNL     1      35.277 -17.396 -21.919  0.00  0.00    +0.118 C 
BRANCH  24  29
ATOM     25  O   UNL     1      34.390 -17.858 -25.478  0.00  0.00    -0.427 OA
ATOM     26  N   UNL     1      33.561 -15.775 -26.300  0.00  0.00    -0.294 NA
ATOM     27  N   UNL     1      33.533 -14.000 -24.633  0.00  0.00    -0.317 NA
ATOM     28  N   UNL     1      32.798 -13.626 -26.823  0.00  0.00    -0.283 N 
ATOM     29  C   UNL     1      34.838 -17.288 -23.347  0.00  0.00    +0.031 C 
ATOM     30  C   UNL     1      34.324 -16.147 -24.010  0.00  0.00    +0.180 C 
ATOM     31  C   UNL     1      34.061 -16.544 -25.318  0.00  0.00    +0.281 C 
ATOM     32  C   UNL     1      34.859 -18.297 -24.281  0.00  0.00    +0.176 C 
ATOM     33  C   UNL     1      34.038 -14.823 -23.685  0.00  0.00    +0.181 C 
ATOM     34  C   UNL     1      33.327 -14.520 -25.864  0.00  0.00    +0.200 C 
ATOM     35  H   UNL     1      32.624 -13.937 -27.741  0.00  0.00    +0.156 HD
ATOM     36  H   UNL     1      32.604 -12.694 -26.574  0.00  0.00    +0.156 HD
ATOM     37  N   UNL     1      34.270 -14.328 -22.389  0.00  0.00    -0.335 N 
ATOM     38  H   UNL     1      34.063 -13.390 -22.176  0.00  0.00    +0.144 HD
ATOM     39  H   UNL     1      34.639 -14.920 -21.694  0.00  0.00    +0.144 HD
ENDBRANCH  24  29
ENDBRANCH  22  24
ENDBRANCH   1  22
TORSDOF 11
ENDMDL
MODEL 2
REMARK VINA RESULT:     -11.2      1.432      2.106
REMARK  Name = 158376
REMARK  11 active torsions:
REMARK  status: ('A' for Active; 'I' for Inactive)
REMARK    1  A    between atoms: C_1  and  N_22
REMARK    2  A    between atoms: C_2  and  C_9
REMARK    3  A    between atoms: N_8  and  CA_11
REMARK    4  A    between atoms: CA_11  and  C_13
REMARK    5  A    between atoms: CA_11  and  CB_16
REMARK    6  A    between atoms: C_13  and  O_14
REMARK    7  A    between atoms: CB_16  and  CG_17
REMARK    8  A    between atoms: CG_17  and  CD_19
REMARK    9  A    between atoms: CD_19  and  OE1_20
REMARK   10  A    between atoms: N_22  and  C_24
REMARK   11  A    between atoms: C_24  and  C_29
REMARK                            x       y       z     vdW  Elec       q    Type
REMARK                         _______ _______ _______ _____ _____    ______ ____
ROOT
ATOM      1  C   UNL     1      34.954 -19.585 -20.841  0.00  0.00    +0.048 C 
ATOM      2  C   UNL     1      33.870 -21.628 -19.281  0.00  0.00    +0.053 C 
ATOM      3  C   UNL     1      35.796 -20.505 -20.215  0.00  0.00    +0.015 C 
ATOM      4  C   UNL     1      33.572 -19.686 -20.688  0.00  0.00    +0.015 C 
ATOM      5  C   UNL     1      35.253 -21.526 -19.435  0.00  0.00    +0.006 C 
ATOM      6  C   UNL     1      33.030 -20.708 -19.908  0.00  0.00    +0.006 C 
ENDROOT
BRANCH   2   9
ATOM      7  O   UNL     1      33.737 -23.856 -18.563  0.00  0.00    -0.270 OA
ATOM      8  N   UNL     1      32.285 -22.342 -17.574  0.00  0.00    -0.293 N 
ATOM      9  C   ACE A   0      33.293 -22.716 -18.451  0.00  0.00    +0.246 C 
ATOM     10  H   UNL     1      31.996 -21.401 -17.557  0.00  0.00    +0.150 HD
BRANCH   8  11
ATOM     11  CA  UNL     1      31.643 -23.277 -16.685  0.00  0.00    +0.172 C 
BRANCH  11  13
ATOM     12  OXT UNL     1      29.618 -21.964 -17.010  0.00  0.00    -0.248 OA
ATOM     13  C   UNL     1      30.149 -23.041 -16.771  0.00  0.00    +0.332 C 
BRANCH  13  14
ATOM     14  O   UNL     1      29.443 -24.187 -16.586  0.00  0.00    -0.479 OA
ATOM     15  H   UNL     1      28.509 -24.157 -16.529  0.00  0.00    +0.295 HD
ENDBRANCH  13  14
ENDBRANCH  11  13
BRANCH  11  16
ATOM     16  CB  UNL     1      32.199 -23.216 -15.257  0.00  0.00    +0.043 C 
BRANCH  16  17
ATOM     17  CG  UNL     1      31.160 -23.296 -14.132  0.00  0.00    +0.112 C 
BRANCH  17  19
ATOM     18  OE2 UNL     1      31.872 -25.320 -12.978  0.00  0.00    -0.250 OA
ATOM     19  CD  UNL     1      30.998 -24.683 -13.549  0.00  0.00    +0.314 C 
BRANCH  19  20
ATOM     20  OE1 UNL     1      29.750 -25.175 -13.770  0.00  0.00    -0.480 OA
ATOM     21  HE1 UNL     1      29.616 -26.100 -13.827  0.00  0.00    +0.295 HD
ENDBRANCH  19  20
ENDBRANCH  17  19
ENDBRANCH  16  17
ENDBRANCH  11  16
ENDBRANCH   8  11
ENDBRANCH   2   9
BRANCH   1  22
ATOM     22  N   UNL     1      35.502 -18.552 -21.631  0.00  0.00    -0.302 N 
ATOM     23  C   UNL     1      36.869 -18.637 -22.105  0.00  0.00    +0.112 C 
BRANCH  22  24
ATOM     24  C   UNL     1      34.700 -17.399 -21.991  0.00  0.00    +0.118 C 
BRANCH  24  29
ATOM     25  O   UNL     1      34.322 -17.646 -25.659  0.00  0.00    -0.427 OA
ATOM     26  N   UNL     1      33.620 -15.511 -26.467  0.00  0.00    -0.294 NA
ATOM     27  N   UNL     1      33.361 -13.835 -24.718  0.00  0.00    -0.317 NA
ATOM     28  N   UNL     1      32.943 -13.327 -26.965  0.00  0.00    -0.283 N 
ATOM     29  C   UNL     1      34.466 -17.204 -23.457  0.00  0.00    +0.031 C 
ATOM     30  C   UNL     1      34.052 -16.022 -24.117  0.00  0.00    +0.180 C 
ATOM     31  C   UNL     1      33.976 -16.340 -25.470  0.00  0.00    +0.281 C 
ATOM     32  C   UNL     1      34.617 -18.158 -24.437  0.00  0.00    +0.176 C 
ATOM     33  C   UNL     1      33.727 -14.716 -23.759  0.00  0.00    +0.181 C 
ATOM     34  C   UNL     1      33.330 -14.281 -25.995  0.00  0.00    +0.200 C 
ATOM     35  H   UNL     1      32.899 -13.583 -27.915  0.00  0.00    +0.156 HD
ATOM     36  H   UNL     1      32.717 -12.410 -26.690  0.00  0.00    +0.156 HD
ATOM     37  N   UNL     1      33.775 -14.299 -22.417  0.00  0.00    -0.335 N 
ATOM     38  H   UNL     1      33.542 -13.373 -22.180  0.00  0.00    +0.144 HD
ATOM     39  H   UNL     1      34.041 -14.934 -21.713  0.00  0.00    +0.144 HD
ENDBRANCH  24  29
ENDBRANCH  22  24
ENDBRANCH   1  22
TORSDOF 11
ENDMDL
MODEL 3
REMARK VINA RESULT:     -11.1      2.665      3.960
REMARK  Name = 158376
REMARK  11 active torsions:
REMARK  status: ('A' for Active; 'I' for Inactive)
REMARK    1  A    between atoms: C_1  and  N_22
REMARK    2  A    between atoms: C_2  and  C_9
REMARK    3  A    between atoms: N_8  and  CA_11
REMARK    4  A    between atoms: CA_11  and  C_13
REMARK    5  A    between atoms: CA_11  and  CB_16
REMARK    6  A    between atoms: C_13  and  O_14
REMARK    7  A    between atoms: CB_16  and  CG_17
REMARK    8  A    between atoms: CG_17  and  CD_19
REMARK    9  A    between atoms: CD_19  and  OE1_20
REMARK   10  A    between atoms: N_22  and  C_24
REMARK   11  A    between atoms: C_24  and  C_29
REMARK                            x       y       z     vdW  Elec       q    Type
REMARK                         _______ _______ _______ _____ _____    ______ ____
ROOT
ATOM      1  C   UNL     1      35.052 -21.013 -19.541  0.00  0.00    +0.048 C 
ATOM      2  C   UNL     1      36.129 -22.300 -17.311  0.00  0.00    +0.053 C 
ATOM      3  C   UNL     1      34.262 -21.882 -18.788  0.00  0.00    +0.015 C 
ATOM      4  C   UNL     1      36.380 -20.788 -19.180  0.00  0.00    +0.015 C 
ATOM      5  C   UNL     1      34.800 -22.524 -17.673  0.00  0.00    +0.006 C 
ATOM      6  C   UNL     1      36.918 -21.431 -18.065  0.00  0.00    +0.006 C 
ENDROOT
BRANCH   2   9
ATOM      7  O   UNL     1      37.855 -22.729 -15.783  0.00  0.00    -0.270 OA
ATOM      8  N   UNL     1      35.857 -23.864 -15.463  0.00  0.00    -0.293 N 
ATOM      9  C   ACE A   0      36.702 -22.984 -16.124  0.00  0.00    +0.246 C 
ATOM     10  H   UNL     1      34.948 -24.002 -15.814  0.00  0.00    +0.150 HD
BRANCH   8  11
ATOM     11  CA  UNL     1      36.258 -24.584 -14.281  0.00  0.00    +0.172 C 
BRANCH  11  13
ATOM     12  OXT UNL     1      36.194 -26.508 -15.774  0.00  0.00    -0.248 OA
ATOM     13  C   UNL     1      36.424 -26.040 -14.665  0.00  0.00    +0.332 C 
BRANCH  13  14
ATOM     14  O   UNL     1      36.901 -26.786 -13.635  0.00  0.00    -0.479 OA
ATOM     15  H   UNL     1      36.628 -26.602 -12.758  0.00  0.00    +0.295 HD
ENDBRANCH  13  14
ENDBRANCH  11  13
BRANCH  11  16
ATOM     16  CB  UNL     1      35.308 -24.360 -13.098  0.00  0.00    +0.043 C 
BRANCH  16  17
ATOM     17  CG  UNL     1      35.891 -23.583 -11.912  0.00  0.00    +0.112 C 
BRANCH  17  19
ATOM     18  OE2 UNL     1      37.961 -24.776 -11.434  0.00  0.00    -0.250 OA
ATOM     19  CD  UNL     1      37.387 -23.744 -11.753  0.00  0.00    +0.314 C 
BRANCH  19  20
ATOM     20  OE1 UNL     1      38.042 -22.573 -11.970  0.00  0.00    -0.480 OA
ATOM     21  HE1 UNL     1      38.503 -22.157 -11.268  0.00  0.00    +0.295 HD
ENDBRANCH  19  20
ENDBRANCH  17  19
ENDBRANCH  16  17
ENDBRANCH  11  16
ENDBRANCH   8  11
ENDBRANCH   2   9
BRANCH   1  22
ATOM     22  N   UNL     1      34.508 -20.362 -20.667  0.00  0.00    -0.302 N 
ATOM     23  C   UNL     1      33.072 -20.292 -20.851  0.00  0.00    +0.112 C 
BRANCH  22  24
ATOM     24  C   UNL     1      35.377 -19.742 -21.648  0.00  0.00    +0.118 C 
BRANCH  24  29
ATOM     25  O   UNL     1      34.794 -16.092 -21.698  0.00  0.00    -0.427 OA
ATOM     26  N   UNL     1      34.179 -15.481 -23.922  0.00  0.00    -0.294 NA
ATOM     27  N   UNL     1      34.110 -17.357 -25.474  0.00  0.00    -0.317 NA
ATOM     28  N   UNL     1      33.607 -15.179 -26.171  0.00  0.00    -0.283 N 
ATOM     29  C   UNL     1      35.079 -18.309 -21.964  0.00  0.00    +0.031 C 
ATOM     30  C   UNL     1      34.700 -17.760 -23.213  0.00  0.00    +0.180 C 
ATOM     31  C   UNL     1      34.536 -16.394 -23.003  0.00  0.00    +0.281 C 
ATOM     32  C   UNL     1      35.120 -17.257 -21.079  0.00  0.00    +0.176 C 
ATOM     33  C   UNL     1      34.473 -18.228 -24.505  0.00  0.00    +0.181 C 
ATOM     34  C   UNL     1      33.988 -16.055 -25.128  0.00  0.00    +0.200 C 
ATOM     35  H   UNL     1      33.499 -14.217 -25.990  0.00  0.00    +0.156 HD
ATOM     36  H   UNL     1      33.451 -15.531 -27.076  0.00  0.00    +0.156 HD
ATOM     37  N   UNL     1      34.612 -19.593 -24.816  0.00  0.00    -0.335 N 
ATOM     38  H   UNL     1      34.448 -19.908 -25.734  0.00  0.00    +0.144 HD
ATOM     39  H   UNL     1      34.875 -20.233 -24.116  0.00  0.00    +0.144 HD
ENDBRANCH  24  29
ENDBRANCH  22  24
ENDBRANCH   1  22
TORSDOF 11
ENDMDL
MODEL 4
REMARK VINA RESULT:     -11.0      1.654      2.216
REMARK  Name = 158376
REMARK  11 active torsions:
REMARK  status: ('A' for Active; 'I' for Inactive)
REMARK    1  A    between atoms: C_1  and  N_22
REMARK    2  A    between atoms: C_2  and  C_9
REMARK    3  A    between atoms: N_8  and  CA_11
REMARK    4  A    between atoms: CA_11  and  C_13
REMARK    5  A    between atoms: CA_11  and  CB_16
REMARK    6  A    between atoms: C_13  and  O_14
REMARK    7  A    between atoms: CB_16  and  CG_17
REMARK    8  A    between atoms: CG_17  and  CD_19
REMARK    9  A    between atoms: CD_19  and  OE1_20
REMARK   10  A    between atoms: N_22  and  C_24
REMARK   11  A    between atoms: C_24  and  C_29
REMARK                            x       y       z     vdW  Elec       q    Type
REMARK                         _______ _______ _______ _____ _____    ______ ____
ROOT
ATOM      1  C   UNL     1      35.004 -20.180 -20.558  0.00  0.00    +0.048 C 
ATOM      2  C   UNL     1      33.833 -22.001 -18.798  0.00  0.00    +0.053 C 
ATOM      3  C   UNL     1      35.807 -21.046 -19.816  0.00  0.00    +0.015 C 
ATOM      4  C   UNL     1      33.617 -20.224 -20.421  0.00  0.00    +0.015 C 
ATOM      5  C   UNL     1      35.221 -21.957 -18.936  0.00  0.00    +0.006 C 
ATOM      6  C   UNL     1      33.032 -21.134 -19.540  0.00  0.00    +0.006 C 
ENDROOT
BRANCH   2   9
ATOM      7  O   UNL     1      33.756 -24.054 -17.669  0.00  0.00    -0.270 OA
ATOM      8  N   UNL     1      32.040 -22.552 -17.242  0.00  0.00    -0.293 N 
ATOM      9  C   ACE A   0      33.210 -22.970 -17.861  0.00  0.00    +0.246 C 
ATOM     10  H   UNL     1      31.680 -21.663 -17.463  0.00  0.00    +0.150 HD
BRANCH   8  11
ATOM     11  CA  UNL     1      31.332 -23.369 -16.290  0.00  0.00    +0.172 C 
BRANCH  11  13
ATOM     12  OXT UNL     1      29.369 -22.239 -17.185  0.00  0.00    -0.248 OA
ATOM     13  C   UNL     1      29.850 -23.121 -16.485  0.00  0.00    +0.332 C 
BRANCH  13  14
ATOM     14  O   UNL     1      29.092 -24.028 -15.815  0.00  0.00    -0.479 OA
ATOM     15  H   UNL     1      28.201 -24.170 -16.066  0.00  0.00    +0.295 HD
ENDBRANCH  13  14
ENDBRANCH  11  13
BRANCH  11  16
ATOM     16  CB  UNL     1      31.811 -23.151 -14.849  0.00  0.00    +0.043 C 
BRANCH  16  17
ATOM     17  CG  UNL     1      32.433 -24.372 -14.160  0.00  0.00    +0.112 C 
BRANCH  17  19
ATOM     18  OE2 UNL     1      34.738 -23.654 -14.489  0.00  0.00    -0.250 OA
ATOM     19  CD  UNL     1      33.888 -24.188 -13.790  0.00  0.00    +0.314 C 
BRANCH  19  20
ATOM     20  OE1 UNL     1      34.168 -24.732 -12.576  0.00  0.00    -0.480 OA
ATOM     21  HE1 UNL     1      35.012 -25.104 -12.413  0.00  0.00    +0.295 HD
ENDBRANCH  19  20
ENDBRANCH  17  19
ENDBRANCH  16  17
ENDBRANCH  11  16
ENDBRANCH   8  11
ENDBRANCH   2   9
BRANCH   1  22
ATOM     22  N   UNL     1      35.595 -19.260 -21.449  0.00  0.00    -0.302 N 
ATOM     23  C   UNL     1      37.029 -19.051 -21.444  0.00  0.00    +0.112 C 
BRANCH  22  24
ATOM     24  C   UNL     1      34.778 -18.523 -22.393  0.00  0.00    +0.118 C 
BRANCH  24  29
ATOM     25  O   UNL     1      34.590 -15.100 -21.010  0.00  0.00    -0.427 OA
ATOM     26  N   UNL     1      34.052 -13.617 -22.802  0.00  0.00    -0.294 NA
ATOM     27  N   UNL     1      33.788 -14.728 -24.953  0.00  0.00    -0.317 NA
ATOM     28  N   UNL     1      33.525 -12.412 -24.737  0.00  0.00    -0.283 N 
ATOM     29  C   UNL     1      34.636 -17.057 -22.121  0.00  0.00    +0.031 C 
ATOM     30  C   UNL     1      34.324 -16.032 -23.046  0.00  0.00    +0.180 C 
ATOM     31  C   UNL     1      34.306 -14.845 -22.320  0.00  0.00    +0.281 C 
ATOM     32  C   UNL     1      34.786 -16.440 -20.901  0.00  0.00    +0.176 C 
ATOM     33  C   UNL     1      34.052 -15.938 -24.409  0.00  0.00    +0.181 C 
ATOM     34  C   UNL     1      33.805 -13.657 -24.127  0.00  0.00    +0.200 C 
ATOM     35  H   UNL     1      33.520 -11.590 -24.195  0.00  0.00    +0.156 HD
ATOM     36  H   UNL     1      33.335 -12.368 -25.701  0.00  0.00    +0.156 HD
ATOM     37  N   UNL     1      34.045 -17.082 -25.227  0.00  0.00    -0.335 N 
ATOM     38  H   UNL     1      33.851 -16.999 -26.189  0.00  0.00    +0.144 HD
ATOM     39  H   UNL     1      34.235 -17.967 -24.839  0.00  0.00    +0.144 HD
ENDBRANCH  24  29
ENDBRANCH  22  24
ENDBRANCH   1  22
TORSDOF 11
ENDMDL
MODEL 5
REMARK VINA RESULT:     -11.0      2.538      4.115
REMARK  Name = 158376
REMARK  11 active torsions:
REMARK  status: ('A' for Active; 'I' for Inactive)
REMARK    1  A    between atoms: C_1  and  N_22
REMARK    2  A    between atoms: C_2  and  C_9
REMARK    3  A    between atoms: N_8  and  CA_11
REMARK    4  A    between atoms: CA_11  and  C_13
REMARK    5  A    between atoms: CA_11  and  CB_16
REMARK    6  A    between atoms: C_13  and  O_14
REMARK    7  A    between atoms: CB_16  and  CG_17
REMARK    8  A    between atoms: CG_17  and  CD_19
REMARK    9  A    between atoms: CD_19  and  OE1_20
REMARK   10  A    between atoms: N_22  and  C_24
REMARK   11  A    between atoms: C_24  and  C_29
REMARK                            x       y       z     vdW  Elec       q    Type
REMARK                         _______ _______ _______ _____ _____    ______ ____
ROOT
ATOM      1  C   UNL     1      34.727 -20.906 -19.751  0.00  0.00    +0.048 C 
ATOM      2  C   UNL     1      35.329 -22.552 -17.580  0.00  0.00    +0.053 C 
ATOM      3  C   UNL     1      33.718 -21.651 -19.140  0.00  0.00    +0.015 C 
ATOM      4  C   UNL     1      36.036 -20.984 -19.277  0.00  0.00    +0.015 C 
ATOM      5  C   UNL     1      34.019 -22.473 -18.055  0.00  0.00    +0.006 C 
ATOM      6  C   UNL     1      36.337 -21.808 -18.191  0.00  0.00    +0.006 C 
ENDROOT
BRANCH   2   9
ATOM      7  O   UNL     1      34.853 -24.306 -16.098  0.00  0.00    -0.270 OA
ATOM      8  N   UNL     1      36.867 -23.192 -15.801  0.00  0.00    -0.293 N 
ATOM      9  C   ACE A   0      35.648 -23.428 -16.424  0.00  0.00    +0.246 C 
ATOM     10  H   UNL     1      37.436 -22.463 -16.136  0.00  0.00    +0.150 HD
BRANCH   8  11
ATOM     11  CA  UNL     1      37.329 -23.974 -14.683  0.00  0.00    +0.172 C 
BRANCH  11  13
ATOM     12  OXT UNL     1      37.695 -22.753 -12.607  0.00  0.00    -0.248 OA
ATOM     13  C   UNL     1      36.921 -23.249 -13.417  0.00  0.00    +0.332 C 
BRANCH  13  14
ATOM     14  O   UNL     1      35.570 -23.172 -13.289  0.00  0.00    -0.479 OA
ATOM     15  H   UNL     1      35.081 -22.592 -13.836  0.00  0.00    +0.295 HD
ENDBRANCH  13  14
ENDBRANCH  11  13
BRANCH  11  16
ATOM     16  CB  UNL     1      38.828 -24.289 -14.760  0.00  0.00    +0.043 C 
BRANCH  16  17
ATOM     17  CG  UNL     1      39.283 -25.555 -14.023  0.00  0.00    +0.112 C 
BRANCH  17  19
ATOM     18  OE2 UNL     1      41.345 -26.852 -14.047  0.00  0.00    -0.250 OA
ATOM     19  CD  UNL     1      40.484 -26.228 -14.651  0.00  0.00    +0.314 C 
BRANCH  19  20
ATOM     20  OE1 UNL     1      40.525 -26.025 -15.994  0.00  0.00    -0.480 OA
ATOM     21  HE1 UNL     1      40.151 -26.658 -16.575  0.00  0.00    +0.295 HD
ENDBRANCH  19  20
ENDBRANCH  17  19
ENDBRANCH  16  17
ENDBRANCH  11  16
ENDBRANCH   8  11
ENDBRANCH   2   9
BRANCH   1  22
ATOM     22  N   UNL     1      34.424 -20.074 -20.848  0.00  0.00    -0.302 N 
ATOM     23  C   UNL     1      33.062 -19.966 -21.333  0.00  0.00    +0.112 C 
BRANCH  22  24
ATOM     24  C   UNL     1      35.467 -19.302 -21.495  0.00  0.00    +0.118 C 
BRANCH  24  29
ATOM     25  O   UNL     1      34.667 -15.705 -21.788  0.00  0.00    -0.427 OA
ATOM     26  N   UNL     1      34.038 -15.278 -24.051  0.00  0.00    -0.294 NA
ATOM     27  N   UNL     1      34.096 -17.252 -25.477  0.00  0.00    -0.317 NA
ATOM     28  N   UNL     1      33.471 -15.159 -26.318  0.00  0.00    -0.283 N 
ATOM     29  C   UNL     1      35.087 -17.914 -21.907  0.00  0.00    +0.031 C 
ATOM     30  C   UNL     1      34.688 -17.471 -23.191  0.00  0.00    +0.180 C 
ATOM     31  C   UNL     1      34.440 -16.106 -23.072  0.00  0.00    +0.281 C 
ATOM     32  C   UNL     1      35.056 -16.805 -21.092  0.00  0.00    +0.176 C 
ATOM     33  C   UNL     1      34.501 -18.035 -24.451  0.00  0.00    +0.181 C 
ATOM     34  C   UNL     1      33.893 -15.941 -25.217  0.00  0.00    +0.200 C 
ATOM     35  H   UNL     1      33.303 -14.196 -26.201  0.00  0.00    +0.156 HD
ATOM     36  H   UNL     1      33.344 -15.578 -27.199  0.00  0.00    +0.156 HD
ATOM     37  N   UNL     1      34.725 -19.406 -24.671  0.00  0.00    -0.335 N 
ATOM     38  H   UNL     1      34.589 -19.789 -25.567  0.00  0.00    +0.144 HD
ATOM     39  H   UNL     1      35.019 -19.983 -23.929  0.00  0.00    +0.144 HD
ENDBRANCH  24  29
ENDBRANCH  22  24
ENDBRANCH   1  22
TORSDOF 11
ENDMDL
MODEL 6
REMARK VINA RESULT:     -10.8      3.791     10.583
REMARK  Name = 158376
REMARK  11 active torsions:
REMARK  status: ('A' for Active; 'I' for Inactive)
REMARK    1  A    between atoms: C_1  and  N_22
REMARK    2  A    between atoms: C_2  and  C_9
REMARK    3  A    between atoms: N_8  and  CA_11
REMARK    4  A    between atoms: CA_11  and  C_13
REMARK    5  A    between atoms: CA_11  and  CB_16
REMARK    6  A    between atoms: C_13  and  O_14
REMARK    7  A    between atoms: CB_16  and  CG_17
REMARK    8  A    between atoms: CG_17  and  CD_19
REMARK    9  A    between atoms: CD_19  and  OE1_20
REMARK   10  A    between atoms: N_22  and  C_24
REMARK   11  A    between atoms: C_24  and  C_29
REMARK                            x       y       z     vdW  Elec       q    Type
REMARK                         _______ _______ _______ _____ _____    ______ ____
ROOT
ATOM      1  C   UNL     1      34.633 -17.155 -23.519  0.00  0.00    +0.048 C 
ATOM      2  C   UNL     1      33.970 -14.568 -24.328  0.00  0.00    +0.053 C 
ATOM      3  C   UNL     1      34.669 -16.106 -22.600  0.00  0.00    +0.015 C 
ATOM      4  C   UNL     1      34.266 -16.910 -24.842  0.00  0.00    +0.015 C 
ATOM      5  C   UNL     1      34.337 -14.813 -23.004  0.00  0.00    +0.006 C 
ATOM      6  C   UNL     1      33.935 -15.616 -25.247  0.00  0.00    +0.006 C 
ENDROOT
BRANCH   2   9
ATOM      7  O   UNL     1      33.168 -13.012 -25.888  0.00  0.00    -0.270 OA
ATOM      8  N   UNL     1      33.807 -12.191 -23.814  0.00  0.00    -0.293 N 
ATOM      9  C   ACE A   0      33.617 -13.190 -24.759  0.00  0.00    +0.246 C 
ATOM     10  H   UNL     1      34.174 -12.435 -22.934  0.00  0.00    +0.150 HD
BRANCH   8  11
ATOM     11  CA  UNL     1      33.487 -10.810 -24.072  0.00  0.00    +0.172 C 
BRANCH  11  13
ATOM     12  OXT UNL     1      35.350  -9.245 -23.962  0.00  0.00    -0.248 OA
ATOM     13  C   UNL     1      34.751 -10.130 -24.559  0.00  0.00    +0.332 C 
BRANCH  13  14
ATOM     14  O   UNL     1      35.181 -10.646 -25.741  0.00  0.00    -0.479 OA
ATOM     15  H   UNL     1      36.020 -11.058 -25.794  0.00  0.00    +0.295 HD
ENDBRANCH  13  14
ENDBRANCH  11  13
BRANCH  11  16
ATOM     16  CB  UNL     1      32.836 -10.117 -22.869  0.00  0.00    +0.043 C 
BRANCH  16  17
ATOM     17  CG  UNL     1      31.372 -10.487 -22.598  0.00  0.00    +0.112 C 
BRANCH  17  19
ATOM     18  OE2 UNL     1      30.788 -11.210 -20.346  0.00  0.00    -0.250 OA
ATOM     19  CD  UNL     1      31.192 -11.478 -21.469  0.00  0.00    +0.314 C 
BRANCH  19  20
ATOM     20  OE1 UNL     1      31.577 -12.729 -21.835  0.00  0.00    -0.480 OA
ATOM     21  HE1 UNL     1      31.473 -13.009 -22.723  0.00  0.00    +0.295 HD
ENDBRANCH  19  20
ENDBRANCH  17  19
ENDBRANCH  16  17
ENDBRANCH  11  16
ENDBRANCH   8  11
ENDBRANCH   2   9
BRANCH   1  22
ATOM     22  N   UNL     1      34.967 -18.462 -23.111  0.00  0.00    -0.302 N 
ATOM     23  C   UNL     1      35.039 -19.538 -24.079  0.00  0.00    +0.112 C 
BRANCH  22  24
ATOM     24  C   UNL     1      35.258 -18.745 -21.719  0.00  0.00    +0.118 C 
BRANCH  24  29
ATOM     25  O   UNL     1      32.147 -20.010 -20.174  0.00  0.00    -0.427 OA
ATOM     26  N   UNL     1      32.717 -21.890 -18.818  0.00  0.00    -0.294 NA
ATOM     27  N   UNL     1      35.093 -22.428 -18.830  0.00  0.00    -0.317 NA
ATOM     28  N   UNL     1      33.565 -23.684 -17.579  0.00  0.00    -0.283 N 
ATOM     29  C   UNL     1      34.183 -19.465 -20.965  0.00  0.00    +0.031 C 
ATOM     30  C   UNL     1      34.325 -20.589 -20.117  0.00  0.00    +0.180 C 
ATOM     31  C   UNL     1      33.048 -20.891 -19.653  0.00  0.00    +0.281 C 
ATOM     32  C   UNL     1      32.843 -19.152 -20.964  0.00  0.00    +0.176 C 
ATOM     33  C   UNL     1      35.364 -21.405 -19.672  0.00  0.00    +0.181 C 
ATOM     34  C   UNL     1      33.804 -22.605 -18.460  0.00  0.00    +0.200 C 
ATOM     35  H   UNL     1      32.649 -23.872 -17.268  0.00  0.00    +0.156 HD
ATOM     36  H   UNL     1      34.313 -24.248 -17.276  0.00  0.00    +0.156 HD
ATOM     37  N   UNL     1      36.690 -21.179 -20.085  0.00  0.00    -0.335 N 
ATOM     38  H   UNL     1      37.412 -21.765 -19.762  0.00  0.00    +0.144 HD
ATOM     39  H   UNL     1      36.896 -20.437 -20.698  0.00  0.00    +0.144 HD
ENDBRANCH  24  29
ENDBRANCH  22  24
ENDBRANCH   1  22
TORSDOF 11
ENDMDL
MODEL 7
REMARK VINA RESULT:     -10.8      2.355      3.822
REMARK  Name = 158376
REMARK  11 active torsions:
REMARK  status: ('A' for Active; 'I' for Inactive)
REMARK    1  A    between atoms: C_1  and  N_22
REMARK    2  A    between atoms: C_2  and  C_9
REMARK    3  A    between atoms: N_8  and  CA_11
REMARK    4  A    between atoms: CA_11  and  C_13
REMARK    5  A    between atoms: CA_11  and  CB_16
REMARK    6  A    between atoms: C_13  and  O_14
REMARK    7  A    between atoms: CB_16  and  CG_17
REMARK    8  A    between atoms: CG_17  and  CD_19
REMARK    9  A    between atoms: CD_19  and  OE1_20
REMARK   10  A    between atoms: N_22  and  C_24
REMARK   11  A    between atoms: C_24  and  C_29
REMARK                            x       y       z     vdW  Elec       q    Type
REMARK                         _______ _______ _______ _____ _____    ______ ____
ROOT
ATOM      1  C   UNL     1      34.665 -21.073 -19.642  0.00  0.00    +0.048 C 
ATOM      2  C   UNL     1      35.162 -22.701 -17.431  0.00  0.00    +0.053 C 
ATOM      3  C   UNL     1      33.628 -21.817 -19.077  0.00  0.00    +0.015 C 
ATOM      4  C   UNL     1      35.949 -21.142 -19.102  0.00  0.00    +0.015 C 
ATOM      5  C   UNL     1      33.877 -22.630 -17.971  0.00  0.00    +0.006 C 
ATOM      6  C   UNL     1      36.197 -21.957 -17.997  0.00  0.00    +0.006 C 
ENDROOT
BRANCH   2   9
ATOM      7  O   UNL     1      34.648 -24.481 -15.995  0.00  0.00    -0.270 OA
ATOM      8  N   UNL     1      36.579 -23.280 -15.535  0.00  0.00    -0.293 N 
ATOM      9  C   ACE A   0      35.427 -23.567 -16.254  0.00  0.00    +0.246 C 
ATOM     10  H   UNL     1      37.141 -22.525 -15.822  0.00  0.00    +0.150 HD
BRANCH   8  11
ATOM     11  CA  UNL     1      36.985 -24.046 -14.384  0.00  0.00    +0.172 C 
BRANCH  11  13
ATOM     12  OXT UNL     1      37.206 -22.655 -12.397  0.00  0.00    -0.248 OA
ATOM     13  C   UNL     1      36.499 -23.312 -13.150  0.00  0.00    +0.332 C 
BRANCH  13  14
ATOM     14  O   UNL     1      35.155 -23.432 -12.985  0.00  0.00    -0.479 OA
ATOM     15  H   UNL     1      34.669 -24.023 -13.523  0.00  0.00    +0.295 HD
ENDBRANCH  13  14
ENDBRANCH  11  13
BRANCH  11  16
ATOM     16  CB  UNL     1      38.488 -24.348 -14.372  0.00  0.00    +0.043 C 
BRANCH  16  17
ATOM     17  CG  UNL     1      38.871 -25.830 -14.280  0.00  0.00    +0.112 C 
BRANCH  17  19
ATOM     18  OE2 UNL     1      41.194 -26.532 -14.067  0.00  0.00    -0.250 OA
ATOM     19  CD  UNL     1      40.273 -26.130 -14.763  0.00  0.00    +0.314 C 
BRANCH  19  20
ATOM     20  OE1 UNL     1      40.414 -25.858 -16.088  0.00  0.00    -0.480 OA
ATOM     21  HE1 UNL     1      41.192 -26.120 -16.539  0.00  0.00    +0.295 HD
ENDBRANCH  19  20
ENDBRANCH  17  19
ENDBRANCH  16  17
ENDBRANCH  11  16
ENDBRANCH   8  11
ENDBRANCH   2   9
BRANCH   1  22
ATOM     22  N   UNL     1      34.414 -20.249 -20.758  0.00  0.00    -0.302 N 
ATOM     23  C   UNL     1      33.054 -19.914 -21.133  0.00  0.00    +0.112 C 
BRANCH  22  24
ATOM     24  C   UNL     1      35.513 -19.713 -21.538  0.00  0.00    +0.118 C 
BRANCH  24  29
ATOM     25  O   UNL     1      34.617 -18.350 -24.855  0.00  0.00    -0.427 OA
ATOM     26  N   UNL     1      34.191 -16.015 -24.594  0.00  0.00    -0.294 NA
ATOM     27  N   UNL     1      34.455 -15.216 -22.308  0.00  0.00    -0.317 NA
ATOM     28  N   UNL     1      33.837 -13.769 -24.042  0.00  0.00    -0.283 N 
ATOM     29  C   UNL     1      35.124 -18.896 -22.731  0.00  0.00    +0.031 C 
ATOM     30  C   UNL     1      34.836 -17.511 -22.773  0.00  0.00    +0.180 C 
ATOM     31  C   UNL     1      34.528 -17.218 -24.099  0.00  0.00    +0.281 C 
ATOM     32  C   UNL     1      34.979 -19.357 -24.018  0.00  0.00    +0.176 C 
ATOM     33  C   UNL     1      34.788 -16.451 -21.869  0.00  0.00    +0.181 C 
ATOM     34  C   UNL     1      34.180 -15.077 -23.625  0.00  0.00    +0.200 C 
ATOM     35  H   UNL     1      33.625 -13.595 -24.988  0.00  0.00    +0.156 HD
ATOM     36  H   UNL     1      33.810 -13.036 -23.387  0.00  0.00    +0.156 HD
ATOM     37  N   UNL     1      35.084 -16.647 -20.508  0.00  0.00    -0.335 N 
ATOM     38  H   UNL     1      35.046 -15.888 -19.882  0.00  0.00    +0.144 HD
ATOM     39  H   UNL     1      35.328 -17.543 -20.180  0.00  0.00    +0.144 HD
ENDBRANCH  24  29
ENDBRANCH  22  24
ENDBRANCH   1  22
TORSDOF 11
ENDMDL
MODEL 8
REMARK VINA RESULT:     -10.6      2.275      3.916
REMARK  Name = 158376
REMARK  11 active torsions:
REMARK  status: ('A' for Active; 'I' for Inactive)
REMARK    1  A    between atoms: C_1  and  N_22
REMARK    2  A    between atoms: C_2  and  C_9
REMARK    3  A    between atoms: N_8  and  CA_11
REMARK    4  A    between atoms: CA_11  and  C_13
REMARK    5  A    between atoms: CA_11  and  CB_16
REMARK    6  A    between atoms: C_13  and  O_14
REMARK    7  A    between atoms: CB_16  and  CG_17
REMARK    8  A    between atoms: CG_17  and  CD_19
REMARK    9  A    between atoms: CD_19  and  OE1_20
REMARK   10  A    between atoms: N_22  and  C_24
REMARK   11  A    between atoms: C_24  and  C_29
REMARK                            x       y       z     vdW  Elec       q    Type
REMARK                         _______ _______ _______ _____ _____    ______ ____
ROOT
ATOM      1  C   UNL     1      34.706 -20.922 -19.895  0.00  0.00    +0.048 C 
ATOM      2  C   UNL     1      35.395 -22.367 -17.610  0.00  0.00    +0.053 C 
ATOM      3  C   UNL     1      36.018 -20.892 -19.420  0.00  0.00    +0.015 C 
ATOM      4  C   UNL     1      33.740 -21.675 -19.229  0.00  0.00    +0.015 C 
ATOM      5  C   UNL     1      36.362 -21.615 -18.278  0.00  0.00    +0.006 C 
ATOM      6  C   UNL     1      34.085 -22.397 -18.085  0.00  0.00    +0.006 C 
ENDROOT
BRANCH   2   9
ATOM      7  O   UNL     1      35.139 -24.160 -16.121  0.00  0.00    -0.270 OA
ATOM      8  N   UNL     1      36.825 -22.636 -15.655  0.00  0.00    -0.293 N 
ATOM      9  C   ACE A   0      35.762 -23.137 -16.393  0.00  0.00    +0.246 C 
ATOM     10  H   UNL     1      37.261 -21.806 -15.955  0.00  0.00    +0.150 HD
BRANCH   8  11
ATOM     11  CA  UNL     1      37.314 -23.284 -14.464  0.00  0.00    +0.172 C 
BRANCH  11  13
ATOM     12  OXT UNL     1      37.826 -25.659 -14.638  0.00  0.00    -0.248 OA
ATOM     13  C   UNL     1      38.113 -24.497 -14.897  0.00  0.00    +0.332 C 
BRANCH  13  14
ATOM     14  O   UNL     1      39.188 -24.153 -15.654  0.00  0.00    -0.479 OA
ATOM     15  H   UNL     1      39.151 -24.238 -16.585  0.00  0.00    +0.295 HD
ENDBRANCH  13  14
ENDBRANCH  11  13
BRANCH  11  16
ATOM     16  CB  UNL     1      36.199 -23.602 -13.461  0.00  0.00    +0.043 C 
BRANCH  16  17
ATOM     17  CG  UNL     1      36.503 -23.267 -11.996  0.00  0.00    +0.112 C 
BRANCH  17  19
ATOM     18  OE2 UNL     1      34.961 -25.008 -11.268  0.00  0.00    -0.250 OA
ATOM     19  CD  UNL     1      35.848 -24.207 -11.007  0.00  0.00    +0.314 C 
BRANCH  19  20
ATOM     20  OE1 UNL     1      36.339 -24.033  -9.751  0.00  0.00    -0.480 OA
ATOM     21  HE1 UNL     1      36.246 -23.205  -9.323  0.00  0.00    +0.295 HD
ENDBRANCH  19  20
ENDBRANCH  17  19
ENDBRANCH  16  17
ENDBRANCH  11  16
ENDBRANCH   8  11
ENDBRANCH   2   9
BRANCH   1  22
ATOM     22  N   UNL     1      34.358 -20.193 -21.050  0.00  0.00    -0.302 N 
ATOM     23  C   UNL     1      32.990 -19.767 -21.265  0.00  0.00    +0.112 C 
BRANCH  22  24
ATOM     24  C   UNL     1      35.368 -19.846 -22.032  0.00  0.00    +0.118 C 
BRANCH  24  29
ATOM     25  O   UNL     1      34.347 -17.889 -24.997  0.00  0.00    -0.427 OA
ATOM     26  N   UNL     1      34.161 -15.603 -24.334  0.00  0.00    -0.294 NA
ATOM     27  N   UNL     1      34.676 -15.214 -21.986  0.00  0.00    -0.317 NA
ATOM     28  N   UNL     1      34.062 -13.458 -23.406  0.00  0.00    -0.283 N 
ATOM     29  C   UNL     1      34.965 -18.815 -23.040  0.00  0.00    +0.031 C 
ATOM     30  C   UNL     1      34.804 -17.423 -22.838  0.00  0.00    +0.180 C 
ATOM     31  C   UNL     1      34.422 -16.894 -24.067  0.00  0.00    +0.281 C 
ATOM     32  C   UNL     1      34.677 -19.046 -24.366  0.00  0.00    +0.176 C 
ATOM     33  C   UNL     1      34.926 -16.527 -21.779  0.00  0.00    +0.181 C 
ATOM     34  C   UNL     1      34.313 -14.839 -23.233  0.00  0.00    +0.200 C 
ATOM     35  H   UNL     1      33.794 -13.114 -24.289  0.00  0.00    +0.156 HD
ATOM     36  H   UNL     1      34.155 -12.842 -22.644  0.00  0.00    +0.156 HD
ATOM     37  N   UNL     1      35.307 -16.967 -20.498  0.00  0.00    -0.335 N 
ATOM     38  H   UNL     1      35.389 -16.321 -19.760  0.00  0.00    +0.144 HD
ATOM     39  H   UNL     1      35.492 -17.921 -20.339  0.00  0.00    +0.144 HD
ENDBRANCH  24  29
ENDBRANCH  22  24
ENDBRANCH   1  22
TORSDOF 11
ENDMDL
MODEL 9
REMARK VINA RESULT:     -10.6      1.752      2.495
REMARK  Name = 158376
REMARK  11 active torsions:
REMARK  status: ('A' for Active; 'I' for Inactive)
REMARK    1  A    between atoms: C_1  and  N_22
REMARK    2  A    between atoms: C_2  and  C_9
REMARK    3  A    between atoms: N_8  and  CA_11
REMARK    4  A    between atoms: CA_11  and  C_13
REMARK    5  A    between atoms: CA_11  and  CB_16
REMARK    6  A    between atoms: C_13  and  O_14
REMARK    7  A    between atoms: CB_16  and  CG_17
REMARK    8  A    between atoms: CG_17  and  CD_19
REMARK    9  A    between atoms: CD_19  and  OE1_20
REMARK   10  A    between atoms: N_22  and  C_24
REMARK   11  A    between atoms: C_24  and  C_29
REMARK                            x       y       z     vdW  Elec       q    Type
REMARK                         _______ _______ _______ _____ _____    ______ ____
ROOT
ATOM      1  C   UNL     1      34.695 -19.609 -21.663  0.00  0.00    +0.048 C 
ATOM      2  C   UNL     1      34.312 -21.352 -19.518  0.00  0.00    +0.053 C 
ATOM      3  C   UNL     1      35.786 -20.270 -21.099  0.00  0.00    +0.015 C 
ATOM      4  C   UNL     1      33.413 -19.820 -21.156  0.00  0.00    +0.015 C 
ATOM      5  C   UNL     1      35.594 -21.142 -20.027  0.00  0.00    +0.006 C 
ATOM      6  C   UNL     1      33.222 -20.691 -20.083  0.00  0.00    +0.006 C 
ENDROOT
BRANCH   2   9
ATOM      7  O   UNL     1      35.079 -22.854 -17.889  0.00  0.00    -0.270 OA
ATOM      8  N   UNL     1      32.802 -22.411 -17.925  0.00  0.00    -0.293 N 
ATOM      9  C   ACE A   0      34.108 -22.281 -18.377  0.00  0.00    +0.246 C 
ATOM     10  H   UNL     1      32.090 -21.909 -18.383  0.00  0.00    +0.150 HD
BRANCH   8  11
ATOM     11  CA  UNL     1      32.448 -23.254 -16.811  0.00  0.00    +0.172 C 
BRANCH  11  13
ATOM     12  OXT UNL     1      30.228 -22.312 -17.151  0.00  0.00    -0.248 OA
ATOM     13  C   UNL     1      30.953 -23.129 -16.599  0.00  0.00    +0.332 C 
BRANCH  13  14
ATOM     14  O   UNL     1      30.483 -24.068 -15.736  0.00  0.00    -0.479 OA
ATOM     15  H   UNL     1      31.079 -24.650 -15.307  0.00  0.00    +0.295 HD
ENDBRANCH  13  14
ENDBRANCH  11  13
BRANCH  11  16
ATOM     16  CB  UNL     1      33.279 -22.959 -15.556  0.00  0.00    +0.043 C 
BRANCH  16  17
ATOM     17  CG  UNL     1      33.813 -24.184 -14.805  0.00  0.00    +0.112 C 
BRANCH  17  19
ATOM     18  OE2 UNL     1      32.119 -24.919 -13.215  0.00  0.00    -0.250 OA
ATOM     19  CD  UNL     1      33.194 -24.380 -13.438  0.00  0.00    +0.314 C 
BRANCH  19  20
ATOM     20  OE1 UNL     1      33.965 -23.840 -12.458  0.00  0.00    -0.480 OA
ATOM     21  HE1 UNL     1      34.855 -23.607 -12.638  0.00  0.00    +0.295 HD
ENDBRANCH  19  20
ENDBRANCH  17  19
ENDBRANCH  16  17
ENDBRANCH  11  16
ENDBRANCH   8  11
ENDBRANCH   2   9
BRANCH   1  22
ATOM     22  N   UNL     1      34.887 -18.729 -22.748  0.00  0.00    -0.302 N 
ATOM     23  C   UNL     1      34.613 -19.163 -24.103  0.00  0.00    +0.112 C 
BRANCH  22  24
ATOM     24  C   UNL     1      35.348 -17.374 -22.520  0.00  0.00    +0.118 C 
BRANCH  24  29
ATOM     25  O   UNL     1      33.581 -15.029 -24.767  0.00  0.00    -0.427 OA
ATOM     26  N   UNL     1      32.407 -13.458 -23.405  0.00  0.00    -0.294 NA
ATOM     27  N   UNL     1      32.691 -13.823 -21.014  0.00  0.00    -0.317 NA
ATOM     28  N   UNL     1      31.372 -12.070 -21.831  0.00  0.00    -0.283 N 
ATOM     29  C   UNL     1      34.537 -16.295 -23.169  0.00  0.00    +0.031 C 
ATOM     30  C   UNL     1      33.780 -15.281 -22.534  0.00  0.00    +0.180 C 
ATOM     31  C   UNL     1      33.209 -14.526 -23.555  0.00  0.00    +0.281 C 
ATOM     32  C   UNL     1      34.384 -16.097 -24.522  0.00  0.00    +0.176 C 
ATOM     33  C   UNL     1      33.492 -14.892 -21.228  0.00  0.00    +0.181 C 
ATOM     34  C   UNL     1      32.204 -13.182 -22.101  0.00  0.00    +0.200 C 
ATOM     35  H   UNL     1      30.983 -11.556 -22.576  0.00  0.00    +0.156 HD
ATOM     36  H   UNL     1      31.182 -11.812 -20.901  0.00  0.00    +0.156 HD
ATOM     37  N   UNL     1      34.023 -15.592 -20.130  0.00  0.00    -0.335 N 
ATOM     38  H   UNL     1      33.810 -15.304 -19.213  0.00  0.00    +0.144 HD
ATOM     39  H   UNL     1      34.608 -16.370 -20.277  0.00  0.00    +0.144 HD
ENDBRANCH  24  29
ENDBRANCH  22  24
ENDBRANCH   1  22
TORSDOF 11
ENDMDL
