MODEL 1
REMARK VINA RESULT:      -6.2      0.000      0.000
REMARK  Name = 439183
REMARK  8 active torsions:
REMARK  status: ('A' for Active; 'I' for Inactive)
REMARK    1  A    between atoms: C_1  and  O_2
REMARK    2  A    between atoms: C_1  and  C_9
REMARK    3  A    between atoms: O_2  and  P_3
REMARK    4  A    between atoms: P_3  and  O_5
REMARK    5  A    between atoms: P_3  and  O_7
REMARK    6  A    between atoms: C_9  and  O_10
REMARK    7  A    between atoms: C_9  and  C_13
REMARK    8  A    between atoms: C_13  and  O_14
REMARK                            x       y       z     vdW  Elec       q    Type
REMARK                         _______ _______ _______ _____ _____    ______ ____
ROOT
ATOM      1  C   UNL     1      37.812 -24.875 -14.435  0.00  0.00    +0.194 C 
ENDROOT
BRANCH   1   2
ATOM      2  O   UNL     1      38.137 -23.715 -13.677  0.00  0.00    -0.270 OA
BRANCH   2   3
ATOM      3  P   UNL     1      37.402 -23.499 -12.255  0.00  0.00    +0.473 P 
ATOM      4  O   UNL     1      37.599 -24.606 -11.261  0.00  0.00    -0.227 OA
BRANCH   3   5
ATOM      5  O   UNL     1      35.864 -23.197 -12.657  0.00  0.00    -0.303 OA
ATOM      6  H   UNL     1      35.781 -22.274 -12.945  0.00  0.00    +0.222 HD
ENDBRANCH   3   5
BRANCH   3   7
ATOM      7  O   UNL     1      37.954 -22.053 -11.784  0.00  0.00    -0.303 OA
ATOM      8  H   UNL     1      38.201 -21.532 -12.565  0.00  0.00    +0.222 HD
ENDBRANCH   3   7
ENDBRANCH   2   3
ENDBRANCH   1   2
BRANCH   1   9
ATOM      9  C   UNL     1      38.871 -25.948 -14.216  0.00  0.00    +0.240 C 
BRANCH   9  10
ATOM     10  O   UNL     1      38.415 -27.183 -14.746  0.00  0.00    -0.373 OA
ATOM     11  H   UNL     1      39.167 -27.788 -14.850  0.00  0.00    +0.211 HD
ENDBRANCH   9  10
BRANCH   9  13
ATOM     12  O   UNL     1      40.621 -26.077 -15.905  0.00  0.00    -0.248 OA
ATOM     13  C   UNL     1      40.198 -25.605 -14.860  0.00  0.00    +0.344 C 
BRANCH  13  14
ATOM     14  O   UNL     1      40.860 -24.668 -14.135  0.00  0.00    -0.478 OA
ATOM     15  H   UNL     1      41.627 -24.904 -13.652  0.00  0.00    +0.295 HD
ENDBRANCH  13  14
ENDBRANCH   9  13
ENDBRANCH   1   9
TORSDOF 8
ENDMDL
MODEL 2
REMARK VINA RESULT:      -6.1      2.601      4.509
REMARK  Name = 439183
REMARK  8 active torsions:
REMARK  status: ('A' for Active; 'I' for Inactive)
REMARK    1  A    between atoms: C_1  and  O_2
REMARK    2  A    between atoms: C_1  and  C_9
REMARK    3  A    between atoms: O_2  and  P_3
REMARK    4  A    between atoms: P_3  and  O_5
REMARK    5  A    between atoms: P_3  and  O_7
REMARK    6  A    between atoms: C_9  and  O_10
REMARK    7  A    between atoms: C_9  and  C_13
REMARK    8  A    between atoms: C_13  and  O_14
REMARK                            x       y       z     vdW  Elec       q    Type
REMARK                         _______ _______ _______ _____ _____    ______ ____
ROOT
ATOM      1  C   UNL     1      35.804 -24.120 -13.855  0.00  0.00    +0.194 C 
ENDROOT
BRANCH   1   2
ATOM      2  O   UNL     1      37.079 -24.715 -14.069  0.00  0.00    -0.270 OA
BRANCH   2   3
ATOM      3  P   UNL     1      37.136 -26.274 -14.488  0.00  0.00    +0.473 P 
ATOM      4  O   UNL     1      36.278 -26.650 -15.661  0.00  0.00    -0.227 OA
BRANCH   3   5
ATOM      5  O   UNL     1      36.806 -27.056 -13.111  0.00  0.00    -0.303 OA
ATOM      6  H   UNL     1      37.635 -27.275 -12.657  0.00  0.00    +0.222 HD
ENDBRANCH   3   5
BRANCH   3   7
ATOM      7  O   UNL     1      38.720 -26.532 -14.691  0.00  0.00    -0.303 OA
ATOM      8  H   UNL     1      38.915 -27.472 -14.553  0.00  0.00    +0.222 HD
ENDBRANCH   3   7
ENDBRANCH   2   3
ENDBRANCH   1   2
BRANCH   1   9
ATOM      9  C   UNL     1      35.605 -23.849 -12.369  0.00  0.00    +0.240 C 
BRANCH   9  10
ATOM     10  O   UNL     1      35.015 -24.984 -11.753  0.00  0.00    -0.373 OA
ATOM     11  H   UNL     1      34.050 -24.938 -11.847  0.00  0.00    +0.211 HD
ENDBRANCH   9  10
BRANCH   9  13
ATOM     12  O   UNL     1      37.335 -22.401 -11.453  0.00  0.00    -0.248 OA
ATOM     13  C   UNL     1      36.897 -23.525 -11.650  0.00  0.00    +0.344 C 
BRANCH  13  14
ATOM     14  O   UNL     1      37.505 -24.657 -11.213  0.00  0.00    -0.478 OA
ATOM     15  H   UNL     1      36.994 -25.355 -10.853  0.00  0.00    +0.295 HD
ENDBRANCH  13  14
ENDBRANCH   9  13
ENDBRANCH   1   9
TORSDOF 8
ENDMDL
MODEL 3
REMARK VINA RESULT:      -6.1      2.459      4.971
REMARK  Name = 439183
REMARK  8 active torsions:
REMARK  status: ('A' for Active; 'I' for Inactive)
REMARK    1  A    between atoms: C_1  and  O_2
REMARK    2  A    between atoms: C_1  and  C_9
REMARK    3  A    between atoms: O_2  and  P_3
REMARK    4  A    between atoms: P_3  and  O_5
REMARK    5  A    between atoms: P_3  and  O_7
REMARK    6  A    between atoms: C_9  and  O_10
REMARK    7  A    between atoms: C_9  and  C_13
REMARK    8  A    between atoms: C_13  and  O_14
REMARK                            x       y       z     vdW  Elec       q    Type
REMARK                         _______ _______ _______ _____ _____    ______ ____
ROOT
ATOM      1  C   UNL     1      37.074 -23.972 -13.031  0.00  0.00    +0.194 C 
ENDROOT
BRANCH   1   2
ATOM      2  O   UNL     1      38.131 -24.806 -13.494  0.00  0.00    -0.270 OA
BRANCH   2   3
ATOM      3  P   UNL     1      37.747 -26.134 -14.331  0.00  0.00    +0.473 P 
ATOM      4  O   UNL     1      38.915 -26.962 -14.781  0.00  0.00    -0.227 OA
BRANCH   3   5
ATOM      5  O   UNL     1      36.793 -25.583 -15.514  0.00  0.00    -0.303 OA
ATOM      6  H   UNL     1      35.992 -25.193 -15.129  0.00  0.00    +0.222 HD
ENDBRANCH   3   5
BRANCH   3   7
ATOM      7  O   UNL     1      36.714 -26.891 -13.343  0.00  0.00    -0.303 OA
ATOM      8  H   UNL     1      37.002 -27.810 -13.216  0.00  0.00    +0.222 HD
ENDBRANCH   3   7
ENDBRANCH   2   3
ENDBRANCH   1   2
BRANCH   1   9
ATOM      9  C   UNL     1      37.030 -23.993 -11.509  0.00  0.00    +0.240 C 
BRANCH   9  10
ATOM     10  O   UNL     1      37.250 -22.684 -11.007  0.00  0.00    -0.373 OA
ATOM     11  H   UNL     1      38.204 -22.508 -10.969  0.00  0.00    +0.211 HD
ENDBRANCH   9  10
BRANCH   9  13
ATOM     12  O   UNL     1      35.387 -24.509  -9.787  0.00  0.00    -0.248 OA
ATOM     13  C   UNL     1      35.713 -24.505 -10.965  0.00  0.00    +0.344 C 
BRANCH  13  14
ATOM     14  O   UNL     1      34.910 -24.938 -11.969  0.00  0.00    -0.478 OA
ATOM     15  H   UNL     1      35.180 -25.654 -12.510  0.00  0.00    +0.295 HD
ENDBRANCH  13  14
ENDBRANCH   9  13
ENDBRANCH   1   9
TORSDOF 8
ENDMDL
MODEL 4
REMARK VINA RESULT:      -6.0      1.909      4.262
REMARK  Name = 439183
REMARK  8 active torsions:
REMARK  status: ('A' for Active; 'I' for Inactive)
REMARK    1  A    between atoms: C_1  and  O_2
REMARK    2  A    between atoms: C_1  and  C_9
REMARK    3  A    between atoms: O_2  and  P_3
REMARK    4  A    between atoms: P_3  and  O_5
REMARK    5  A    between atoms: P_3  and  O_7
REMARK    6  A    between atoms: C_9  and  O_10
REMARK    7  A    between atoms: C_9  and  C_13
REMARK    8  A    between atoms: C_13  and  O_14
REMARK                            x       y       z     vdW  Elec       q    Type
REMARK                         _______ _______ _______ _____ _____    ______ ____
ROOT
ATOM      1  C   UNL     1      37.974 -24.256 -14.603  0.00  0.00    +0.194 C 
ENDROOT
BRANCH   1   2
ATOM      2  O   UNL     1      39.280 -24.575 -14.136  0.00  0.00    -0.270 OA
BRANCH   2   3
ATOM      3  P   UNL     1      39.935 -25.980 -14.592  0.00  0.00    +0.473 P 
ATOM      4  O   UNL     1      41.085 -26.450 -13.751  0.00  0.00    -0.227 OA
BRANCH   3   5
ATOM      5  O   UNL     1      40.270 -25.758 -16.159  0.00  0.00    -0.303 OA
ATOM      6  H   UNL     1      39.622 -25.147 -16.545  0.00  0.00    +0.222 HD
ENDBRANCH   3   5
BRANCH   3   7
ATOM      7  O   UNL     1      38.659 -26.974 -14.623  0.00  0.00    -0.303 OA
ATOM      8  H   UNL     1      38.799 -27.659 -15.296  0.00  0.00    +0.222 HD
ENDBRANCH   3   7
ENDBRANCH   2   3
ENDBRANCH   1   2
BRANCH   1   9
ATOM      9  C   UNL     1      37.018 -24.141 -13.422  0.00  0.00    +0.240 C 
BRANCH   9  10
ATOM     10  O   UNL     1      36.386 -25.392 -13.196  0.00  0.00    -0.373 OA
ATOM     11  H   UNL     1      36.086 -25.442 -12.274  0.00  0.00    +0.211 HD
ENDBRANCH   9  10
BRANCH   9  13
ATOM     12  O   UNL     1      37.992 -22.559 -11.847  0.00  0.00    -0.248 OA
ATOM     13  C   UNL     1      37.708 -23.710 -12.145  0.00  0.00    +0.344 C 
BRANCH  13  14
ATOM     14  O   UNL     1      37.948 -24.776 -11.341  0.00  0.00    -0.478 OA
ATOM     15  H   UNL     1      37.956 -25.641 -11.699  0.00  0.00    +0.295 HD
ENDBRANCH  13  14
ENDBRANCH   9  13
ENDBRANCH   1   9
TORSDOF 8
ENDMDL
MODEL 5
REMARK VINA RESULT:      -6.0      2.252      4.505
REMARK  Name = 439183
REMARK  8 active torsions:
REMARK  status: ('A' for Active; 'I' for Inactive)
REMARK    1  A    between atoms: C_1  and  O_2
REMARK    2  A    between atoms: C_1  and  C_9
REMARK    3  A    between atoms: O_2  and  P_3
REMARK    4  A    between atoms: P_3  and  O_5
REMARK    5  A    between atoms: P_3  and  O_7
REMARK    6  A    between atoms: C_9  and  O_10
REMARK    7  A    between atoms: C_9  and  C_13
REMARK    8  A    between atoms: C_13  and  O_14
REMARK                            x       y       z     vdW  Elec       q    Type
REMARK                         _______ _______ _______ _____ _____    ______ ____
ROOT
ATOM      1  C   UNL     1      37.496 -24.322 -13.408  0.00  0.00    +0.194 C 
ENDROOT
BRANCH   1   2
ATOM      2  O   UNL     1      38.752 -24.983 -13.308  0.00  0.00    -0.270 OA
BRANCH   2   3
ATOM      3  P   UNL     1      39.523 -25.372 -14.674  0.00  0.00    +0.473 P 
ATOM      4  O   UNL     1      40.948 -25.811 -14.499  0.00  0.00    -0.227 OA
BRANCH   3   5
ATOM      5  O   UNL     1      39.310 -24.077 -15.620  0.00  0.00    -0.303 OA
ATOM      6  H   UNL     1      38.362 -23.879 -15.688  0.00  0.00    +0.222 HD
ENDBRANCH   3   5
BRANCH   3   7
ATOM      7  O   UNL     1      38.544 -26.478 -15.333  0.00  0.00    -0.303 OA
ATOM      8  H   UNL     1      38.794 -26.620 -16.260  0.00  0.00    +0.222 HD
ENDBRANCH   3   7
ENDBRANCH   2   3
ENDBRANCH   1   2
BRANCH   1   9
ATOM      9  C   UNL     1      36.422 -25.149 -12.712  0.00  0.00    +0.240 C 
BRANCH   9  10
ATOM     10  O   UNL     1      36.787 -26.520 -12.733  0.00  0.00    -0.373 OA
ATOM     11  H   UNL     1      36.474 -26.951 -11.922  0.00  0.00    +0.211 HD
ENDBRANCH   9  10
BRANCH   9  13
ATOM     12  O   UNL     1      35.252 -25.073 -10.577  0.00  0.00    -0.248 OA
ATOM     13  C   UNL     1      36.195 -24.730 -11.274  0.00  0.00    +0.344 C 
BRANCH  13  14
ATOM     14  O   UNL     1      37.205 -23.938 -10.836  0.00  0.00    -0.478 OA
ATOM     15  H   UNL     1      38.096 -24.203 -10.958  0.00  0.00    +0.295 HD
ENDBRANCH  13  14
ENDBRANCH   9  13
ENDBRANCH   1   9
TORSDOF 8
ENDMDL
MODEL 6
REMARK VINA RESULT:      -6.0      1.084      1.795
REMARK  Name = 439183
REMARK  8 active torsions:
REMARK  status: ('A' for Active; 'I' for Inactive)
REMARK    1  A    between atoms: C_1  and  O_2
REMARK    2  A    between atoms: C_1  and  C_9
REMARK    3  A    between atoms: O_2  and  P_3
REMARK    4  A    between atoms: P_3  and  O_5
REMARK    5  A    between atoms: P_3  and  O_7
REMARK    6  A    between atoms: C_9  and  O_10
REMARK    7  A    between atoms: C_9  and  C_13
REMARK    8  A    between atoms: C_13  and  O_14
REMARK                            x       y       z     vdW  Elec       q    Type
REMARK                         _______ _______ _______ _____ _____    ______ ____
ROOT
ATOM      1  C   UNL     1      37.773 -24.784 -13.862  0.00  0.00    +0.194 C 
ENDROOT
BRANCH   1   2
ATOM      2  O   UNL     1      37.341 -25.120 -12.548  0.00  0.00    -0.270 OA
BRANCH   2   3
ATOM      3  P   UNL     1      36.457 -24.041 -11.733  0.00  0.00    +0.473 P 
ATOM      4  O   UNL     1      37.245 -23.057 -10.919  0.00  0.00    -0.227 OA
BRANCH   3   5
ATOM      5  O   UNL     1      35.412 -24.950 -10.897  0.00  0.00    -0.303 OA
ATOM      6  H   UNL     1      35.797 -25.176 -10.036  0.00  0.00    +0.222 HD
ENDBRANCH   3   5
BRANCH   3   7
ATOM      7  O   UNL     1      35.536 -23.387 -12.891  0.00  0.00    -0.303 OA
ATOM      8  H   UNL     1      35.168 -24.091 -13.448  0.00  0.00    +0.222 HD
ENDBRANCH   3   7
ENDBRANCH   2   3
ENDBRANCH   1   2
BRANCH   1   9
ATOM      9  C   UNL     1      38.630 -25.910 -14.427  0.00  0.00    +0.240 C 
BRANCH   9  10
ATOM     10  O   UNL     1      37.991 -26.470 -15.564  0.00  0.00    -0.373 OA
ATOM     11  H   UNL     1      38.526 -26.296 -16.355  0.00  0.00    +0.211 HD
ENDBRANCH   9  10
BRANCH   9  13
ATOM     12  O   UNL     1      40.758 -24.760 -14.144  0.00  0.00    -0.248 OA
ATOM     13  C   UNL     1      40.016 -25.451 -14.827  0.00  0.00    +0.344 C 
BRANCH  13  14
ATOM     14  O   UNL     1      40.354 -25.938 -16.048  0.00  0.00    -0.478 OA
ATOM     15  H   UNL     1      40.596 -26.838 -16.143  0.00  0.00    +0.295 HD
ENDBRANCH  13  14
ENDBRANCH   9  13
ENDBRANCH   1   9
TORSDOF 8
ENDMDL
MODEL 7
REMARK VINA RESULT:      -5.9      1.591      2.865
REMARK  Name = 439183
REMARK  8 active torsions:
REMARK  status: ('A' for Active; 'I' for Inactive)
REMARK    1  A    between atoms: C_1  and  O_2
REMARK    2  A    between atoms: C_1  and  C_9
REMARK    3  A    between atoms: O_2  and  P_3
REMARK    4  A    between atoms: P_3  and  O_5
REMARK    5  A    between atoms: P_3  and  O_7
REMARK    6  A    between atoms: C_9  and  O_10
REMARK    7  A    between atoms: C_9  and  C_13
REMARK    8  A    between atoms: C_13  and  O_14
REMARK                            x       y       z     vdW  Elec       q    Type
REMARK                         _______ _______ _______ _____ _____    ______ ____
ROOT
ATOM      1  C   UNL     1      37.788 -25.632 -12.334  0.00  0.00    +0.194 C 
ENDROOT
BRANCH   1   2
ATOM      2  O   UNL     1      36.533 -25.663 -11.664  0.00  0.00    -0.270 OA
BRANCH   2   3
ATOM      3  P   UNL     1      35.875 -24.260 -11.207  0.00  0.00    +0.473 P 
ATOM      4  O   UNL     1      34.797 -23.737 -12.111  0.00  0.00    -0.227 OA
BRANCH   3   5
ATOM      5  O   UNL     1      37.148 -23.282 -11.011  0.00  0.00    -0.303 OA
ATOM      6  H   UNL     1      37.508 -23.042 -11.880  0.00  0.00    +0.222 HD
ENDBRANCH   3   5
BRANCH   3   7
ATOM      7  O   UNL     1      35.404 -24.565  -9.689  0.00  0.00    -0.303 OA
ATOM      8  H   UNL     1      35.553 -23.778  -9.141  0.00  0.00    +0.222 HD
ENDBRANCH   3   7
ENDBRANCH   2   3
ENDBRANCH   1   2
BRANCH   1   9
ATOM      9  C   UNL     1      37.587 -25.221 -13.787  0.00  0.00    +0.240 C 
BRANCH   9  10
ATOM     10  O   UNL     1      38.165 -23.943 -14.005  0.00  0.00    -0.373 OA
ATOM     11  H   UNL     1      38.673 -23.955 -14.832  0.00  0.00    +0.211 HD
ENDBRANCH   9  10
BRANCH   9  13
ATOM     12  O   UNL     1      39.316 -26.682 -14.685  0.00  0.00    -0.248 OA
ATOM     13  C   UNL     1      38.195 -26.202 -14.767  0.00  0.00    +0.344 C 
BRANCH  13  14
ATOM     14  O   UNL     1      37.314 -26.514 -15.750  0.00  0.00    -0.478 OA
ATOM     15  H   UNL     1      37.391 -26.113 -16.593  0.00  0.00    +0.295 HD
ENDBRANCH  13  14
ENDBRANCH   9  13
ENDBRANCH   1   9
TORSDOF 8
ENDMDL
MODEL 8
REMARK VINA RESULT:      -5.9      2.759      4.982
REMARK  Name = 439183
REMARK  8 active torsions:
REMARK  status: ('A' for Active; 'I' for Inactive)
REMARK    1  A    between atoms: C_1  and  O_2
REMARK    2  A    between atoms: C_1  and  C_9
REMARK    3  A    between atoms: O_2  and  P_3
REMARK    4  A    between atoms: P_3  and  O_5
REMARK    5  A    between atoms: P_3  and  O_7
REMARK    6  A    between atoms: C_9  and  O_10
REMARK    7  A    between atoms: C_9  and  C_13
REMARK    8  A    between atoms: C_13  and  O_14
REMARK                            x       y       z     vdW  Elec       q    Type
REMARK                         _______ _______ _______ _____ _____    ______ ____
ROOT
ATOM      1  C   UNL     1      36.265 -24.197 -13.336  0.00  0.00    +0.194 C 
ENDROOT
BRANCH   1   2
ATOM      2  O   UNL     1      36.658 -25.560 -13.455  0.00  0.00    -0.270 OA
BRANCH   2   3
ATOM      3  P   UNL     1      37.141 -26.093 -14.902  0.00  0.00    +0.473 P 
ATOM      4  O   UNL     1      36.091 -26.806 -15.701  0.00  0.00    -0.227 OA
BRANCH   3   5
ATOM      5  O   UNL     1      38.465 -26.962 -14.570  0.00  0.00    -0.303 OA
ATOM      6  H   UNL     1      38.289 -27.900 -14.745  0.00  0.00    +0.222 HD
ENDBRANCH   3   5
BRANCH   3   7
ATOM      7  O   UNL     1      37.737 -24.758 -15.593  0.00  0.00    -0.303 OA
ATOM      8  H   UNL     1      38.124 -24.984 -16.454  0.00  0.00    +0.222 HD
ENDBRANCH   3   7
ENDBRANCH   2   3
ENDBRANCH   1   2
BRANCH   1   9
ATOM      9  C   UNL     1      35.291 -24.041 -12.174  0.00  0.00    +0.240 C 
BRANCH   9  10
ATOM     10  O   UNL     1      34.215 -24.953 -12.329  0.00  0.00    -0.373 OA
ATOM     11  H   UNL     1      34.524 -25.854 -12.141  0.00  0.00    +0.211 HD
ENDBRANCH   9  10
BRANCH   9  13
ATOM     12  O   UNL     1      35.343 -24.543  -9.792  0.00  0.00    -0.248 OA
ATOM     13  C   UNL     1      35.938 -24.280 -10.826  0.00  0.00    +0.344 C 
BRANCH  13  14
ATOM     14  O   UNL     1      37.289 -24.196 -10.917  0.00  0.00    -0.478 OA
ATOM     15  H   UNL     1      37.692 -23.399 -11.199  0.00  0.00    +0.295 HD
ENDBRANCH  13  14
ENDBRANCH   9  13
ENDBRANCH   1   9
TORSDOF 8
ENDMDL
MODEL 9
REMARK VINA RESULT:      -5.9      1.909      2.958
REMARK  Name = 439183
REMARK  8 active torsions:
REMARK  status: ('A' for Active; 'I' for Inactive)
REMARK    1  A    between atoms: C_1  and  O_2
REMARK    2  A    between atoms: C_1  and  C_9
REMARK    3  A    between atoms: O_2  and  P_3
REMARK    4  A    between atoms: P_3  and  O_5
REMARK    5  A    between atoms: P_3  and  O_7
REMARK    6  A    between atoms: C_9  and  O_10
REMARK    7  A    between atoms: C_9  and  C_13
REMARK    8  A    between atoms: C_13  and  O_14
REMARK                            x       y       z     vdW  Elec       q    Type
REMARK                         _______ _______ _______ _____ _____    ______ ____
ROOT
ATOM      1  C   UNL     1      37.516 -25.998 -12.779  0.00  0.00    +0.194 C 
ENDROOT
BRANCH   1   2
ATOM      2  O   UNL     1      36.187 -25.518 -12.609  0.00  0.00    -0.270 OA
BRANCH   2   3
ATOM      3  P   UNL     1      35.928 -24.350 -11.523  0.00  0.00    +0.473 P 
ATOM      4  O   UNL     1      37.123 -23.500 -11.204  0.00  0.00    -0.227 OA
BRANCH   3   5
ATOM      5  O   UNL     1      35.280 -25.132 -10.264  0.00  0.00    -0.303 OA
ATOM      6  H   UNL     1      35.880 -25.838  -9.978  0.00  0.00    +0.222 HD
ENDBRANCH   3   5
BRANCH   3   7
ATOM      7  O   UNL     1      34.670 -23.551 -12.152  0.00  0.00    -0.303 OA
ATOM      8  H   UNL     1      34.900 -23.235 -13.041  0.00  0.00    +0.222 HD
ENDBRANCH   3   7
ENDBRANCH   2   3
ENDBRANCH   1   2
BRANCH   1   9
ATOM      9  C   UNL     1      37.922 -25.885 -14.244  0.00  0.00    +0.240 C 
BRANCH   9  10
ATOM     10  O   UNL     1      38.823 -26.933 -14.571  0.00  0.00    -0.373 OA
ATOM     11  H   UNL     1      38.324 -27.750 -14.731  0.00  0.00    +0.211 HD
ENDBRANCH   9  10
BRANCH   9  13
ATOM     12  O   UNL     1      36.295 -26.968 -15.697  0.00  0.00    -0.248 OA
ATOM     13  C   UNL     1      36.741 -25.949 -15.189  0.00  0.00    +0.344 C 
BRANCH  13  14
ATOM     14  O   UNL     1      36.207 -24.717 -15.380  0.00  0.00    -0.478 OA
ATOM     15  H   UNL     1      35.426 -24.618 -15.889  0.00  0.00    +0.295 HD
ENDBRANCH  13  14
ENDBRANCH   9  13
ENDBRANCH   1   9
TORSDOF 8
ENDMDL
