MODEL 1
REMARK VINA RESULT:     -10.8      0.000      0.000
REMARK  Name = 150311
REMARK  8 active torsions:
REMARK  status: ('A' for Active; 'I' for Inactive)
REMARK    1  A    between atoms: N_2  and  C_7
REMARK    2  A    between atoms: C_3  and  C_21
REMARK    3  A    between atoms: C_4  and  C_13
REMARK    4  A    between atoms: C_18  and  O_19
REMARK    5  A    between atoms: C_21  and  C_22
REMARK    6  A    between atoms: C_22  and  C_23
REMARK    7  A    between atoms: C_23  and  C_25
REMARK    8  A    between atoms: C_23  and  O_31
REMARK                            x       y       z     vdW  Elec       q    Type
REMARK                         _______ _______ _______ _____ _____    ______ ____
ROOT
ATOM      1  O   UNL     1      30.154 -11.528 -20.865  0.00  0.00    -0.274 OA
ATOM      2  N   UNL     1      32.035 -11.076 -22.211  0.00  0.00    -0.256 N 
ATOM      3  C   UNL     1      32.056 -13.050 -21.627  0.00  0.00    +0.100 C 
ATOM      4  C   UNL     1      32.973 -12.159 -22.478  0.00  0.00    +0.111 C 
ATOM      5  C   UNL     1      31.174 -11.804 -21.455  0.00  0.00    +0.231 C 
ENDROOT
BRANCH   2   7
ATOM      6  F   UNL     1      32.431  -5.629 -23.045  0.00  0.00    -0.204 F 
ATOM      7  C   UNL     1      32.135  -9.718 -22.420  0.00  0.00    +0.054 C 
ATOM      8  C   UNL     1      31.681  -9.143 -23.617  0.00  0.00    +0.017 C 
ATOM      9  C   UNL     1      32.690  -8.883 -21.438  0.00  0.00    +0.017 C 
ATOM     10  C   UNL     1      31.781  -7.767 -23.827  0.00  0.00    +0.031 C 
ATOM     11  C   UNL     1      32.791  -7.507 -21.647  0.00  0.00    +0.031 C 
ATOM     12  C   UNL     1      32.335  -6.949 -22.842  0.00  0.00    +0.140 C 
ENDBRANCH   2   7
BRANCH   4  13
ATOM     13  C   UNL     1      33.220 -12.493 -23.957  0.00  0.00    -0.003 C 
ATOM     14  C   UNL     1      32.810 -13.725 -24.486  0.00  0.00    +0.000 C 
ATOM     15  C   UNL     1      33.858 -11.571 -24.798  0.00  0.00    +0.000 C 
ATOM     16  C   UNL     1      33.034 -14.029 -25.829  0.00  0.00    +0.036 C 
ATOM     17  C   UNL     1      34.082 -11.874 -26.142  0.00  0.00    +0.036 C 
ATOM     18  C   UNL     1      33.670 -13.104 -26.657  0.00  0.00    +0.134 C 
BRANCH  18  19
ATOM     19  O   UNL     1      33.889 -13.401 -27.967  0.00  0.00    -0.506 OA
ATOM     20  H   UNL     1      33.580 -12.822 -28.636  0.00  0.00    +0.292 HD
ENDBRANCH  18  19
ENDBRANCH   4  13
BRANCH   3  21
ATOM     21  C   UNL     1      32.615 -13.591 -20.317  0.00  0.00    +0.014 C 
BRANCH  21  22
ATOM     22  C   UNL     1      32.702 -15.117 -20.373  0.00  0.00    +0.034 C 
BRANCH  22  23
ATOM     23  C   UNL     1      34.146 -15.640 -20.417  0.00  0.00    +0.133 C 
BRANCH  23  25
ATOM     24  F   UNL     1      35.112 -19.318 -24.556  0.00  0.00    -0.204 F 
ATOM     25  C   UNL     1      34.405 -16.629 -21.530  0.00  0.00    +0.004 C 
ATOM     26  C   UNL     1      34.328 -17.985 -21.262  0.00  0.00    +0.000 C 
ATOM     27  C   UNL     1      34.716 -16.159 -22.795  0.00  0.00    +0.000 C 
ATOM     28  C   UNL     1      34.569 -18.898 -22.290  0.00  0.00    +0.029 C 
ATOM     29  C   UNL     1      34.956 -17.071 -23.822  0.00  0.00    +0.029 C 
ATOM     30  C   UNL     1      34.882 -18.441 -23.569  0.00  0.00    +0.140 C 
ENDBRANCH  23  25
BRANCH  23  31
ATOM     31  O   UNL     1      35.033 -14.534 -20.594  0.00  0.00    -0.380 OA
ATOM     32  H   UNL     1      35.687 -14.527 -19.877  0.00  0.00    +0.211 HD
ENDBRANCH  23  31
ENDBRANCH  22  23
ENDBRANCH  21  22
ENDBRANCH   3  21
TORSDOF 8
ENDMDL
MODEL 2
REMARK VINA RESULT:     -10.3      2.665      3.885
REMARK  Name = 150311
REMARK  8 active torsions:
REMARK  status: ('A' for Active; 'I' for Inactive)
REMARK    1  A    between atoms: N_2  and  C_7
REMARK    2  A    between atoms: C_3  and  C_21
REMARK    3  A    between atoms: C_4  and  C_13
REMARK    4  A    between atoms: C_18  and  O_19
REMARK    5  A    between atoms: C_21  and  C_22
REMARK    6  A    between atoms: C_22  and  C_23
REMARK    7  A    between atoms: C_23  and  C_25
REMARK    8  A    between atoms: C_23  and  O_31
REMARK                            x       y       z     vdW  Elec       q    Type
REMARK                         _______ _______ _______ _____ _____    ______ ____
ROOT
ATOM      1  O   UNL     1      31.676 -16.067 -20.428  0.00  0.00    -0.274 OA
ATOM      2  N   UNL     1      32.688 -14.290 -21.599  0.00  0.00    -0.256 N 
ATOM      3  C   UNL     1      33.636 -16.057 -22.062  0.00  0.00    +0.100 C 
ATOM      4  C   UNL     1      33.815 -14.588 -22.473  0.00  0.00    +0.111 C 
ATOM      5  C   UNL     1      32.465 -15.567 -21.197  0.00  0.00    +0.231 C 
ENDROOT
BRANCH   2   7
ATOM      6  F   UNL     1      30.732  -9.480 -19.712  0.00  0.00    -0.204 F 
ATOM      7  C   UNL     1      32.199 -13.091 -21.128  0.00  0.00    +0.054 C 
ATOM      8  C   UNL     1      32.280 -12.772 -19.764  0.00  0.00    +0.017 C 
ATOM      9  C   UNL     1      31.612 -12.165 -22.004  0.00  0.00    +0.017 C 
ATOM     10  C   UNL     1      31.787 -11.557 -19.288  0.00  0.00    +0.031 C 
ATOM     11  C   UNL     1      31.118 -10.950 -21.529  0.00  0.00    +0.031 C 
ATOM     12  C   UNL     1      31.206 -10.646 -20.170  0.00  0.00    +0.140 C 
ENDBRANCH   2   7
BRANCH   4  13
ATOM     13  C   UNL     1      33.661 -14.174 -23.944  0.00  0.00    -0.003 C 
ATOM     14  C   UNL     1      33.350 -15.128 -24.924  0.00  0.00    +0.000 C 
ATOM     15  C   UNL     1      33.829 -12.836 -24.328  0.00  0.00    +0.000 C 
ATOM     16  C   UNL     1      33.210 -14.751 -26.260  0.00  0.00    +0.036 C 
ATOM     17  C   UNL     1      33.688 -12.459 -25.664  0.00  0.00    +0.036 C 
ATOM     18  C   UNL     1      33.379 -13.418 -26.630  0.00  0.00    +0.134 C 
BRANCH  18  19
ATOM     19  O   UNL     1      33.243 -13.050 -27.934  0.00  0.00    -0.506 OA
ATOM     20  H   UNL     1      32.997 -12.173 -28.150  0.00  0.00    +0.292 HD
ENDBRANCH  18  19
ENDBRANCH   4  13
BRANCH   3  21
ATOM     21  C   UNL     1      34.758 -16.708 -21.262  0.00  0.00    +0.014 C 
BRANCH  21  22
ATOM     22  C   UNL     1      35.771 -17.355 -22.209  0.00  0.00    +0.034 C 
BRANCH  22  23
ATOM     23  C   UNL     1      35.369 -18.770 -22.650  0.00  0.00    +0.133 C 
BRANCH  23  25
ATOM     24  F   UNL     1      33.211 -21.918 -18.522  0.00  0.00    -0.204 F 
ATOM     25  C   UNL     1      34.789 -19.616 -21.540  0.00  0.00    +0.004 C 
ATOM     26  C   UNL     1      35.643 -20.331 -20.717  0.00  0.00    +0.000 C 
ATOM     27  C   UNL     1      33.415 -19.661 -21.369  0.00  0.00    +0.000 C 
ATOM     28  C   UNL     1      35.107 -21.113 -19.692  0.00  0.00    +0.029 C 
ATOM     29  C   UNL     1      32.880 -20.442 -20.345  0.00  0.00    +0.029 C 
ATOM     30  C   UNL     1      33.726 -21.168 -19.506  0.00  0.00    +0.140 C 
ENDBRANCH  23  25
BRANCH  23  31
ATOM     31  O   UNL     1      34.390 -18.671 -23.686  0.00  0.00    -0.380 OA
ATOM     32  H   UNL     1      33.898 -19.505 -23.746  0.00  0.00    +0.211 HD
ENDBRANCH  23  31
ENDBRANCH  22  23
ENDBRANCH  21  22
ENDBRANCH   3  21
TORSDOF 8
ENDMDL
MODEL 3
REMARK VINA RESULT:     -10.1      1.327      7.504
REMARK  Name = 150311
REMARK  8 active torsions:
REMARK  status: ('A' for Active; 'I' for Inactive)
REMARK    1  A    between atoms: N_2  and  C_7
REMARK    2  A    between atoms: C_3  and  C_21
REMARK    3  A    between atoms: C_4  and  C_13
REMARK    4  A    between atoms: C_18  and  O_19
REMARK    5  A    between atoms: C_21  and  C_22
REMARK    6  A    between atoms: C_22  and  C_23
REMARK    7  A    between atoms: C_23  and  C_25
REMARK    8  A    between atoms: C_23  and  O_31
REMARK                            x       y       z     vdW  Elec       q    Type
REMARK                         _______ _______ _______ _____ _____    ______ ____
ROOT
ATOM      1  O   UNL     1      34.920 -14.631 -20.040  0.00  0.00    -0.274 OA
ATOM      2  N   UNL     1      33.897 -15.320 -22.049  0.00  0.00    -0.256 N 
ATOM      3  C   UNL     1      33.122 -13.506 -21.461  0.00  0.00    +0.100 C 
ATOM      4  C   UNL     1      32.880 -14.460 -22.639  0.00  0.00    +0.111 C 
ATOM      5  C   UNL     1      34.171 -14.522 -20.985  0.00  0.00    +0.231 C 
ENDROOT
BRANCH   2   7
ATOM      6  F   UNL     1      35.328 -20.540 -23.156  0.00  0.00    -0.204 F 
ATOM      7  C   UNL     1      34.255 -16.622 -22.324  0.00  0.00    +0.054 C 
ATOM      8  C   UNL     1      33.936 -17.655 -21.430  0.00  0.00    +0.017 C 
ATOM      9  C   UNL     1      34.944 -16.939 -23.505  0.00  0.00    +0.017 C 
ATOM     10  C   UNL     1      34.297 -18.974 -21.711  0.00  0.00    +0.031 C 
ATOM     11  C   UNL     1      35.305 -18.257 -23.786  0.00  0.00    +0.031 C 
ATOM     12  C   UNL     1      34.982 -19.274 -22.888  0.00  0.00    +0.140 C 
ENDBRANCH   2   7
BRANCH   4  13
ATOM     13  C   UNL     1      33.138 -13.992 -24.079  0.00  0.00    -0.003 C 
ATOM     14  C   UNL     1      32.896 -14.849 -25.161  0.00  0.00    +0.000 C 
ATOM     15  C   UNL     1      33.619 -12.699 -24.331  0.00  0.00    +0.000 C 
ATOM     16  C   UNL     1      33.130 -14.422 -26.469  0.00  0.00    +0.036 C 
ATOM     17  C   UNL     1      33.853 -12.272 -25.638  0.00  0.00    +0.036 C 
ATOM     18  C   UNL     1      33.609 -13.135 -26.708  0.00  0.00    +0.134 C 
BRANCH  18  19
ATOM     19  O   UNL     1      33.837 -12.719 -27.983  0.00  0.00    -0.506 OA
ATOM     20  H   UNL     1      34.038 -11.820 -28.154  0.00  0.00    +0.292 HD
ENDBRANCH  18  19
ENDBRANCH   4  13
BRANCH   3  21
ATOM     21  C   UNL     1      31.980 -13.297 -20.474  0.00  0.00    +0.014 C 
BRANCH  21  22
ATOM     22  C   UNL     1      32.034 -11.880 -19.901  0.00  0.00    +0.034 C 
BRANCH  22  23
ATOM     23  C   UNL     1      31.126 -10.890 -20.647  0.00  0.00    +0.133 C 
BRANCH  23  25
ATOM     24  F   UNL     1      33.917  -6.796 -23.301  0.00  0.00    -0.204 F 
ATOM     25  C   UNL     1      31.877  -9.789 -21.360  0.00  0.00    +0.004 C 
ATOM     26  C   UNL     1      32.284  -8.675 -20.646  0.00  0.00    +0.000 C 
ATOM     27  C   UNL     1      32.141  -9.917 -22.714  0.00  0.00    +0.000 C 
ATOM     28  C   UNL     1      32.977  -7.658 -21.305  0.00  0.00    +0.029 C 
ATOM     29  C   UNL     1      32.833  -8.901 -23.372  0.00  0.00    +0.029 C 
ATOM     30  C   UNL     1      33.252  -7.772 -22.667  0.00  0.00    +0.140 C 
ENDBRANCH  23  25
BRANCH  23  31
ATOM     31  O   UNL     1      30.363 -11.606 -21.620  0.00  0.00    -0.380 OA
ATOM     32  H   UNL     1      29.476 -11.218 -21.683  0.00  0.00    +0.211 HD
ENDBRANCH  23  31
ENDBRANCH  22  23
ENDBRANCH  21  22
ENDBRANCH   3  21
TORSDOF 8
ENDMDL
MODEL 4
REMARK VINA RESULT:      -9.9     10.053     13.621
REMARK  Name = 150311
REMARK  8 active torsions:
REMARK  status: ('A' for Active; 'I' for Inactive)
REMARK    1  A    between atoms: N_2  and  C_7
REMARK    2  A    between atoms: C_3  and  C_21
REMARK    3  A    between atoms: C_4  and  C_13
REMARK    4  A    between atoms: C_18  and  O_19
REMARK    5  A    between atoms: C_21  and  C_22
REMARK    6  A    between atoms: C_22  and  C_23
REMARK    7  A    between atoms: C_23  and  C_25
REMARK    8  A    between atoms: C_23  and  O_31
REMARK                            x       y       z     vdW  Elec       q    Type
REMARK                         _______ _______ _______ _____ _____    ______ ____
ROOT
ATOM      1  O   UNL     1      31.956 -23.363 -17.756  0.00  0.00    -0.274 OA
ATOM      2  N   UNL     1      34.136 -22.863 -17.014  0.00  0.00    -0.256 N 
ATOM      3  C   UNL     1      33.017 -23.585 -15.445  0.00  0.00    +0.100 C 
ATOM      4  C   UNL     1      34.461 -23.090 -15.612  0.00  0.00    +0.111 C 
ATOM      5  C   UNL     1      32.851 -23.295 -16.944  0.00  0.00    +0.231 C 
ENDROOT
BRANCH   2   7
ATOM      6  F   UNL     1      36.851 -20.131 -20.974  0.00  0.00    -0.204 F 
ATOM      7  C   UNL     1      34.813 -22.183 -18.002  0.00  0.00    +0.054 C 
ATOM      8  C   UNL     1      34.137 -21.714 -19.140  0.00  0.00    +0.017 C 
ATOM      9  C   UNL     1      36.191 -21.943 -17.890  0.00  0.00    +0.017 C 
ATOM     10  C   UNL     1      34.823 -21.024 -20.139  0.00  0.00    +0.031 C 
ATOM     11  C   UNL     1      36.878 -21.253 -18.889  0.00  0.00    +0.031 C 
ATOM     12  C   UNL     1      36.193 -20.793 -20.014  0.00  0.00    +0.140 C 
ENDBRANCH   2   7
BRANCH   4  13
ATOM     13  C   UNL     1      35.639 -24.034 -15.332  0.00  0.00    -0.003 C 
ATOM     14  C   UNL     1      35.451 -25.424 -15.324  0.00  0.00    +0.000 C 
ATOM     15  C   UNL     1      36.919 -23.520 -15.081  0.00  0.00    +0.000 C 
ATOM     16  C   UNL     1      36.522 -26.281 -15.071  0.00  0.00    +0.036 C 
ATOM     17  C   UNL     1      37.990 -24.378 -14.827  0.00  0.00    +0.036 C 
ATOM     18  C   UNL     1      37.791 -25.759 -14.822  0.00  0.00    +0.134 C 
BRANCH  18  19
ATOM     19  O   UNL     1      38.835 -26.596 -14.574  0.00  0.00    -0.506 OA
ATOM     20  H   UNL     1      38.676 -27.456 -14.239  0.00  0.00    +0.292 HD
ENDBRANCH  18  19
ENDBRANCH   4  13
BRANCH   3  21
ATOM     21  C   UNL     1      32.087 -22.768 -14.556  0.00  0.00    +0.014 C 
BRANCH  21  22
ATOM     22  C   UNL     1      31.591 -23.623 -13.389  0.00  0.00    +0.034 C 
BRANCH  22  23
ATOM     23  C   UNL     1      30.384 -24.501 -13.751  0.00  0.00    +0.133 C 
BRANCH  23  25
ATOM     24  F   UNL     1      27.235 -22.436 -17.925  0.00  0.00    -0.204 F 
ATOM     25  C   UNL     1      29.538 -23.945 -14.873  0.00  0.00    +0.004 C 
ATOM     26  C   UNL     1      29.102 -22.632 -14.807  0.00  0.00    +0.000 C 
ATOM     27  C   UNL     1      29.214 -24.761 -15.945  0.00  0.00    +0.000 C 
ATOM     28  C   UNL     1      28.320 -22.120 -15.844  0.00  0.00    +0.029 C 
ATOM     29  C   UNL     1      28.432 -24.249 -16.980  0.00  0.00    +0.029 C 
ATOM     30  C   UNL     1      27.986 -22.928 -16.930  0.00  0.00    +0.140 C 
ENDBRANCH  23  25
BRANCH  23  31
ATOM     31  O   UNL     1      30.854 -25.790 -14.149  0.00  0.00    -0.380 OA
ATOM     32  H   UNL     1      30.333 -26.104 -14.906  0.00  0.00    +0.211 HD
ENDBRANCH  23  31
ENDBRANCH  22  23
ENDBRANCH  21  22
ENDBRANCH   3  21
TORSDOF 8
ENDMDL
MODEL 5
REMARK VINA RESULT:      -9.9     11.137     14.858
REMARK  Name = 150311
REMARK  8 active torsions:
REMARK  status: ('A' for Active; 'I' for Inactive)
REMARK    1  A    between atoms: N_2  and  C_7
REMARK    2  A    between atoms: C_3  and  C_21
REMARK    3  A    between atoms: C_4  and  C_13
REMARK    4  A    between atoms: C_18  and  O_19
REMARK    5  A    between atoms: C_21  and  C_22
REMARK    6  A    between atoms: C_22  and  C_23
REMARK    7  A    between atoms: C_23  and  C_25
REMARK    8  A    between atoms: C_23  and  O_31
REMARK                            x       y       z     vdW  Elec       q    Type
REMARK                         _______ _______ _______ _____ _____    ______ ____
ROOT
ATOM      1  O   UNL     1      34.596 -23.701 -11.940  0.00  0.00    -0.274 OA
ATOM      2  N   UNL     1      35.401 -24.258 -14.084  0.00  0.00    -0.256 N 
ATOM      3  C   UNL     1      33.387 -23.848 -14.183  0.00  0.00    +0.100 C 
ATOM      4  C   UNL     1      34.461 -24.266 -15.197  0.00  0.00    +0.111 C 
ATOM      5  C   UNL     1      34.508 -23.882 -13.134  0.00  0.00    +0.231 C 
ENDROOT
BRANCH   2   7
ATOM      6  F   UNL     1      40.564 -26.182 -13.675  0.00  0.00    -0.204 F 
ATOM      7  C   UNL     1      36.689 -24.739 -13.981  0.00  0.00    +0.054 C 
ATOM      8  C   UNL     1      37.097 -25.854 -14.730  0.00  0.00    +0.017 C 
ATOM      9  C   UNL     1      37.616 -24.122 -13.128  0.00  0.00    +0.017 C 
ATOM     10  C   UNL     1      38.402 -26.339 -14.627  0.00  0.00    +0.031 C 
ATOM     11  C   UNL     1      38.920 -24.607 -13.024  0.00  0.00    +0.031 C 
ATOM     12  C   UNL     1      39.313 -25.716 -13.774  0.00  0.00    +0.140 C 
ENDBRANCH   2   7
BRANCH   4  13
ATOM     13  C   UNL     1      34.804 -23.351 -16.382  0.00  0.00    -0.003 C 
ATOM     14  C   UNL     1      36.032 -22.677 -16.428  0.00  0.00    +0.000 C 
ATOM     15  C   UNL     1      33.893 -23.177 -17.433  0.00  0.00    +0.000 C 
ATOM     16  C   UNL     1      36.344 -21.846 -17.505  0.00  0.00    +0.036 C 
ATOM     17  C   UNL     1      34.205 -22.346 -18.510  0.00  0.00    +0.036 C 
ATOM     18  C   UNL     1      35.430 -21.680 -18.546  0.00  0.00    +0.134 C 
BRANCH  18  19
ATOM     19  O   UNL     1      35.734 -20.869 -19.596  0.00  0.00    -0.506 OA
ATOM     20  H   UNL     1      36.542 -20.981 -20.055  0.00  0.00    +0.292 HD
ENDBRANCH  18  19
ENDBRANCH   4  13
BRANCH   3  21
ATOM     21  C   UNL     1      32.257 -24.831 -13.904  0.00  0.00    +0.014 C 
BRANCH  21  22
ATOM     22  C   UNL     1      30.946 -24.076 -13.679  0.00  0.00    +0.034 C 
BRANCH  22  23
ATOM     23  C   UNL     1      29.720 -24.808 -14.244  0.00  0.00    +0.133 C 
BRANCH  23  25
ATOM     24  F   UNL     1      26.873 -21.854 -18.086  0.00  0.00    -0.204 F 
ATOM     25  C   UNL     1      28.955 -24.013 -15.277  0.00  0.00    +0.004 C 
ATOM     26  C   UNL     1      28.564 -22.718 -14.982  0.00  0.00    +0.000 C 
ATOM     27  C   UNL     1      28.658 -24.597 -16.498  0.00  0.00    +0.000 C 
ATOM     28  C   UNL     1      27.857 -21.985 -15.936  0.00  0.00    +0.029 C 
ATOM     29  C   UNL     1      27.952 -23.864 -17.450  0.00  0.00    +0.029 C 
ATOM     30  C   UNL     1      27.551 -22.558 -17.170  0.00  0.00    +0.140 C 
ENDBRANCH  23  25
BRANCH  23  31
ATOM     31  O   UNL     1      30.150 -26.026 -14.854  0.00  0.00    -0.380 OA
ATOM     32  H   UNL     1      29.826 -26.061 -15.768  0.00  0.00    +0.211 HD
ENDBRANCH  23  31
ENDBRANCH  22  23
ENDBRANCH  21  22
ENDBRANCH   3  21
TORSDOF 8
ENDMDL
MODEL 6
REMARK VINA RESULT:      -9.6      2.012      4.497
REMARK  Name = 150311
REMARK  8 active torsions:
REMARK  status: ('A' for Active; 'I' for Inactive)
REMARK    1  A    between atoms: N_2  and  C_7
REMARK    2  A    between atoms: C_3  and  C_21
REMARK    3  A    between atoms: C_4  and  C_13
REMARK    4  A    between atoms: C_18  and  O_19
REMARK    5  A    between atoms: C_21  and  C_22
REMARK    6  A    between atoms: C_22  and  C_23
REMARK    7  A    between atoms: C_23  and  C_25
REMARK    8  A    between atoms: C_23  and  O_31
REMARK                            x       y       z     vdW  Elec       q    Type
REMARK                         _______ _______ _______ _____ _____    ______ ____
ROOT
ATOM      1  O   UNL     1      35.356 -10.026 -24.967  0.00  0.00    -0.274 OA
ATOM      2  N   UNL     1      33.268  -9.719 -23.919  0.00  0.00    -0.256 N 
ATOM      3  C   UNL     1      33.720 -11.726 -23.992  0.00  0.00    +0.100 C 
ATOM      4  C   UNL     1      32.542 -10.896 -23.460  0.00  0.00    +0.111 C 
ATOM      5  C   UNL     1      34.347 -10.385 -24.403  0.00  0.00    +0.231 C 
ENDROOT
BRANCH   2   7
ATOM      6  F   UNL     1      31.670  -4.463 -24.502  0.00  0.00    -0.204 F 
ATOM      7  C   UNL     1      32.870  -8.408 -24.063  0.00  0.00    +0.054 C 
ATOM      8  C   UNL     1      33.819  -7.380 -24.172  0.00  0.00    +0.017 C 
ATOM      9  C   UNL     1      31.507  -8.075 -24.105  0.00  0.00    +0.017 C 
ATOM     10  C   UNL     1      33.415  -6.053 -24.321  0.00  0.00    +0.031 C 
ATOM     11  C   UNL     1      31.102  -6.748 -24.252  0.00  0.00    +0.031 C 
ATOM     12  C   UNL     1      32.057  -5.737 -24.360  0.00  0.00    +0.140 C 
ENDBRANCH   2   7
BRANCH   4  13
ATOM     13  C   UNL     1      32.183 -10.934 -21.967  0.00  0.00    -0.003 C 
ATOM     14  C   UNL     1      32.052  -9.745 -21.236  0.00  0.00    +0.000 C 
ATOM     15  C   UNL     1      31.980 -12.158 -21.315  0.00  0.00    +0.000 C 
ATOM     16  C   UNL     1      31.725  -9.780 -19.880  0.00  0.00    +0.036 C 
ATOM     17  C   UNL     1      31.653 -12.193 -19.959  0.00  0.00    +0.036 C 
ATOM     18  C   UNL     1      31.525 -11.003 -19.242  0.00  0.00    +0.134 C 
BRANCH  18  19
ATOM     19  O   UNL     1      31.207 -11.037 -17.919  0.00  0.00    -0.506 OA
ATOM     20  H   UNL     1      31.580 -10.411 -17.331  0.00  0.00    +0.292 HD
ENDBRANCH  18  19
ENDBRANCH   4  13
BRANCH   3  21
ATOM     21  C   UNL     1      33.453 -12.662 -25.164  0.00  0.00    +0.014 C 
BRANCH  21  22
ATOM     22  C   UNL     1      33.124 -14.065 -24.651  0.00  0.00    +0.034 C 
BRANCH  22  23
ATOM     23  C   UNL     1      33.829 -15.179 -25.440  0.00  0.00    +0.133 C 
BRANCH  23  25
ATOM     24  F   UNL     1      35.490 -19.515 -22.272  0.00  0.00    -0.204 F 
ATOM     25  C   UNL     1      34.275 -16.344 -24.588  0.00  0.00    +0.004 C 
ATOM     26  C   UNL     1      34.708 -16.111 -23.293  0.00  0.00    +0.000 C 
ATOM     27  C   UNL     1      34.244 -17.624 -25.119  0.00  0.00    +0.000 C 
ATOM     28  C   UNL     1      35.120 -17.188 -22.507  0.00  0.00    +0.029 C 
ATOM     29  C   UNL     1      34.656 -18.699 -24.333  0.00  0.00    +0.029 C 
ATOM     30  C   UNL     1      35.094 -18.481 -23.027  0.00  0.00    +0.140 C 
ENDBRANCH  23  25
BRANCH  23  31
ATOM     31  O   UNL     1      32.935 -15.677 -26.436  0.00  0.00    -0.380 OA
ATOM     32  H   UNL     1      32.567 -14.935 -26.940  0.00  0.00    +0.211 HD
ENDBRANCH  23  31
ENDBRANCH  22  23
ENDBRANCH  21  22
ENDBRANCH   3  21
TORSDOF 8
ENDMDL
MODEL 7
REMARK VINA RESULT:      -9.3      1.734      7.514
REMARK  Name = 150311
REMARK  8 active torsions:
REMARK  status: ('A' for Active; 'I' for Inactive)
REMARK    1  A    between atoms: N_2  and  C_7
REMARK    2  A    between atoms: C_3  and  C_21
REMARK    3  A    between atoms: C_4  and  C_13
REMARK    4  A    between atoms: C_18  and  O_19
REMARK    5  A    between atoms: C_21  and  C_22
REMARK    6  A    between atoms: C_22  and  C_23
REMARK    7  A    between atoms: C_23  and  C_25
REMARK    8  A    between atoms: C_23  and  O_31
REMARK                            x       y       z     vdW  Elec       q    Type
REMARK                         _______ _______ _______ _____ _____    ______ ____
ROOT
ATOM      1  O   UNL     1      33.409 -14.203 -20.506  0.00  0.00    -0.274 OA
ATOM      2  N   UNL     1      33.360 -13.876 -22.839  0.00  0.00    -0.256 N 
ATOM      3  C   UNL     1      32.495 -12.266 -21.893  0.00  0.00    +0.100 C 
ATOM      4  C   UNL     1      32.758 -12.654 -23.356  0.00  0.00    +0.111 C 
ATOM      5  C   UNL     1      33.169 -13.596 -21.525  0.00  0.00    +0.231 C 
ENDROOT
BRANCH   2   7
ATOM      6  F   UNL     1      34.882 -18.535 -25.388  0.00  0.00    -0.204 F 
ATOM      7  C   UNL     1      33.738 -15.039 -23.474  0.00  0.00    +0.054 C 
ATOM      8  C   UNL     1      33.395 -15.264 -24.816  0.00  0.00    +0.017 C 
ATOM      9  C   UNL     1      34.476 -16.018 -22.792  0.00  0.00    +0.017 C 
ATOM     10  C   UNL     1      33.781 -16.441 -25.460  0.00  0.00    +0.031 C 
ATOM     11  C   UNL     1      34.861 -17.195 -23.435  0.00  0.00    +0.031 C 
ATOM     12  C   UNL     1      34.513 -17.406 -24.769  0.00  0.00    +0.140 C 
ENDBRANCH   2   7
BRANCH   4  13
ATOM     13  C   UNL     1      33.656 -11.775 -24.239  0.00  0.00    -0.003 C 
ATOM     14  C   UNL     1      33.936 -12.146 -25.562  0.00  0.00    +0.000 C 
ATOM     15  C   UNL     1      34.208 -10.589 -23.735  0.00  0.00    +0.000 C 
ATOM     16  C   UNL     1      34.750 -11.346 -26.364  0.00  0.00    +0.036 C 
ATOM     17  C   UNL     1      35.023  -9.789 -24.537  0.00  0.00    +0.036 C 
ATOM     18  C   UNL     1      35.294 -10.169 -25.852  0.00  0.00    +0.134 C 
BRANCH  18  19
ATOM     19  O   UNL     1      36.090  -9.389 -26.635  0.00  0.00    -0.506 OA
ATOM     20  H   UNL     1      36.472  -8.610 -26.284  0.00  0.00    +0.292 HD
ENDBRANCH  18  19
ENDBRANCH   4  13
BRANCH   3  21
ATOM     21  C   UNL     1      31.044 -12.167 -21.438  0.00  0.00    +0.014 C 
BRANCH  21  22
ATOM     22  C   UNL     1      30.825 -10.869 -20.658  0.00  0.00    +0.034 C 
BRANCH  22  23
ATOM     23  C   UNL     1      32.066  -9.964 -20.628  0.00  0.00    +0.133 C 
BRANCH  23  25
ATOM     24  F   UNL     1      31.485  -5.210 -23.569  0.00  0.00    -0.204 F 
ATOM     25  C   UNL     1      31.910  -8.686 -21.418  0.00  0.00    +0.004 C 
ATOM     26  C   UNL     1      32.242  -7.479 -20.826  0.00  0.00    +0.000 C 
ATOM     27  C   UNL     1      31.438  -8.747 -22.719  0.00  0.00    +0.000 C 
ATOM     28  C   UNL     1      32.097  -6.298 -21.557  0.00  0.00    +0.029 C 
ATOM     29  C   UNL     1      31.294  -7.567 -23.449  0.00  0.00    +0.029 C 
ATOM     30  C   UNL     1      31.624  -6.343 -22.867  0.00  0.00    +0.140 C 
ENDBRANCH  23  25
BRANCH  23  31
ATOM     31  O   UNL     1      32.349  -9.613 -19.272  0.00  0.00    -0.380 OA
ATOM     32  H   UNL     1      33.305  -9.491 -19.164  0.00  0.00    +0.211 HD
ENDBRANCH  23  31
ENDBRANCH  22  23
ENDBRANCH  21  22
ENDBRANCH   3  21
TORSDOF 8
ENDMDL
MODEL 8
REMARK VINA RESULT:      -9.2      3.166      5.777
REMARK  Name = 150311
REMARK  8 active torsions:
REMARK  status: ('A' for Active; 'I' for Inactive)
REMARK    1  A    between atoms: N_2  and  C_7
REMARK    2  A    between atoms: C_3  and  C_21
REMARK    3  A    between atoms: C_4  and  C_13
REMARK    4  A    between atoms: C_18  and  O_19
REMARK    5  A    between atoms: C_21  and  C_22
REMARK    6  A    between atoms: C_22  and  C_23
REMARK    7  A    between atoms: C_23  and  C_25
REMARK    8  A    between atoms: C_23  and  O_31
REMARK                            x       y       z     vdW  Elec       q    Type
REMARK                         _______ _______ _______ _____ _____    ______ ____
ROOT
ATOM      1  O   UNL     1      35.752 -15.656 -23.213  0.00  0.00    -0.274 OA
ATOM      2  N   UNL     1      33.640 -14.612 -23.273  0.00  0.00    -0.256 N 
ATOM      3  C   UNL     1      33.874 -15.605 -21.486  0.00  0.00    +0.100 C 
ATOM      4  C   UNL     1      32.758 -14.763 -22.123  0.00  0.00    +0.111 C 
ATOM      5  C   UNL     1      34.671 -15.337 -22.771  0.00  0.00    +0.231 C 
ENDROOT
BRANCH   2   7
ATOM      6  F   UNL     1      32.680 -12.699 -28.367  0.00  0.00    -0.204 F 
ATOM      7  C   UNL     1      33.399 -14.134 -24.543  0.00  0.00    +0.054 C 
ATOM      8  C   UNL     1      33.692 -12.802 -24.873  0.00  0.00    +0.017 C 
ATOM      9  C   UNL     1      32.859 -14.972 -25.532  0.00  0.00    +0.017 C 
ATOM     10  C   UNL     1      33.450 -12.320 -26.160  0.00  0.00    +0.031 C 
ATOM     11  C   UNL     1      32.617 -14.490 -26.818  0.00  0.00    +0.031 C 
ATOM     12  C   UNL     1      32.912 -13.163 -27.132  0.00  0.00    +0.140 C 
ENDBRANCH   2   7
BRANCH   4  13
ATOM     13  C   UNL     1      32.291 -13.464 -21.450  0.00  0.00    -0.003 C 
ATOM     14  C   UNL     1      32.395 -13.305 -20.061  0.00  0.00    +0.000 C 
ATOM     15  C   UNL     1      31.754 -12.419 -22.216  0.00  0.00    +0.000 C 
ATOM     16  C   UNL     1      31.971 -12.124 -19.451  0.00  0.00    +0.036 C 
ATOM     17  C   UNL     1      31.330 -11.239 -21.605  0.00  0.00    +0.036 C 
ATOM     18  C   UNL     1      31.439 -11.091 -20.222  0.00  0.00    +0.134 C 
BRANCH  18  19
ATOM     19  O   UNL     1      31.025  -9.940 -19.626  0.00  0.00    -0.506 OA
ATOM     20  H   UNL     1      31.518  -9.575 -18.918  0.00  0.00    +0.292 HD
ENDBRANCH  18  19
ENDBRANCH   4  13
BRANCH   3  21
ATOM     21  C   UNL     1      33.590 -17.082 -21.237  0.00  0.00    +0.014 C 
BRANCH  21  22
ATOM     22  C   UNL     1      34.878 -17.805 -20.840  0.00  0.00    +0.034 C 
BRANCH  22  23
ATOM     23  C   UNL     1      34.994 -19.211 -21.447  0.00  0.00    +0.133 C 
BRANCH  23  25
ATOM     24  F   UNL     1      33.765 -23.350 -17.847  0.00  0.00    -0.204 F 
ATOM     25  C   UNL     1      34.664 -20.324 -20.479  0.00  0.00    +0.004 C 
ATOM     26  C   UNL     1      33.338 -20.584 -20.174  0.00  0.00    +0.000 C 
ATOM     27  C   UNL     1      35.693 -21.061 -19.917  0.00  0.00    +0.000 C 
ATOM     28  C   UNL     1      33.033 -21.612 -19.280  0.00  0.00    +0.029 C 
ATOM     29  C   UNL     1      35.388 -22.087 -19.023  0.00  0.00    +0.029 C 
ATOM     30  C   UNL     1      34.058 -22.363 -18.705  0.00  0.00    +0.140 C 
ENDBRANCH  23  25
BRANCH  23  31
ATOM     31  O   UNL     1      34.101 -19.311 -22.557  0.00  0.00    -0.380 OA
ATOM     32  H   UNL     1      33.281 -19.746 -22.274  0.00  0.00    +0.211 HD
ENDBRANCH  23  31
ENDBRANCH  22  23
ENDBRANCH  21  22
ENDBRANCH   3  21
TORSDOF 8
ENDMDL
MODEL 9
REMARK VINA RESULT:      -9.1      8.724     13.741
REMARK  Name = 150311
REMARK  8 active torsions:
REMARK  status: ('A' for Active; 'I' for Inactive)
REMARK    1  A    between atoms: N_2  and  C_7
REMARK    2  A    between atoms: C_3  and  C_21
REMARK    3  A    between atoms: C_4  and  C_13
REMARK    4  A    between atoms: C_18  and  O_19
REMARK    5  A    between atoms: C_21  and  C_22
REMARK    6  A    between atoms: C_22  and  C_23
REMARK    7  A    between atoms: C_23  and  C_25
REMARK    8  A    between atoms: C_23  and  O_31
REMARK                            x       y       z     vdW  Elec       q    Type
REMARK                         _______ _______ _______ _____ _____    ______ ____
ROOT
ATOM      1  O   UNL     1      37.769 -24.453 -15.596  0.00  0.00    -0.274 OA
ATOM      2  N   UNL     1      35.877 -23.459 -14.603  0.00  0.00    -0.256 N 
ATOM      3  C   UNL     1      36.022 -22.868 -16.569  0.00  0.00    +0.100 C 
ATOM      4  C   UNL     1      35.051 -22.576 -15.416  0.00  0.00    +0.111 C 
ATOM      5  C   UNL     1      36.770 -23.769 -15.577  0.00  0.00    +0.231 C 
ENDROOT
BRANCH   2   7
ATOM      6  F   UNL     1      35.983 -24.347  -9.151  0.00  0.00    -0.204 F 
ATOM      7  C   UNL     1      35.902 -23.679 -13.243  0.00  0.00    +0.054 C 
ATOM      8  C   UNL     1      34.996 -24.569 -12.647  0.00  0.00    +0.017 C 
ATOM      9  C   UNL     1      36.836 -23.020 -12.430  0.00  0.00    +0.017 C 
ATOM     10  C   UNL     1      35.024 -24.794 -11.270  0.00  0.00    +0.031 C 
ATOM     11  C   UNL     1      36.864 -23.244 -11.053  0.00  0.00    +0.031 C 
ATOM     12  C   UNL     1      35.958 -24.131 -10.473  0.00  0.00    +0.140 C 
ENDBRANCH   2   7
BRANCH   4  13
ATOM     13  C   UNL     1      33.568 -22.957 -15.539  0.00  0.00    -0.003 C 
ATOM     14  C   UNL     1      32.758 -23.045 -14.398  0.00  0.00    +0.000 C 
ATOM     15  C   UNL     1      33.003 -23.220 -16.795  0.00  0.00    +0.000 C 
ATOM     16  C   UNL     1      31.411 -23.389 -14.511  0.00  0.00    +0.036 C 
ATOM     17  C   UNL     1      31.656 -23.565 -16.908  0.00  0.00    +0.036 C 
ATOM     18  C   UNL     1      30.859 -23.650 -15.765  0.00  0.00    +0.134 C 
BRANCH  18  19
ATOM     19  O   UNL     1      29.545 -23.986 -15.875  0.00  0.00    -0.506 OA
ATOM     20  H   UNL     1      29.298 -24.886 -15.961  0.00  0.00    +0.292 HD
ENDBRANCH  18  19
ENDBRANCH   4  13
BRANCH   3  21
ATOM     21  C   UNL     1      36.859 -21.709 -17.098  0.00  0.00    +0.014 C 
BRANCH  21  22
ATOM     22  C   UNL     1      36.743 -21.629 -18.621  0.00  0.00    +0.034 C 
BRANCH  22  23
ATOM     23  C   UNL     1      35.291 -21.561 -19.115  0.00  0.00    +0.133 C 
BRANCH  23  25
ATOM     24  F   UNL     1      34.381 -17.574 -22.971  0.00  0.00    -0.204 F 
ATOM     25  C   UNL     1      35.047 -20.489 -20.152  0.00  0.00    +0.004 C 
ATOM     26  C   UNL     1      36.125 -19.797 -20.677  0.00  0.00    +0.000 C 
ATOM     27  C   UNL     1      33.749 -20.220 -20.556  0.00  0.00    +0.000 C 
ATOM     28  C   UNL     1      35.898 -18.807 -21.635  0.00  0.00    +0.029 C 
ATOM     29  C   UNL     1      33.524 -19.231 -21.512  0.00  0.00    +0.029 C 
ATOM     30  C   UNL     1      34.599 -18.524 -22.052  0.00  0.00    +0.140 C 
ENDBRANCH  23  25
BRANCH  23  31
ATOM     31  O   UNL     1      34.938 -22.820 -19.690  0.00  0.00    -0.380 OA
ATOM     32  H   UNL     1      34.062 -23.087 -19.370  0.00  0.00    +0.211 HD
ENDBRANCH  23  31
ENDBRANCH  22  23
ENDBRANCH  21  22
ENDBRANCH   3  21
TORSDOF 8
ENDMDL
