MODEL 1
REMARK VINA RESULT:      -9.0      0.000      0.000
REMARK  Name = 5359271
REMARK  3 active torsions:
REMARK  status: ('A' for Active; 'I' for Inactive)
REMARK    1  A    between atoms: C_12  and  O_21
REMARK    2  A    between atoms: C_18  and  O_23
REMARK    3  A    between atoms: O_23  and  C_24
REMARK                            x       y       z     vdW  Elec       q    Type
REMARK                         _______ _______ _______ _____ _____    ______ ____
ROOT
ATOM      1  O   UNL     1      31.673 -11.156 -22.775  0.00  0.00    -0.473 OA
ATOM      2  N   UNL     1      31.499  -5.969 -23.530  0.00  0.00    +0.387 N 
ATOM      3  C   UNL     1      31.493  -8.731 -22.641  0.00  0.00    +0.061 C 
ATOM      4  C   UNL     1      31.834  -7.562 -21.705  0.00  0.00    +0.010 C 
ATOM      5  C   UNL     1      32.525  -6.467 -22.583  0.00  0.00    -0.049 C 
ATOM      6  C   UNL     1      31.065 -10.069 -21.993  0.00  0.00    +0.200 C 
ATOM      7  C   UNL     1      30.505  -8.249 -23.722  0.00  0.00    -0.015 C 
ATOM      8  C   UNL     1      32.756  -9.210 -23.275  0.00  0.00    +0.014 C 
ATOM      9  C   UNL     1      33.849  -6.976 -23.251  0.00  0.00    +0.006 C 
ATOM     10  C   UNL     1      30.994  -6.988 -24.454  0.00  0.00    -0.077 C 
ATOM     11  C   UNL     1      33.842  -8.431 -23.631  0.00  0.00    -0.025 C 
ATOM     12  C   UNL     1      31.426 -10.199 -20.490  0.00  0.00    +0.172 C 
ATOM     13  C   UNL     1      32.642  -8.018 -20.518  0.00  0.00    -0.030 C 
ATOM     14  C   UNL     1      32.763 -10.584 -23.374  0.00  0.00    +0.168 C 
ATOM     15  C   UNL     1      32.463  -9.233 -19.980  0.00  0.00    +0.002 C 
ATOM     16  C   UNL     1      34.925  -9.083 -24.225  0.00  0.00    -0.001 C 
ATOM     17  C   UNL     1      31.906  -4.760 -24.241  0.00  0.00    -0.101 C 
ATOM     18  C   UNL     1      33.817 -11.248 -23.964  0.00  0.00    +0.172 C 
ATOM     19  C   UNL     1      34.901 -10.479 -24.407  0.00  0.00    +0.040 C 
ATOM     20  H   UNL     1      30.716  -5.711 -22.930  0.00  0.00    -0.080 HD
ENDROOT
BRANCH  12  21
ATOM     21  O   UNL     1      31.809 -11.539 -20.195  0.00  0.00    -0.377 OA
ATOM     22  H   UNL     1      31.098 -12.144 -20.463  0.00  0.00    +0.211 HD
ENDBRANCH  12  21
BRANCH  18  23
ATOM     23  O   UNL     1      33.828 -12.597 -24.083  0.00  0.00    -0.472 OA
BRANCH  23  24
ATOM     24  C   UNL     1      33.431 -13.146 -25.341  0.00  0.00    +0.206 C 
ATOM     25  C   UNL     1      33.122 -14.617 -25.163  0.00  0.00    +0.051 C 
ENDBRANCH  23  24
ENDBRANCH  18  23
TORSDOF 3
ENDMDL
MODEL 2
REMARK VINA RESULT:      -6.3      6.504      9.323
REMARK  Name = 5359271
REMARK  3 active torsions:
REMARK  status: ('A' for Active; 'I' for Inactive)
REMARK    1  A    between atoms: C_12  and  O_21
REMARK    2  A    between atoms: C_18  and  O_23
REMARK    3  A    between atoms: O_23  and  C_24
REMARK                            x       y       z     vdW  Elec       q    Type
REMARK                         _______ _______ _______ _____ _____    ______ ____
ROOT
ATOM      1  O   UNL     1      34.908 -15.200 -23.338  0.00  0.00    -0.473 OA
ATOM      2  N   UNL     1      35.693 -19.552 -20.519  0.00  0.00    +0.387 N 
ATOM      3  C   UNL     1      34.981 -16.997 -21.697  0.00  0.00    +0.061 C 
ATOM      4  C   UNL     1      34.084 -17.717 -20.679  0.00  0.00    +0.010 C 
ATOM      5  C   UNL     1      34.292 -19.252 -20.899  0.00  0.00    -0.049 C 
ATOM      6  C   UNL     1      34.761 -15.480 -21.903  0.00  0.00    +0.200 C 
ATOM      7  C   UNL     1      36.456 -17.355 -21.421  0.00  0.00    -0.015 C 
ATOM      8  C   UNL     1      34.591 -17.443 -23.067  0.00  0.00    +0.014 C 
ATOM      9  C   UNL     1      33.885 -19.716 -22.340  0.00  0.00    +0.006 C 
ATOM     10  C   UNL     1      36.694 -18.872 -21.345  0.00  0.00    -0.077 C 
ATOM     11  C   UNL     1      34.141 -18.702 -23.422  0.00  0.00    -0.025 C 
ATOM     12  C   UNL     1      33.404 -14.951 -21.371  0.00  0.00    +0.172 C 
ATOM     13  C   UNL     1      32.652 -17.256 -20.776  0.00  0.00    -0.030 C 
ATOM     14  C   UNL     1      34.630 -16.391 -23.953  0.00  0.00    +0.168 C 
ATOM     15  C   UNL     1      32.349 -15.994 -21.112  0.00  0.00    +0.002 C 
ATOM     16  C   UNL     1      33.838 -18.913 -24.769  0.00  0.00    -0.001 C 
ATOM     17  C   UNL     1      35.970 -20.981 -20.413  0.00  0.00    -0.101 C 
ATOM     18  C   UNL     1      34.344 -16.577 -25.289  0.00  0.00    +0.172 C 
ATOM     19  C   UNL     1      33.960 -17.860 -25.697  0.00  0.00    +0.040 C 
ATOM     20  H   UNL     1      35.781 -19.163 -19.580  0.00  0.00    -0.080 HD
ENDROOT
BRANCH  12  21
ATOM     21  O   UNL     1      32.901 -13.941 -22.241  0.00  0.00    -0.377 OA
ATOM     22  H   UNL     1      31.939 -13.869 -22.130  0.00  0.00    +0.211 HD
ENDBRANCH  12  21
BRANCH  18  23
ATOM     23  O   UNL     1      34.397 -15.553 -26.175  0.00  0.00    -0.472 OA
BRANCH  23  24
ATOM     24  C   UNL     1      33.181 -14.846 -26.432  0.00  0.00    +0.206 C 
ATOM     25  C   UNL     1      33.504 -13.556 -27.155  0.00  0.00    +0.051 C 
ENDBRANCH  23  24
ENDBRANCH  18  23
TORSDOF 3
ENDMDL
