MODEL 1
REMARK VINA RESULT:      -8.2      0.000      0.000
REMARK  Name = 6323197
REMARK  8 active torsions:
REMARK  status: ('A' for Active; 'I' for Inactive)
REMARK    1  A    between atoms: C_3  and  C_24
REMARK    2  A    between atoms: C_4  and  N_8
REMARK    3  A    between atoms: C_7  and  C_14
REMARK    4  A    between atoms: N_8  and  S_10
REMARK    5  A    between atoms: C_15  and  C_16
REMARK    6  A    between atoms: C_16  and  N_17
REMARK    7  A    between atoms: C_24  and  C_25
REMARK    8  A    between atoms: C_24  and  C_29
REMARK                            x       y       z     vdW  Elec       q    Type
REMARK                         _______ _______ _______ _____ _____    ______ ____
ROOT
ATOM      1  O   UNL     1      32.685 -23.401 -17.800  0.00  0.00    -0.270 OA
ATOM      2  N   UNL     1      34.134 -23.179 -16.006  0.00  0.00    -0.276 N 
ATOM      3  C   UNL     1      35.369 -23.301 -16.790  0.00  0.00    +0.099 C 
ATOM      4  C   UNL     1      36.455 -23.575 -15.742  0.00  0.00    +0.095 C 
ATOM      5  C   UNL     1      35.936 -22.869 -14.492  0.00  0.00    +0.041 C 
ATOM      6  C   UNL     1      34.425 -23.036 -14.580  0.00  0.00    +0.095 C 
ATOM      7  C   UNL     1      32.884 -23.281 -16.592  0.00  0.00    +0.249 C 
ENDROOT
BRANCH   4   8
ATOM      8  N   UNL     1      36.552 -25.036 -15.491  0.00  0.00    -0.183 NA
ATOM      9  H   UNL     1      35.686 -25.320 -15.033  0.00  0.00    +0.148 HD
BRANCH   8  10
ATOM     10  S   UNL     1      37.836 -25.621 -14.539  0.00  0.00    +0.043 S 
ATOM     11  O   UNL     1      38.849 -24.595 -14.387  0.00  0.00    -0.157 OA
ATOM     12  O   UNL     1      38.186 -26.944 -15.016  0.00  0.00    -0.157 OA
ATOM     13  C   UNL     1      37.021 -25.821 -12.972  0.00  0.00    +0.196 C 
ENDBRANCH   8  10
ENDBRANCH   4   8
BRANCH   7  14
ATOM     14  C   UNL     1      31.720 -23.246 -15.684  0.00  0.00    +0.051 C 
ATOM     15  C   UNL     1      30.810 -24.222 -15.764  0.00  0.00    -0.044 C 
BRANCH  15  16
ATOM     16  C   UNL     1      29.596 -24.288 -14.886  0.00  0.00    -0.050 C 
BRANCH  16  17
ATOM     17  N   UNL     1      28.406 -23.791 -15.574  0.00  0.00    +0.390 N 
ATOM     18  C   UNL     1      28.650 -23.696 -17.021  0.00  0.00    -0.077 C 
ATOM     19  C   UNL     1      27.995 -22.494 -15.020  0.00  0.00    -0.077 C 
ATOM     20  C   UNL     1      27.398 -23.224 -17.762  0.00  0.00    -0.023 C 
ATOM     21  C   UNL     1      26.722 -21.982 -15.695  0.00  0.00    -0.023 C 
ATOM     22  C   UNL     1      26.892 -21.897 -17.207  0.00  0.00    -0.004 C 
ATOM     23  H   UNL     1      27.643 -24.452 -15.427  0.00  0.00    -0.079 HD
ENDBRANCH  16  17
ENDBRANCH  15  16
ENDBRANCH   7  14
BRANCH   3  24
ATOM     24  C   UNL     1      35.651 -22.018 -17.572  0.00  0.00    +0.084 C 
BRANCH  24  25
ATOM     25  C   UNL     1      35.322 -22.096 -19.081  0.00  0.00    +0.009 C 
ATOM     26  C   UNL     1      34.063 -21.313 -19.471  0.00  0.00    +0.001 C 
ATOM     27  C   UNL     1      36.504 -21.636 -19.940  0.00  0.00    +0.001 C 
ENDBRANCH  24  25
BRANCH  24  29
ATOM     28  O   UNL     1      37.435 -20.458 -17.003  0.00  0.00    -0.288 OA
ATOM     29  C   UNL     1      37.091 -21.571 -17.388  0.00  0.00    +0.209 C 
ENDBRANCH  24  29
ENDBRANCH   3  24
TORSDOF 8
ENDMDL
MODEL 2
REMARK VINA RESULT:      -8.0     12.573     15.688
REMARK  Name = 6323197
REMARK  8 active torsions:
REMARK  status: ('A' for Active; 'I' for Inactive)
REMARK    1  A    between atoms: C_3  and  C_24
REMARK    2  A    between atoms: C_4  and  N_8
REMARK    3  A    between atoms: C_7  and  C_14
REMARK    4  A    between atoms: N_8  and  S_10
REMARK    5  A    between atoms: C_15  and  C_16
REMARK    6  A    between atoms: C_16  and  N_17
REMARK    7  A    between atoms: C_24  and  C_25
REMARK    8  A    between atoms: C_24  and  C_29
REMARK                            x       y       z     vdW  Elec       q    Type
REMARK                         _______ _______ _______ _____ _____    ______ ____
ROOT
ATOM      1  O   UNL     1      31.532 -12.222 -22.708  0.00  0.00    -0.270 OA
ATOM      2  N   UNL     1      32.906 -10.399 -23.105  0.00  0.00    -0.276 N 
ATOM      3  C   UNL     1      32.101  -9.432 -22.348  0.00  0.00    +0.099 C 
ATOM      4  C   UNL     1      32.625  -8.066 -22.807  0.00  0.00    +0.095 C 
ATOM      5  C   UNL     1      34.084  -8.339 -23.161  0.00  0.00    +0.041 C 
ATOM      6  C   UNL     1      34.064  -9.754 -23.724  0.00  0.00    +0.095 C 
ATOM      7  C   UNL     1      32.517 -11.719 -23.249  0.00  0.00    +0.249 C 
ENDROOT
BRANCH   4   8
ATOM      8  N   UNL     1      31.886  -7.626 -24.018  0.00  0.00    -0.183 NA
ATOM      9  H   UNL     1      32.351  -8.047 -24.822  0.00  0.00    +0.148 HD
BRANCH   8  10
ATOM     10  S   UNL     1      31.749  -5.960 -24.336  0.00  0.00    +0.043 S 
ATOM     11  O   UNL     1      30.437  -5.663 -24.875  0.00  0.00    -0.157 OA
ATOM     12  O   UNL     1      32.949  -5.532 -25.028  0.00  0.00    -0.157 OA
ATOM     13  C   UNL     1      31.825  -5.301 -22.687  0.00  0.00    +0.196 C 
ENDBRANCH   8  10
ENDBRANCH   4   8
BRANCH   7  14
ATOM     14  C   UNL     1      33.354 -12.568 -24.119  0.00  0.00    +0.051 C 
ATOM     15  C   UNL     1      33.188 -13.895 -24.081  0.00  0.00    -0.044 C 
BRANCH  15  16
ATOM     16  C   UNL     1      33.978 -14.847 -24.928  0.00  0.00    -0.050 C 
BRANCH  16  17
ATOM     17  N   UNL     1      34.079 -16.165 -24.303  0.00  0.00    +0.390 N 
ATOM     18  C   UNL     1      35.028 -16.131 -23.181  0.00  0.00    -0.077 C 
ATOM     19  C   UNL     1      34.468 -17.176 -25.296  0.00  0.00    -0.077 C 
ATOM     20  C   UNL     1      35.109 -17.491 -22.485  0.00  0.00    -0.023 C 
ATOM     21  C   UNL     1      34.531 -18.570 -24.670  0.00  0.00    -0.023 C 
ATOM     22  C   UNL     1      35.470 -18.597 -23.470  0.00  0.00    -0.004 C 
ATOM     23  H   UNL     1      33.165 -16.423 -23.934  0.00  0.00    -0.079 HD
ENDBRANCH  16  17
ENDBRANCH  15  16
ENDBRANCH   7  14
BRANCH   3  24
ATOM     24  C   UNL     1      32.281  -9.630 -20.843  0.00  0.00    +0.084 C 
BRANCH  24  25
ATOM     25  C   UNL     1      31.348 -10.691 -20.214  0.00  0.00    +0.009 C 
ATOM     26  C   UNL     1      32.067 -11.992 -19.844  0.00  0.00    +0.001 C 
ATOM     27  C   UNL     1      30.612 -10.138 -18.989  0.00  0.00    +0.001 C 
ENDBRANCH  24  25
BRANCH  24  29
ATOM     28  O   UNL     1      33.062  -7.649 -19.656  0.00  0.00    -0.288 OA
ATOM     29  C   UNL     1      32.130  -8.314 -20.098  0.00  0.00    +0.209 C 
ENDBRANCH  24  29
ENDBRANCH   3  24
TORSDOF 8
ENDMDL
MODEL 3
REMARK VINA RESULT:      -7.8      9.905     12.204
REMARK  Name = 6323197
REMARK  8 active torsions:
REMARK  status: ('A' for Active; 'I' for Inactive)
REMARK    1  A    between atoms: C_3  and  C_24
REMARK    2  A    between atoms: C_4  and  N_8
REMARK    3  A    between atoms: C_7  and  C_14
REMARK    4  A    between atoms: N_8  and  S_10
REMARK    5  A    between atoms: C_15  and  C_16
REMARK    6  A    between atoms: C_16  and  N_17
REMARK    7  A    between atoms: C_24  and  C_25
REMARK    8  A    between atoms: C_24  and  C_29
REMARK                            x       y       z     vdW  Elec       q    Type
REMARK                         _______ _______ _______ _____ _____    ______ ____
ROOT
ATOM      1  O   UNL     1      31.480 -13.603 -22.769  0.00  0.00    -0.270 OA
ATOM      2  N   UNL     1      33.344 -14.615 -21.835  0.00  0.00    -0.276 N 
ATOM      3  C   UNL     1      33.415 -15.723 -22.795  0.00  0.00    +0.099 C 
ATOM      4  C   UNL     1      34.349 -16.739 -22.128  0.00  0.00    +0.095 C 
ATOM      5  C   UNL     1      35.278 -15.874 -21.281  0.00  0.00    +0.041 C 
ATOM      6  C   UNL     1      34.387 -14.729 -20.816  0.00  0.00    +0.095 C 
ATOM      7  C   UNL     1      32.340 -13.663 -21.891  0.00  0.00    +0.249 C 
ENDROOT
BRANCH   4   8
ATOM      8  N   UNL     1      33.563 -17.643 -21.249  0.00  0.00    -0.183 NA
ATOM      9  H   UNL     1      33.655 -17.291 -20.297  0.00  0.00    +0.148 HD
BRANCH   8  10
ATOM     10  S   UNL     1      33.958 -19.298 -21.210  0.00  0.00    +0.043 S 
ATOM     11  O   UNL     1      32.752 -20.094 -21.095  0.00  0.00    -0.157 OA
ATOM     12  O   UNL     1      35.057 -19.478 -20.281  0.00  0.00    -0.157 OA
ATOM     13  C   UNL     1      34.608 -19.521 -22.849  0.00  0.00    +0.196 C 
ENDBRANCH   8  10
ENDBRANCH   4   8
BRANCH   7  14
ATOM     14  C   UNL     1      32.315 -12.659 -20.809  0.00  0.00    +0.051 C 
ATOM     15  C   UNL     1      31.700 -11.491 -21.026  0.00  0.00    -0.044 C 
BRANCH  15  16
ATOM     16  C   UNL     1      31.608 -10.407 -19.994  0.00  0.00    -0.050 C 
BRANCH  16  17
ATOM     17  N   UNL     1      31.512  -9.085 -20.611  0.00  0.00    +0.390 N 
ATOM     18  C   UNL     1      31.776  -9.170 -22.055  0.00  0.00    -0.077 C 
ATOM     19  C   UNL     1      32.433  -8.144 -19.958  0.00  0.00    -0.077 C 
ATOM     20  C   UNL     1      31.630  -7.802 -22.724  0.00  0.00    -0.023 C 
ATOM     21  C   UNL     1      32.309  -6.743 -20.558  0.00  0.00    -0.023 C 
ATOM     22  C   UNL     1      32.532  -6.764 -22.066  0.00  0.00    -0.004 C 
ATOM     23  H   UNL     1      30.563  -8.734 -20.485  0.00  0.00    -0.079 HD
ENDBRANCH  16  17
ENDBRANCH  15  16
ENDBRANCH   7  14
BRANCH   3  24
ATOM     24  C   UNL     1      33.965 -15.248 -24.140  0.00  0.00    +0.084 C 
BRANCH  24  25
ATOM     25  C   UNL     1      33.149 -14.117 -24.809  0.00  0.00    +0.009 C 
ATOM     26  C   UNL     1      33.908 -12.789 -24.898  0.00  0.00    +0.001 C 
ATOM     27  C   UNL     1      32.656 -14.527 -26.200  0.00  0.00    +0.001 C 
ENDBRANCH  24  25
BRANCH  24  29
ATOM     28  O   UNL     1      35.130 -16.656 -25.753  0.00  0.00    -0.288 OA
ATOM     29  C   UNL     1      34.115 -16.409 -25.109  0.00  0.00    +0.209 C 
ENDBRANCH  24  29
ENDBRANCH   3  24
TORSDOF 8
ENDMDL
MODEL 4
REMARK VINA RESULT:      -7.7      2.590      6.315
REMARK  Name = 6323197
REMARK  8 active torsions:
REMARK  status: ('A' for Active; 'I' for Inactive)
REMARK    1  A    between atoms: C_3  and  C_24
REMARK    2  A    between atoms: C_4  and  N_8
REMARK    3  A    between atoms: C_7  and  C_14
REMARK    4  A    between atoms: N_8  and  S_10
REMARK    5  A    between atoms: C_15  and  C_16
REMARK    6  A    between atoms: C_16  and  N_17
REMARK    7  A    between atoms: C_24  and  C_25
REMARK    8  A    between atoms: C_24  and  C_29
REMARK                            x       y       z     vdW  Elec       q    Type
REMARK                         _______ _______ _______ _____ _____    ______ ____
ROOT
ATOM      1  O   UNL     1      32.287 -22.296 -17.349  0.00  0.00    -0.270 OA
ATOM      2  N   UNL     1      33.790 -23.705 -16.287  0.00  0.00    -0.276 N 
ATOM      3  C   UNL     1      33.108 -23.704 -14.987  0.00  0.00    +0.099 C 
ATOM      4  C   UNL     1      34.153 -24.265 -14.015  0.00  0.00    +0.095 C 
ATOM      5  C   UNL     1      34.994 -25.194 -14.885  0.00  0.00    +0.041 C 
ATOM      6  C   UNL     1      35.014 -24.503 -16.243  0.00  0.00    +0.095 C 
ATOM      7  C   UNL     1      33.327 -22.955 -17.355  0.00  0.00    +0.249 C 
ENDROOT
BRANCH   4   8
ATOM      8  N   UNL     1      34.999 -23.161 -13.494  0.00  0.00    -0.183 NA
ATOM      9  H   UNL     1      35.331 -22.632 -14.300  0.00  0.00    +0.148 HD
BRANCH   8  10
ATOM     10  S   UNL     1      36.363 -23.546 -12.553  0.00  0.00    +0.043 S 
ATOM     11  O   UNL     1      36.812 -22.375 -11.825  0.00  0.00    -0.157 OA
ATOM     12  O   UNL     1      37.283 -24.303 -13.379  0.00  0.00    -0.157 OA
ATOM     13  C   UNL     1      35.649 -24.677 -11.382  0.00  0.00    +0.196 C 
ENDBRANCH   8  10
ENDBRANCH   4   8
BRANCH   7  14
ATOM     14  C   UNL     1      34.155 -22.956 -18.577  0.00  0.00    +0.051 C 
ATOM     15  C   UNL     1      34.883 -21.872 -18.864  0.00  0.00    -0.044 C 
BRANCH  15  16
ATOM     16  C   UNL     1      35.764 -21.770 -20.073  0.00  0.00    -0.050 C 
BRANCH  16  17
ATOM     17  N   UNL     1      35.461 -20.578 -20.862  0.00  0.00    +0.390 N 
ATOM     18  C   UNL     1      36.505 -19.559 -20.678  0.00  0.00    -0.077 C 
ATOM     19  C   UNL     1      34.136 -20.049 -20.507  0.00  0.00    -0.077 C 
ATOM     20  C   UNL     1      36.228 -18.323 -21.535  0.00  0.00    -0.023 C 
ATOM     21  C   UNL     1      33.781 -18.829 -21.358  0.00  0.00    -0.023 C 
ATOM     22  C   UNL     1      34.847 -17.746 -21.245  0.00  0.00    -0.004 C 
ATOM     23  H   UNL     1      35.442 -20.834 -21.849  0.00  0.00    -0.079 HD
ENDBRANCH  16  17
ENDBRANCH  15  16
ENDBRANCH   7  14
BRANCH   3  24
ATOM     24  C   UNL     1      31.850 -24.571 -15.027  0.00  0.00    +0.084 C 
BRANCH  24  25
ATOM     25  C   UNL     1      30.582 -23.848 -15.538  0.00  0.00    +0.009 C 
ATOM     26  C   UNL     1      29.362 -24.768 -15.657  0.00  0.00    +0.001 C 
ATOM     27  C   UNL     1      30.236 -22.636 -14.668  0.00  0.00    +0.001 C 
ENDBRANCH  24  25
BRANCH  24  29
ATOM     28  O   UNL     1      31.019 -24.611 -12.735  0.00  0.00    -0.288 OA
ATOM     29  C   UNL     1      31.570 -25.189 -13.667  0.00  0.00    +0.209 C 
ENDBRANCH  24  29
ENDBRANCH   3  24
TORSDOF 8
ENDMDL
MODEL 5
REMARK VINA RESULT:      -7.6      4.044      6.154
REMARK  Name = 6323197
REMARK  8 active torsions:
REMARK  status: ('A' for Active; 'I' for Inactive)
REMARK    1  A    between atoms: C_3  and  C_24
REMARK    2  A    between atoms: C_4  and  N_8
REMARK    3  A    between atoms: C_7  and  C_14
REMARK    4  A    between atoms: N_8  and  S_10
REMARK    5  A    between atoms: C_15  and  C_16
REMARK    6  A    between atoms: C_16  and  N_17
REMARK    7  A    between atoms: C_24  and  C_25
REMARK    8  A    between atoms: C_24  and  C_29
REMARK                            x       y       z     vdW  Elec       q    Type
REMARK                         _______ _______ _______ _____ _____    ______ ____
ROOT
ATOM      1  O   UNL     1      36.033 -21.830 -15.758  0.00  0.00    -0.270 OA
ATOM      2  N   UNL     1      35.772 -24.122 -15.542  0.00  0.00    -0.276 N 
ATOM      3  C   UNL     1      36.725 -24.282 -14.436  0.00  0.00    +0.099 C 
ATOM      4  C   UNL     1      37.003 -25.789 -14.394  0.00  0.00    +0.095 C 
ATOM      5  C   UNL     1      35.707 -26.409 -14.910  0.00  0.00    +0.041 C 
ATOM      6  C   UNL     1      35.214 -25.411 -15.950  0.00  0.00    +0.095 C 
ATOM      7  C   UNL     1      35.541 -22.893 -16.135  0.00  0.00    +0.249 C 
ENDROOT
BRANCH   4   8
ATOM      8  N   UNL     1      38.121 -26.121 -15.314  0.00  0.00    -0.183 NA
ATOM      9  H   UNL     1      38.318 -27.115 -15.201  0.00  0.00    +0.148 HD
BRANCH   8  10
ATOM     10  S   UNL     1      39.599 -25.296 -15.138  0.00  0.00    +0.043 S 
ATOM     11  O   UNL     1      39.417 -23.885 -15.417  0.00  0.00    -0.157 OA
ATOM     12  O   UNL     1      40.626 -26.060 -15.819  0.00  0.00    -0.157 OA
ATOM     13  C   UNL     1      39.874 -25.478 -13.391  0.00  0.00    +0.196 C 
ENDBRANCH   8  10
ENDBRANCH   4   8
BRANCH   7  14
ATOM     14  C   UNL     1      34.640 -22.878 -17.304  0.00  0.00    +0.051 C 
ATOM     15  C   UNL     1      34.968 -22.130 -18.363  0.00  0.00    -0.044 C 
BRANCH  15  16
ATOM     16  C   UNL     1      34.130 -22.049 -19.604  0.00  0.00    -0.050 C 
BRANCH  16  17
ATOM     17  N   UNL     1      34.589 -20.984 -20.494  0.00  0.00    +0.390 N 
ATOM     18  C   UNL     1      35.879 -20.450 -20.035  0.00  0.00    -0.077 C 
ATOM     19  C   UNL     1      33.579 -19.922 -20.590  0.00  0.00    -0.077 C 
ATOM     20  C   UNL     1      36.398 -19.368 -20.985  0.00  0.00    -0.023 C 
ATOM     21  C   UNL     1      34.021 -18.823 -21.557  0.00  0.00    -0.023 C 
ATOM     22  C   UNL     1      35.377 -18.250 -21.162  0.00  0.00    -0.004 C 
ATOM     23  H   UNL     1      34.725 -21.374 -21.427  0.00  0.00    -0.079 HD
ENDBRANCH  16  17
ENDBRANCH  15  16
ENDBRANCH   7  14
BRANCH   3  24
ATOM     24  C   UNL     1      36.129 -23.779 -13.122  0.00  0.00    +0.084 C 
BRANCH  24  25
ATOM     25  C   UNL     1      37.058 -23.922 -11.894  0.00  0.00    +0.009 C 
ATOM     26  C   UNL     1      38.024 -22.745 -11.722  0.00  0.00    +0.001 C 
ATOM     27  C   UNL     1      36.258 -24.130 -10.604  0.00  0.00    +0.001 C 
ENDBRANCH  24  25
BRANCH  24  29
ATOM     28  O   UNL     1      33.700 -23.916 -12.952  0.00  0.00    -0.288 OA
ATOM     29  C   UNL     1      34.797 -24.453 -12.834  0.00  0.00    +0.209 C 
ENDBRANCH  24  29
ENDBRANCH   3  24
TORSDOF 8
ENDMDL
MODEL 6
REMARK VINA RESULT:      -7.6      2.862      6.584
REMARK  Name = 6323197
REMARK  8 active torsions:
REMARK  status: ('A' for Active; 'I' for Inactive)
REMARK    1  A    between atoms: C_3  and  C_24
REMARK    2  A    between atoms: C_4  and  N_8
REMARK    3  A    between atoms: C_7  and  C_14
REMARK    4  A    between atoms: N_8  and  S_10
REMARK    5  A    between atoms: C_15  and  C_16
REMARK    6  A    between atoms: C_16  and  N_17
REMARK    7  A    between atoms: C_24  and  C_25
REMARK    8  A    between atoms: C_24  and  C_29
REMARK                            x       y       z     vdW  Elec       q    Type
REMARK                         _______ _______ _______ _____ _____    ______ ____
ROOT
ATOM      1  O   UNL     1      37.599 -24.333 -15.708  0.00  0.00    -0.270 OA
ATOM      2  N   UNL     1      35.663 -23.427 -14.811  0.00  0.00    -0.276 N 
ATOM      3  C   UNL     1      35.355 -24.562 -13.932  0.00  0.00    +0.099 C 
ATOM      4  C   UNL     1      33.892 -24.340 -13.531  0.00  0.00    +0.095 C 
ATOM      5  C   UNL     1      33.734 -22.823 -13.568  0.00  0.00    +0.041 C 
ATOM      6  C   UNL     1      34.637 -22.390 -14.716  0.00  0.00    +0.095 C 
ATOM      7  C   UNL     1      36.756 -23.437 -15.660  0.00  0.00    +0.249 C 
ENDROOT
BRANCH   4   8
ATOM      8  N   UNL     1      32.995 -24.964 -14.537  0.00  0.00    -0.183 NA
ATOM      9  H   UNL     1      33.267 -24.598 -15.449  0.00  0.00    +0.148 HD
BRANCH   8  10
ATOM     10  S   UNL     1      31.314 -24.739 -14.389  0.00  0.00    +0.043 S 
ATOM     11  O   UNL     1      30.995 -24.236 -13.067  0.00  0.00    -0.157 OA
ATOM     12  O   UNL     1      30.653 -25.918 -14.915  0.00  0.00    -0.157 OA
ATOM     13  C   UNL     1      31.054 -23.422 -15.554  0.00  0.00    +0.196 C 
ENDBRANCH   8  10
ENDBRANCH   4   8
BRANCH   7  14
ATOM     14  C   UNL     1      36.902 -22.282 -16.569  0.00  0.00    +0.051 C 
ATOM     15  C   UNL     1      36.557 -22.424 -17.853  0.00  0.00    -0.044 C 
BRANCH  15  16
ATOM     16  C   UNL     1      36.656 -21.316 -18.858  0.00  0.00    -0.050 C 
BRANCH  16  17
ATOM     17  N   UNL     1      35.342 -20.766 -19.185  0.00  0.00    +0.390 N 
ATOM     18  C   UNL     1      34.314 -21.816 -19.121  0.00  0.00    -0.077 C 
ATOM     19  C   UNL     1      35.365 -20.126 -20.507  0.00  0.00    -0.077 C 
ATOM     20  C   UNL     1      32.924 -21.246 -19.412  0.00  0.00    -0.023 C 
ATOM     21  C   UNL     1      34.010 -19.501 -20.844  0.00  0.00    -0.023 C 
ATOM     22  C   UNL     1      32.889 -20.530 -20.757  0.00  0.00    -0.004 C 
ATOM     23  H   UNL     1      35.105 -20.053 -18.495  0.00  0.00    -0.079 HD
ENDBRANCH  16  17
ENDBRANCH  15  16
ENDBRANCH   7  14
BRANCH   3  24
ATOM     24  C   UNL     1      36.279 -24.580 -12.715  0.00  0.00    +0.084 C 
BRANCH  24  25
ATOM     25  C   UNL     1      37.203 -25.816 -12.622  0.00  0.00    +0.009 C 
ATOM     26  C   UNL     1      36.906 -26.879 -13.685  0.00  0.00    +0.001 C 
ATOM     27  C   UNL     1      38.681 -25.420 -12.683  0.00  0.00    +0.001 C 
ENDBRANCH  24  25
BRANCH  24  29
ATOM     28  O   UNL     1      35.351 -25.324 -10.586  0.00  0.00    -0.288 OA
ATOM     29  C   UNL     1      35.486 -24.439 -11.426  0.00  0.00    +0.209 C 
ENDBRANCH  24  29
ENDBRANCH   3  24
TORSDOF 8
ENDMDL
MODEL 7
REMARK VINA RESULT:      -7.4      5.840      8.448
REMARK  Name = 6323197
REMARK  8 active torsions:
REMARK  status: ('A' for Active; 'I' for Inactive)
REMARK    1  A    between atoms: C_3  and  C_24
REMARK    2  A    between atoms: C_4  and  N_8
REMARK    3  A    between atoms: C_7  and  C_14
REMARK    4  A    between atoms: N_8  and  S_10
REMARK    5  A    between atoms: C_15  and  C_16
REMARK    6  A    between atoms: C_16  and  N_17
REMARK    7  A    between atoms: C_24  and  C_25
REMARK    8  A    between atoms: C_24  and  C_29
REMARK                            x       y       z     vdW  Elec       q    Type
REMARK                         _______ _______ _______ _____ _____    ______ ____
ROOT
ATOM      1  O   UNL     1      32.306 -19.621 -20.219  0.00  0.00    -0.270 OA
ATOM      2  N   UNL     1      34.376 -19.093 -21.118  0.00  0.00    -0.276 N 
ATOM      3  C   UNL     1      33.945 -17.854 -21.776  0.00  0.00    +0.099 C 
ATOM      4  C   UNL     1      35.076 -17.541 -22.764  0.00  0.00    +0.095 C 
ATOM      5  C   UNL     1      36.314 -18.132 -22.096  0.00  0.00    +0.041 C 
ATOM      6  C   UNL     1      35.786 -19.372 -21.385  0.00  0.00    +0.095 C 
ATOM      7  C   UNL     1      33.489 -19.895 -20.420  0.00  0.00    +0.249 C 
ENDROOT
BRANCH   4   8
ATOM      8  N   UNL     1      34.821 -18.232 -24.054  0.00  0.00    -0.183 NA
ATOM      9  H   UNL     1      35.692 -18.689 -24.327  0.00  0.00    +0.148 HD
BRANCH   8  10
ATOM     10  S   UNL     1      34.301 -17.313 -25.389  0.00  0.00    +0.043 S 
ATOM     11  O   UNL     1      33.088 -17.884 -25.942  0.00  0.00    -0.157 OA
ATOM     12  O   UNL     1      35.450 -17.052 -26.233  0.00  0.00    -0.157 OA
ATOM     13  C   UNL     1      33.871 -15.784 -24.590  0.00  0.00    +0.196 C 
ENDBRANCH   8  10
ENDBRANCH   4   8
BRANCH   7  14
ATOM     14  C   UNL     1      34.019 -21.168 -19.891  0.00  0.00    +0.051 C 
ATOM     15  C   UNL     1      33.273 -21.870 -19.031  0.00  0.00    -0.044 C 
BRANCH  15  16
ATOM     16  C   UNL     1      33.710 -23.177 -18.441  0.00  0.00    -0.050 C 
BRANCH  16  17
ATOM     17  N   UNL     1      32.995 -23.473 -17.201  0.00  0.00    +0.390 N 
ATOM     18  C   UNL     1      31.780 -22.652 -17.098  0.00  0.00    -0.077 C 
ATOM     19  C   UNL     1      33.872 -23.269 -16.040  0.00  0.00    -0.077 C 
ATOM     20  C   UNL     1      30.994 -22.985 -15.829  0.00  0.00    -0.023 C 
ATOM     21  C   UNL     1      33.155 -23.622 -14.736  0.00  0.00    -0.023 C 
ATOM     22  C   UNL     1      31.860 -22.832 -14.584  0.00  0.00    -0.004 C 
ATOM     23  H   UNL     1      32.712 -24.452 -17.212  0.00  0.00    -0.079 HD
ENDBRANCH  16  17
ENDBRANCH  15  16
ENDBRANCH   7  14
BRANCH   3  24
ATOM     24  C   UNL     1      33.757 -16.729 -20.758  0.00  0.00    +0.084 C 
BRANCH  24  25
ATOM     25  C   UNL     1      32.425 -15.955 -20.889  0.00  0.00    +0.009 C 
ATOM     26  C   UNL     1      31.931 -15.365 -19.564  0.00  0.00    +0.001 C 
ATOM     27  C   UNL     1      32.516 -14.851 -21.947  0.00  0.00    +0.001 C 
ENDBRANCH  24  25
BRANCH  24  29
ATOM     28  O   UNL     1      35.026 -14.756 -20.094  0.00  0.00    -0.288 OA
ATOM     29  C   UNL     1      34.920 -15.752 -20.804  0.00  0.00    +0.209 C 
ENDBRANCH  24  29
ENDBRANCH   3  24
TORSDOF 8
ENDMDL
MODEL 8
REMARK VINA RESULT:      -7.4      3.892      5.997
REMARK  Name = 6323197
REMARK  8 active torsions:
REMARK  status: ('A' for Active; 'I' for Inactive)
REMARK    1  A    between atoms: C_3  and  C_24
REMARK    2  A    between atoms: C_4  and  N_8
REMARK    3  A    between atoms: C_7  and  C_14
REMARK    4  A    between atoms: N_8  and  S_10
REMARK    5  A    between atoms: C_15  and  C_16
REMARK    6  A    between atoms: C_16  and  N_17
REMARK    7  A    between atoms: C_24  and  C_25
REMARK    8  A    between atoms: C_24  and  C_29
REMARK                            x       y       z     vdW  Elec       q    Type
REMARK                         _______ _______ _______ _____ _____    ______ ____
ROOT
ATOM      1  O   UNL     1      35.533 -22.421 -14.605  0.00  0.00    -0.270 OA
ATOM      2  N   UNL     1      36.013 -24.640 -15.073  0.00  0.00    -0.276 N 
ATOM      3  C   UNL     1      37.045 -24.795 -14.040  0.00  0.00    +0.099 C 
ATOM      4  C   UNL     1      37.779 -26.083 -14.433  0.00  0.00    +0.095 C 
ATOM      5  C   UNL     1      36.706 -26.909 -15.137  0.00  0.00    +0.041 C 
ATOM      6  C   UNL     1      35.855 -25.867 -15.852  0.00  0.00    +0.095 C 
ATOM      7  C   UNL     1      35.370 -23.432 -15.287  0.00  0.00    +0.249 C 
ENDROOT
BRANCH   4   8
ATOM      8  N   UNL     1      38.876 -25.766 -15.383  0.00  0.00    -0.183 NA
ATOM      9  H   UNL     1      38.901 -26.518 -16.072  0.00  0.00    +0.148 HD
BRANCH   8  10
ATOM     10  S   UNL     1      40.457 -25.588 -14.780  0.00  0.00    +0.043 S 
ATOM     11  O   UNL     1      41.069 -24.397 -15.336  0.00  0.00    -0.157 OA
ATOM     12  O   UNL     1      41.122 -26.873 -14.869  0.00  0.00    -0.157 OA
ATOM     13  C   UNL     1      40.123 -25.281 -13.061  0.00  0.00    +0.196 C 
ENDBRANCH   8  10
ENDBRANCH   4   8
BRANCH   7  14
ATOM     14  C   UNL     1      34.427 -23.374 -16.422  0.00  0.00    +0.051 C 
ATOM     15  C   UNL     1      34.735 -22.613 -17.478  0.00  0.00    -0.044 C 
BRANCH  15  16
ATOM     16  C   UNL     1      33.855 -22.489 -18.685  0.00  0.00    -0.050 C 
BRANCH  16  17
ATOM     17  N   UNL     1      34.050 -21.209 -19.364  0.00  0.00    +0.390 N 
ATOM     18  C   UNL     1      32.918 -20.922 -20.257  0.00  0.00    -0.077 C 
ATOM     19  C   UNL     1      35.321 -21.205 -20.101  0.00  0.00    -0.077 C 
ATOM     20  C   UNL     1      33.083 -19.561 -20.938  0.00  0.00    -0.023 C 
ATOM     21  C   UNL     1      35.565 -19.855 -20.776  0.00  0.00    -0.023 C 
ATOM     22  C   UNL     1      34.406 -19.475 -21.690  0.00  0.00    -0.004 C 
ATOM     23  H   UNL     1      34.091 -20.470 -18.662  0.00  0.00    -0.079 HD
ENDBRANCH  16  17
ENDBRANCH  15  16
ENDBRANCH   7  14
BRANCH   3  24
ATOM     24  C   UNL     1      36.418 -24.902 -12.651  0.00  0.00    +0.084 C 
BRANCH  24  25
ATOM     25  C   UNL     1      36.252 -23.555 -11.910  0.00  0.00    +0.009 C 
ATOM     26  C   UNL     1      35.739 -23.709 -10.474  0.00  0.00    +0.001 C 
ATOM     27  C   UNL     1      37.554 -22.748 -11.912  0.00  0.00    +0.001 C 
ENDBRANCH  24  25
BRANCH  24  29
ATOM     28  O   UNL     1      36.888 -27.047 -11.590  0.00  0.00    -0.288 OA
ATOM     29  C   UNL     1      37.194 -25.873 -11.775  0.00  0.00    +0.209 C 
ENDBRANCH  24  29
ENDBRANCH   3  24
TORSDOF 8
ENDMDL
MODEL 9
REMARK VINA RESULT:      -7.1     11.918     14.812
REMARK  Name = 6323197
REMARK  8 active torsions:
REMARK  status: ('A' for Active; 'I' for Inactive)
REMARK    1  A    between atoms: C_3  and  C_24
REMARK    2  A    between atoms: C_4  and  N_8
REMARK    3  A    between atoms: C_7  and  C_14
REMARK    4  A    between atoms: N_8  and  S_10
REMARK    5  A    between atoms: C_15  and  C_16
REMARK    6  A    between atoms: C_16  and  N_17
REMARK    7  A    between atoms: C_24  and  C_25
REMARK    8  A    between atoms: C_24  and  C_29
REMARK                            x       y       z     vdW  Elec       q    Type
REMARK                         _______ _______ _______ _____ _____    ______ ____
ROOT
ATOM      1  O   UNL     1      34.845 -10.296 -24.495  0.00  0.00    -0.270 OA
ATOM      2  N   UNL     1      32.846 -10.506 -23.342  0.00  0.00    -0.276 N 
ATOM      3  C   UNL     1      32.883  -9.174 -22.726  0.00  0.00    +0.099 C 
ATOM      4  C   UNL     1      31.841  -9.250 -21.603  0.00  0.00    +0.095 C 
ATOM      5  C   UNL     1      30.824 -10.262 -22.123  0.00  0.00    +0.041 C 
ATOM      6  C   UNL     1      31.668 -11.257 -22.909  0.00  0.00    +0.095 C 
ATOM      7  C   UNL     1      33.870 -10.964 -24.153  0.00  0.00    +0.249 C 
ENDROOT
BRANCH   4   8
ATOM      8  N   UNL     1      32.476  -9.765 -20.363  0.00  0.00    -0.183 NA
ATOM      9  H   UNL     1      33.242 -10.375 -20.649  0.00  0.00    +0.148 HD
BRANCH   8  10
ATOM     10  S   UNL     1      31.524 -10.644 -19.259  0.00  0.00    +0.043 S 
ATOM     11  O   UNL     1      30.118 -10.467 -19.564  0.00  0.00    -0.157 OA
ATOM     12  O   UNL     1      32.031 -10.390 -17.924  0.00  0.00    -0.157 OA
ATOM     13  C   UNL     1      31.973 -12.309 -19.689  0.00  0.00    +0.196 C 
ENDBRANCH   8  10
ENDBRANCH   4   8
BRANCH   7  14
ATOM     14  C   UNL     1      33.767 -12.358 -24.630  0.00  0.00    +0.051 C 
ATOM     15  C   UNL     1      33.932 -13.354 -23.752  0.00  0.00    -0.044 C 
BRANCH  15  16
ATOM     16  C   UNL     1      33.840 -14.802 -24.127  0.00  0.00    -0.050 C 
BRANCH  16  17
ATOM     17  N   UNL     1      34.611 -15.644 -23.214  0.00  0.00    +0.390 N 
ATOM     18  C   UNL     1      34.738 -17.006 -23.752  0.00  0.00    -0.077 C 
ATOM     19  C   UNL     1      33.996 -15.656 -21.880  0.00  0.00    -0.077 C 
ATOM     20  C   UNL     1      35.585 -17.887 -22.832  0.00  0.00    -0.023 C 
ATOM     21  C   UNL     1      34.818 -16.492 -20.898  0.00  0.00    -0.023 C 
ATOM     22  C   UNL     1      35.022 -17.911 -21.415  0.00  0.00    -0.004 C 
ATOM     23  H   UNL     1      35.550 -15.254 -23.123  0.00  0.00    -0.079 HD
ENDBRANCH  16  17
ENDBRANCH  15  16
ENDBRANCH   7  14
BRANCH   3  24
ATOM     24  C   UNL     1      32.538  -8.088 -23.745  0.00  0.00    +0.084 C 
BRANCH  24  25
ATOM     25  C   UNL     1      33.544  -6.916 -23.807  0.00  0.00    +0.009 C 
ATOM     26  C   UNL     1      34.964  -7.309 -23.384  0.00  0.00    +0.001 C 
ATOM     27  C   UNL     1      33.576  -6.274 -25.198  0.00  0.00    +0.001 C 
ENDBRANCH  24  25
BRANCH  24  29
ATOM     28  O   UNL     1      30.884  -6.434 -23.057  0.00  0.00    -0.288 OA
ATOM     29  C   UNL     1      31.138  -7.546 -23.511  0.00  0.00    +0.209 C 
ENDBRANCH  24  29
ENDBRANCH   3  24
TORSDOF 8
ENDMDL
