MODEL 1
REMARK VINA RESULT:      -6.4      0.000      0.000
REMARK  Name = 7068808
REMARK  5 active torsions:
REMARK  status: ('A' for Active; 'I' for Inactive)
REMARK    1  A    between atoms: C_1  and  N_2
REMARK    2  A    between atoms: C_1  and  C_8
REMARK    3  A    between atoms: C_1  and  C_9
REMARK    4  A    between atoms: C_9  and  S_10
REMARK    5  A    between atoms: S_10  and  S_11
REMARK                            x       y       z     vdW  Elec       q    Type
REMARK                         _______ _______ _______ _____ _____    ______ ____
ROOT
ATOM      1  C   UNK     1      38.734 -25.472 -14.582  0.00  0.00    +0.053 C 
ENDROOT
BRANCH   1   2
ATOM      2  N   UNK     1      38.219 -26.853 -14.313  0.00  0.00    +0.389 N 
ATOM      3  H   UNK     1      37.431 -26.803 -13.670  0.00  0.00    -0.088 HD
ATOM      4  H   UNK     1      38.961 -27.418 -13.900  0.00  0.00    -0.088 HD
ATOM      5  H   UNK     1      37.916 -27.279 -15.190  0.00  0.00    -0.088 HD
ENDBRANCH   1   2
BRANCH   1   8
ATOM      6  O   UNK     1      40.603 -26.118 -15.891  0.00  0.00    -0.248 OA
ATOM      7  O   UNK     1      40.932 -24.663 -14.165  0.00  0.00    -0.248 OA
ATOM      8  C   UNK     1      40.235 -25.402 -14.915  0.00  0.00    +0.346 C 
ENDBRANCH   1   8
BRANCH   1   9
ATOM      9  C   UNK     1      38.254 -24.582 -13.432  0.00  0.00    +0.071 C 
BRANCH   9  10
ATOM     10  S   UNK     1      37.116 -25.426 -12.285  0.00  0.00    +0.013 S 
BRANCH  10  11
ATOM     11  S   UNK     1      36.217 -23.816 -11.294  0.00  0.00    +0.066 S 
ATOM     12  O   UNK     1      35.966 -24.373  -9.782  0.00  0.00    -0.059 OA
ATOM     13  O   UNK     1      37.196 -22.749 -11.219  0.00  0.00    -0.059 OA
ATOM     14  O   UNK     1      34.921 -23.595 -11.908  0.00  0.00    -0.059 OA
ENDBRANCH  10  11
ENDBRANCH   9  10
ENDBRANCH   1   9
TORSDOF 5
ENDMDL
MODEL 2
REMARK VINA RESULT:      -6.3      0.143      1.315
REMARK  Name = 7068808
REMARK  5 active torsions:
REMARK  status: ('A' for Active; 'I' for Inactive)
REMARK    1  A    between atoms: C_1  and  N_2
REMARK    2  A    between atoms: C_1  and  C_8
REMARK    3  A    between atoms: C_1  and  C_9
REMARK    4  A    between atoms: C_9  and  S_10
REMARK    5  A    between atoms: S_10  and  S_11
REMARK                            x       y       z     vdW  Elec       q    Type
REMARK                         _______ _______ _______ _____ _____    ______ ____
ROOT
ATOM      1  C   UNK     1      38.752 -25.442 -14.456  0.00  0.00    +0.053 C 
ENDROOT
BRANCH   1   2
ATOM      2  N   UNK     1      38.199 -26.831 -14.360  0.00  0.00    +0.389 N 
ATOM      3  H   UNK     1      37.453 -26.853 -13.666  0.00  0.00    -0.088 HD
ATOM      4  H   UNK     1      38.941 -27.474 -14.082  0.00  0.00    -0.088 HD
ATOM      5  H   UNK     1      37.829 -27.113 -15.268  0.00  0.00    -0.088 HD
ENDBRANCH   1   2
BRANCH   1   8
ATOM      6  O   UNK     1      40.549 -26.091 -15.861  0.00  0.00    -0.248 OA
ATOM      7  O   UNK     1      40.966 -24.623 -14.165  0.00  0.00    -0.248 OA
ATOM      8  C   UNK     1      40.233 -25.370 -14.871  0.00  0.00    +0.346 C 
ENDBRANCH   1   8
BRANCH   1   9
ATOM      9  C   UNK     1      38.377 -24.719 -13.160  0.00  0.00    +0.071 C 
BRANCH   9  10
ATOM     10  S   UNK     1      37.068 -25.560 -12.209  0.00  0.00    +0.013 S 
BRANCH  10  11
ATOM     11  S   UNK     1      36.161 -23.965 -11.202  0.00  0.00    +0.066 S 
ATOM     12  O   UNK     1      37.258 -22.763 -11.297  0.00  0.00    -0.059 OA
ATOM     13  O   UNK     1      34.998 -23.568 -11.973  0.00  0.00    -0.059 OA
ATOM     14  O   UNK     1      36.035 -24.345  -9.808  0.00  0.00    -0.059 OA
ENDBRANCH  10  11
ENDBRANCH   9  10
ENDBRANCH   1   9
TORSDOF 5
ENDMDL
MODEL 3
REMARK VINA RESULT:      -6.1      2.786      5.144
REMARK  Name = 7068808
REMARK  5 active torsions:
REMARK  status: ('A' for Active; 'I' for Inactive)
REMARK    1  A    between atoms: C_1  and  N_2
REMARK    2  A    between atoms: C_1  and  C_8
REMARK    3  A    between atoms: C_1  and  C_9
REMARK    4  A    between atoms: C_9  and  S_10
REMARK    5  A    between atoms: S_10  and  S_11
REMARK                            x       y       z     vdW  Elec       q    Type
REMARK                         _______ _______ _______ _____ _____    ______ ____
ROOT
ATOM      1  C   UNK     1      36.770 -23.622 -12.020  0.00  0.00    +0.053 C 
ENDROOT
BRANCH   1   2
ATOM      2  N   UNK     1      38.223 -23.959 -11.871  0.00  0.00    +0.389 N 
ATOM      3  H   UNK     1      38.724 -23.150 -11.505  0.00  0.00    -0.088 HD
ATOM      4  H   UNK     1      38.608 -24.216 -12.780  0.00  0.00    -0.088 HD
ATOM      5  H   UNK     1      38.325 -24.743 -11.225  0.00  0.00    -0.088 HD
ENDBRANCH   1   2
BRANCH   1   8
ATOM      6  O   UNK     1      36.207 -24.121  -9.771  0.00  0.00    -0.248 OA
ATOM      7  O   UNK     1      34.863 -24.917 -11.433  0.00  0.00    -0.248 OA
ATOM      8  C   UNK     1      35.850 -24.278 -10.974  0.00  0.00    +0.346 C 
ENDBRANCH   1   8
BRANCH   1   9
ATOM      9  C   UNK     1      36.403 -23.860 -13.488  0.00  0.00    +0.071 C 
BRANCH   9  10
ATOM     10  S   UNK     1      37.831 -24.297 -14.534  0.00  0.00    +0.013 S 
BRANCH  10  11
ATOM     11  S   UNK     1      37.745 -26.389 -14.543  0.00  0.00    +0.066 S 
ATOM     12  O   UNK     1      39.298 -26.847 -14.728  0.00  0.00    -0.059 OA
ATOM     13  O   UNK     1      37.309 -26.813 -13.226  0.00  0.00    -0.059 OA
ATOM     14  O   UNK     1      37.017 -26.790 -15.731  0.00  0.00    -0.059 OA
ENDBRANCH  10  11
ENDBRANCH   9  10
ENDBRANCH   1   9
TORSDOF 5
ENDMDL
MODEL 4
REMARK VINA RESULT:      -6.1      1.819      2.184
REMARK  Name = 7068808
REMARK  5 active torsions:
REMARK  status: ('A' for Active; 'I' for Inactive)
REMARK    1  A    between atoms: C_1  and  N_2
REMARK    2  A    between atoms: C_1  and  C_8
REMARK    3  A    between atoms: C_1  and  C_9
REMARK    4  A    between atoms: C_9  and  S_10
REMARK    5  A    between atoms: S_10  and  S_11
REMARK                            x       y       z     vdW  Elec       q    Type
REMARK                         _______ _______ _______ _____ _____    ______ ____
ROOT
ATOM      1  C   UNK     1      37.130 -25.084 -14.974  0.00  0.00    +0.053 C 
ENDROOT
BRANCH   1   2
ATOM      2  N   UNK     1      36.042 -26.103 -14.826  0.00  0.00    +0.389 N 
ATOM      3  H   UNK     1      35.215 -25.662 -14.424  0.00  0.00    -0.088 HD
ATOM      4  H   UNK     1      36.360 -26.853 -14.212  0.00  0.00    -0.088 HD
ATOM      5  H   UNK     1      35.811 -26.488 -15.742  0.00  0.00    -0.088 HD
ENDBRANCH   1   2
BRANCH   1   8
ATOM      6  O   UNK     1      39.370 -24.705 -14.292  0.00  0.00    -0.248 OA
ATOM      7  O   UNK     1      38.715 -26.843 -14.749  0.00  0.00    -0.248 OA
ATOM      8  C   UNK     1      38.540 -25.598 -14.630  0.00  0.00    +0.346 C 
ENDBRANCH   1   8
BRANCH   1   9
ATOM      9  C   UNK     1      36.669 -23.825 -14.234  0.00  0.00    +0.071 C 
BRANCH   9  10
ATOM     10  S   UNK     1      35.284 -24.121 -13.086  0.00  0.00    +0.013 S 
BRANCH  10  11
ATOM     11  S   UNK     1      36.272 -24.813 -11.375  0.00  0.00    +0.066 S 
ATOM     12  O   UNK     1      36.813 -26.290 -11.801  0.00  0.00    -0.059 OA
ATOM     13  O   UNK     1      37.425 -23.959 -11.162  0.00  0.00    -0.059 OA
ATOM     14  O   UNK     1      35.274 -24.986 -10.336  0.00  0.00    -0.059 OA
ENDBRANCH  10  11
ENDBRANCH   9  10
ENDBRANCH   1   9
TORSDOF 5
ENDMDL
MODEL 5
REMARK VINA RESULT:      -6.0      2.434      2.520
REMARK  Name = 7068808
REMARK  5 active torsions:
REMARK  status: ('A' for Active; 'I' for Inactive)
REMARK    1  A    between atoms: C_1  and  N_2
REMARK    2  A    between atoms: C_1  and  C_8
REMARK    3  A    between atoms: C_1  and  C_9
REMARK    4  A    between atoms: C_9  and  S_10
REMARK    5  A    between atoms: S_10  and  S_11
REMARK                            x       y       z     vdW  Elec       q    Type
REMARK                         _______ _______ _______ _____ _____    ______ ____
ROOT
ATOM      1  C   UNK     1      37.521 -26.836 -14.216  0.00  0.00    +0.053 C 
ENDROOT
BRANCH   1   2
ATOM      2  N   UNK     1      38.956 -26.435 -14.378  0.00  0.00    +0.389 N 
ATOM      3  H   UNK     1      39.180 -26.367 -15.370  0.00  0.00    -0.088 HD
ATOM      4  H   UNK     1      39.556 -27.134 -13.940  0.00  0.00    -0.088 HD
ATOM      5  H   UNK     1      39.108 -25.530 -13.932  0.00  0.00    -0.088 HD
ENDBRANCH   1   2
BRANCH   1   8
ATOM      6  O   UNK     1      36.684 -27.448 -16.349  0.00  0.00    -0.248 OA
ATOM      7  O   UNK     1      35.990 -25.479 -15.429  0.00  0.00    -0.248 OA
ATOM      8  C   UNK     1      36.638 -26.563 -15.447  0.00  0.00    +0.346 C 
ENDBRANCH   1   8
BRANCH   1   9
ATOM      9  C   UNK     1      37.037 -26.243 -12.890  0.00  0.00    +0.071 C 
BRANCH   9  10
ATOM     10  S   UNK     1      38.085 -24.884 -12.274  0.00  0.00    +0.013 S 
BRANCH  10  11
ATOM     11  S   UNK     1      36.667 -23.549 -11.505  0.00  0.00    +0.066 S 
ATOM     12  O   UNK     1      36.373 -24.107 -10.002  0.00  0.00    -0.059 OA
ATOM     13  O   UNK     1      37.309 -22.255 -11.382  0.00  0.00    -0.059 OA
ATOM     14  O   UNK     1      35.454 -23.706 -12.284  0.00  0.00    -0.059 OA
ENDBRANCH  10  11
ENDBRANCH   9  10
ENDBRANCH   1   9
TORSDOF 5
ENDMDL
MODEL 6
REMARK VINA RESULT:      -6.0      2.513      5.020
REMARK  Name = 7068808
REMARK  5 active torsions:
REMARK  status: ('A' for Active; 'I' for Inactive)
REMARK    1  A    between atoms: C_1  and  N_2
REMARK    2  A    between atoms: C_1  and  C_8
REMARK    3  A    between atoms: C_1  and  C_9
REMARK    4  A    between atoms: C_9  and  S_10
REMARK    5  A    between atoms: S_10  and  S_11
REMARK                            x       y       z     vdW  Elec       q    Type
REMARK                         _______ _______ _______ _____ _____    ______ ____
ROOT
ATOM      1  C   UNK     1      35.925 -24.108 -12.282  0.00  0.00    +0.053 C 
ENDROOT
BRANCH   1   2
ATOM      2  N   UNK     1      35.862 -23.173 -13.451  0.00  0.00    +0.389 N 
ATOM      3  H   UNK     1      36.401 -22.334 -13.245  0.00  0.00    -0.088 HD
ATOM      4  H   UNK     1      34.891 -22.918 -13.631  0.00  0.00    -0.088 HD
ATOM      5  H   UNK     1      36.250 -23.633 -14.275  0.00  0.00    -0.088 HD
ENDBRANCH   1   2
BRANCH   1   8
ATOM      6  O   UNK     1      36.221 -24.084  -9.929  0.00  0.00    -0.248 OA
ATOM      7  O   UNK     1      37.238 -22.464 -11.172  0.00  0.00    -0.248 OA
ATOM      8  C   UNK     1      36.529 -23.496 -11.005  0.00  0.00    +0.346 C 
ENDBRANCH   1   8
BRANCH   1   9
ATOM      9  C   UNK     1      36.569 -25.406 -12.779  0.00  0.00    +0.071 C 
BRANCH   9  10
ATOM     10  S   UNK     1      38.360 -25.501 -12.455  0.00  0.00    +0.013 S 
BRANCH  10  11
ATOM     11  S   UNK     1      39.166 -25.299 -14.377  0.00  0.00    +0.066 S 
ATOM     12  O   UNK     1      40.723 -24.898 -14.112  0.00  0.00    -0.059 OA
ATOM     13  O   UNK     1      39.143 -26.608 -15.000  0.00  0.00    -0.059 OA
ATOM     14  O   UNK     1      38.514 -24.165 -15.005  0.00  0.00    -0.059 OA
ENDBRANCH  10  11
ENDBRANCH   9  10
ENDBRANCH   1   9
TORSDOF 5
ENDMDL
MODEL 7
REMARK VINA RESULT:      -6.0      1.464      2.016
REMARK  Name = 7068808
REMARK  5 active torsions:
REMARK  status: ('A' for Active; 'I' for Inactive)
REMARK    1  A    between atoms: C_1  and  N_2
REMARK    2  A    between atoms: C_1  and  C_8
REMARK    3  A    between atoms: C_1  and  C_9
REMARK    4  A    between atoms: C_9  and  S_10
REMARK    5  A    between atoms: S_10  and  S_11
REMARK                            x       y       z     vdW  Elec       q    Type
REMARK                         _______ _______ _______ _____ _____    ______ ____
ROOT
ATOM      1  C   UNK     1      37.304 -25.618 -14.601  0.00  0.00    +0.053 C 
ENDROOT
BRANCH   1   2
ATOM      2  N   UNK     1      36.785 -26.646 -13.643  0.00  0.00    +0.389 N 
ATOM      3  H   UNK     1      37.168 -27.560 -13.883  0.00  0.00    -0.088 HD
ATOM      4  H   UNK     1      35.767 -26.679 -13.696  0.00  0.00    -0.088 HD
ATOM      5  H   UNK     1      37.067 -26.399 -12.694  0.00  0.00    -0.088 HD
ENDBRANCH   1   2
BRANCH   1   8
ATOM      6  O   UNK     1      39.403 -26.721 -14.658  0.00  0.00    -0.248 OA
ATOM      7  O   UNK     1      39.355 -24.453 -14.908  0.00  0.00    -0.248 OA
ATOM      8  C   UNK     1      38.836 -25.593 -14.746  0.00  0.00    +0.346 C 
ENDBRANCH   1   8
BRANCH   1   9
ATOM      9  C   UNK     1      36.636 -24.289 -14.238  0.00  0.00    +0.071 C 
BRANCH   9  10
ATOM     10  S   UNK     1      35.540 -24.398 -12.786  0.00  0.00    +0.013 S 
BRANCH  10  11
ATOM     11  S   UNK     1      36.848 -23.954 -11.213  0.00  0.00    +0.066 S 
ATOM     12  O   UNK     1      37.228 -22.386 -11.446  0.00  0.00    -0.059 OA
ATOM     13  O   UNK     1      36.093 -24.050  -9.978  0.00  0.00    -0.059 OA
ATOM     14  O   UNK     1      38.051 -24.739 -11.412  0.00  0.00    -0.059 OA
ENDBRANCH  10  11
ENDBRANCH   9  10
ENDBRANCH   1   9
TORSDOF 5
ENDMDL
MODEL 8
REMARK VINA RESULT:      -5.9      2.291      2.629
REMARK  Name = 7068808
REMARK  5 active torsions:
REMARK  status: ('A' for Active; 'I' for Inactive)
REMARK    1  A    between atoms: C_1  and  N_2
REMARK    2  A    between atoms: C_1  and  C_8
REMARK    3  A    between atoms: C_1  and  C_9
REMARK    4  A    between atoms: C_9  and  S_10
REMARK    5  A    between atoms: S_10  and  S_11
REMARK                            x       y       z     vdW  Elec       q    Type
REMARK                         _______ _______ _______ _____ _____    ______ ____
ROOT
ATOM      1  C   UNK     1      37.507 -24.471 -14.640  0.00  0.00    +0.053 C 
ENDROOT
BRANCH   1   2
ATOM      2  N   UNK     1      38.173 -23.741 -15.767  0.00  0.00    +0.389 N 
ATOM      3  H   UNK     1      37.716 -23.983 -16.645  0.00  0.00    -0.088 HD
ATOM      4  H   UNK     1      39.157 -24.007 -15.810  0.00  0.00    -0.088 HD
ATOM      5  H   UNK     1      38.099 -22.736 -15.610  0.00  0.00    -0.088 HD
ENDBRANCH   1   2
BRANCH   1   8
ATOM      6  O   UNK     1      36.371 -26.270 -15.687  0.00  0.00    -0.248 OA
ATOM      7  O   UNK     1      38.069 -26.747 -14.240  0.00  0.00    -0.248 OA
ATOM      8  C   UNK     1      37.303 -25.977 -14.885  0.00  0.00    +0.346 C 
ENDBRANCH   1   8
BRANCH   1   9
ATOM      9  C   UNK     1      36.255 -23.671 -14.265  0.00  0.00    +0.071 C 
BRANCH   9  10
ATOM     10  S   UNK     1      35.449 -24.254 -12.738  0.00  0.00    +0.013 S 
BRANCH  10  11
ATOM     11  S   UNK     1      36.893 -23.819 -11.286  0.00  0.00    +0.066 S 
ATOM     12  O   UNK     1      36.114 -24.053  -9.873  0.00  0.00    -0.059 OA
ATOM     13  O   UNK     1      37.934 -24.823 -11.392  0.00  0.00    -0.059 OA
ATOM     14  O   UNK     1      37.207 -22.408 -11.393  0.00  0.00    -0.059 OA
ENDBRANCH  10  11
ENDBRANCH   9  10
ENDBRANCH   1   9
TORSDOF 5
ENDMDL
MODEL 9
REMARK VINA RESULT:      -5.9      2.854      4.693
REMARK  Name = 7068808
REMARK  5 active torsions:
REMARK  status: ('A' for Active; 'I' for Inactive)
REMARK    1  A    between atoms: C_1  and  N_2
REMARK    2  A    between atoms: C_1  and  C_8
REMARK    3  A    between atoms: C_1  and  C_9
REMARK    4  A    between atoms: C_9  and  S_10
REMARK    5  A    between atoms: S_10  and  S_11
REMARK                            x       y       z     vdW  Elec       q    Type
REMARK                         _______ _______ _______ _____ _____    ______ ____
ROOT
ATOM      1  C   UNK     1      36.017 -23.495 -12.492  0.00  0.00    +0.053 C 
ENDROOT
BRANCH   1   2
ATOM      2  N   UNK     1      36.059 -22.958 -13.891  0.00  0.00    +0.389 N 
ATOM      3  H   UNK     1      36.026 -23.732 -14.553  0.00  0.00    -0.088 HD
ATOM      4  H   UNK     1      36.921 -22.430 -14.026  0.00  0.00    -0.088 HD
ATOM      5  H   UNK     1      35.258 -22.346 -14.043  0.00  0.00    -0.088 HD
ENDBRANCH   1   2
BRANCH   1   8
ATOM      6  O   UNK     1      38.099 -22.418 -12.138  0.00  0.00    -0.248 OA
ATOM      7  O   UNK     1      36.881 -23.060 -10.319  0.00  0.00    -0.248 OA
ATOM      8  C   UNK     1      37.099 -22.929 -11.556  0.00  0.00    +0.346 C 
ENDBRANCH   1   8
BRANCH   1   9
ATOM      9  C   UNK     1      35.946 -25.022 -12.600  0.00  0.00    +0.071 C 
BRANCH   9  10
ATOM     10  S   UNK     1      37.579 -25.831 -12.546  0.00  0.00    +0.013 S 
BRANCH  10  11
ATOM     11  S   UNK     1      38.220 -25.660 -14.531  0.00  0.00    +0.066 S 
ATOM     12  O   UNK     1      36.839 -25.694 -15.397  0.00  0.00    -0.059 OA
ATOM     13  O   UNK     1      38.811 -24.344 -14.687  0.00  0.00    -0.059 OA
ATOM     14  O   UNK     1      38.976 -26.856 -14.850  0.00  0.00    -0.059 OA
ENDBRANCH  10  11
ENDBRANCH   9  10
ENDBRANCH   1   9
TORSDOF 5
ENDMDL
