MODEL 1
REMARK VINA RESULT:      -9.8      0.000      0.000
REMARK  Name = 4062
REMARK  2 active torsions:
REMARK  status: ('A' for Active; 'I' for Inactive)
REMARK    1  A    between atoms: N_2  and  C_13
REMARK    2  A    between atoms: C_3  and  C_6
REMARK                            x       y       z     vdW  Elec       q    Type
REMARK                         _______ _______ _______ _____ _____    ______ ____
ROOT
ATOM      1  O   UNL     1      35.347 -16.910 -20.337  0.00  0.00    -0.277 OA
ATOM      2  N   UNL     1      34.954 -18.789 -21.697  0.00  0.00    -0.286 N 
ATOM      3  C   UNL     1      35.167 -17.443 -21.427  0.00  0.00    +0.207 C 
ATOM      4  H   UNL     1      34.832 -19.028 -22.644  0.00  0.00    +0.155 HD
ENDROOT
BRANCH   3   6
ATOM      5  N   UNL     1      34.051 -15.666 -22.618  0.00  0.00    +0.392 N 
ATOM      6  C   UNL     1      35.163 -16.631 -22.687  0.00  0.00    +0.021 C 
ATOM      7  C   UNL     1      35.000 -17.611 -23.858  0.00  0.00    -0.012 C 
ATOM      8  C   UNL     1      34.825 -16.880 -25.181  0.00  0.00    -0.004 C 
ATOM      9  C   UNL     1      33.693 -15.869 -25.073  0.00  0.00    -0.023 C 
ATOM     10  C   UNL     1      33.910 -14.930 -23.887  0.00  0.00    -0.077 C 
ATOM     11  C   UNL     1      34.229 -14.700 -21.526  0.00  0.00    -0.100 C 
ATOM     12  H   UNL     1      33.206 -16.208 -22.439  0.00  0.00    -0.079 HD
ENDBRANCH   3   6
BRANCH   2  13
ATOM     13  C   UNL     1      34.892 -19.855 -20.768  0.00  0.00    +0.042 C 
ATOM     14  C   UNL     1      33.656 -20.353 -20.385  0.00  0.00    -0.009 C 
ATOM     15  C   UNL     1      36.068 -20.383 -20.257  0.00  0.00    -0.009 C 
ATOM     16  C   UNL     1      33.595 -21.404 -19.469  0.00  0.00    -0.003 C 
ATOM     17  C   UNL     1      36.007 -21.434 -19.342  0.00  0.00    -0.003 C 
ATOM     18  C   UNL     1      32.378 -19.795 -20.925  0.00  0.00    +0.032 C 
ATOM     19  C   UNL     1      37.408 -19.858 -20.661  0.00  0.00    +0.032 C 
ATOM     20  C   UNL     1      34.770 -21.944 -18.948  0.00  0.00    -0.001 C 
ENDBRANCH   2  13
TORSDOF 2
ENDMDL
MODEL 2
REMARK VINA RESULT:      -9.8      0.003      2.029
REMARK  Name = 4062
REMARK  2 active torsions:
REMARK  status: ('A' for Active; 'I' for Inactive)
REMARK    1  A    between atoms: N_2  and  C_13
REMARK    2  A    between atoms: C_3  and  C_6
REMARK                            x       y       z     vdW  Elec       q    Type
REMARK                         _______ _______ _______ _____ _____    ______ ____
ROOT
ATOM      1  O   UNL     1      35.346 -16.912 -20.336  0.00  0.00    -0.277 OA
ATOM      2  N   UNL     1      34.954 -18.791 -21.696  0.00  0.00    -0.286 N 
ATOM      3  C   UNL     1      35.168 -17.445 -21.426  0.00  0.00    +0.207 C 
ATOM      4  H   UNL     1      34.833 -19.031 -22.643  0.00  0.00    +0.155 HD
ENDROOT
BRANCH   3   6
ATOM      5  N   UNL     1      34.053 -15.666 -22.617  0.00  0.00    +0.392 N 
ATOM      6  C   UNL     1      35.164 -16.634 -22.686  0.00  0.00    +0.021 C 
ATOM      7  C   UNL     1      35.000 -17.613 -23.857  0.00  0.00    -0.012 C 
ATOM      8  C   UNL     1      34.826 -16.882 -25.181  0.00  0.00    -0.004 C 
ATOM      9  C   UNL     1      33.695 -15.870 -25.072  0.00  0.00    -0.023 C 
ATOM     10  C   UNL     1      33.914 -14.931 -23.887  0.00  0.00    -0.077 C 
ATOM     11  C   UNL     1      34.233 -14.700 -21.526  0.00  0.00    -0.100 C 
ATOM     12  H   UNL     1      33.208 -16.207 -22.438  0.00  0.00    -0.079 HD
ENDBRANCH   3   6
BRANCH   2  13
ATOM     13  C   UNL     1      34.891 -19.857 -20.767  0.00  0.00    +0.042 C 
ATOM     14  C   UNL     1      36.067 -20.385 -20.255  0.00  0.00    -0.009 C 
ATOM     15  C   UNL     1      33.655 -20.356 -20.384  0.00  0.00    -0.009 C 
ATOM     16  C   UNL     1      36.005 -21.436 -19.340  0.00  0.00    -0.003 C 
ATOM     17  C   UNL     1      33.593 -21.407 -19.469  0.00  0.00    -0.003 C 
ATOM     18  C   UNL     1      37.408 -19.860 -20.658  0.00  0.00    +0.032 C 
ATOM     19  C   UNL     1      32.378 -19.798 -20.926  0.00  0.00    +0.032 C 
ATOM     20  C   UNL     1      34.768 -21.947 -18.947  0.00  0.00    -0.001 C 
ENDBRANCH   2  13
TORSDOF 2
ENDMDL
MODEL 3
REMARK VINA RESULT:      -9.2      1.156      2.124
REMARK  Name = 4062
REMARK  2 active torsions:
REMARK  status: ('A' for Active; 'I' for Inactive)
REMARK    1  A    between atoms: N_2  and  C_13
REMARK    2  A    between atoms: C_3  and  C_6
REMARK                            x       y       z     vdW  Elec       q    Type
REMARK                         _______ _______ _______ _____ _____    ______ ____
ROOT
ATOM      1  O   UNL     1      35.001 -16.405 -20.217  0.00  0.00    -0.277 OA
ATOM      2  N   UNL     1      34.225 -18.167 -21.569  0.00  0.00    -0.286 N 
ATOM      3  C   UNL     1      34.373 -16.843 -21.176  0.00  0.00    +0.207 C 
ATOM      4  H   UNL     1      33.681 -18.324 -22.375  0.00  0.00    +0.155 HD
ENDROOT
BRANCH   3   6
ATOM      5  N   UNL     1      34.613 -15.338 -23.047  0.00  0.00    +0.392 N 
ATOM      6  C   UNL     1      33.642 -15.919 -22.102  0.00  0.00    +0.021 C 
ATOM      7  C   UNL     1      32.971 -14.844 -21.235  0.00  0.00    -0.012 C 
ATOM      8  C   UNL     1      32.327 -13.759 -22.086  0.00  0.00    -0.004 C 
ATOM      9  C   UNL     1      33.342 -13.198 -23.071  0.00  0.00    -0.023 C 
ATOM     10  C   UNL     1      33.977 -14.316 -23.897  0.00  0.00    -0.077 C 
ATOM     11  C   UNL     1      35.221 -16.360 -23.908  0.00  0.00    -0.100 C 
ATOM     12  H   UNL     1      35.346 -14.909 -22.483  0.00  0.00    -0.079 HD
ENDBRANCH   3   6
BRANCH   2  13
ATOM     13  C   UNL     1      34.767 -19.317 -20.947  0.00  0.00    +0.042 C 
ATOM     14  C   UNL     1      33.922 -20.200 -20.292  0.00  0.00    -0.009 C 
ATOM     15  C   UNL     1      36.135 -19.541 -21.001  0.00  0.00    -0.009 C 
ATOM     16  C   UNL     1      34.456 -21.333 -19.678  0.00  0.00    -0.003 C 
ATOM     17  C   UNL     1      36.669 -20.674 -20.387  0.00  0.00    -0.003 C 
ATOM     18  C   UNL     1      32.445 -19.973 -20.223  0.00  0.00    +0.032 C 
ATOM     19  C   UNL     1      37.060 -18.600 -21.703  0.00  0.00    +0.032 C 
ATOM     20  C   UNL     1      35.829 -21.570 -19.725  0.00  0.00    -0.001 C 
ENDBRANCH   2  13
TORSDOF 2
ENDMDL
MODEL 4
REMARK VINA RESULT:      -9.2      1.154      2.862
REMARK  Name = 4062
REMARK  2 active torsions:
REMARK  status: ('A' for Active; 'I' for Inactive)
REMARK    1  A    between atoms: N_2  and  C_13
REMARK    2  A    between atoms: C_3  and  C_6
REMARK                            x       y       z     vdW  Elec       q    Type
REMARK                         _______ _______ _______ _____ _____    ______ ____
ROOT
ATOM      1  O   UNL     1      35.007 -16.410 -20.215  0.00  0.00    -0.277 OA
ATOM      2  N   UNL     1      34.228 -18.174 -21.563  0.00  0.00    -0.286 N 
ATOM      3  C   UNL     1      34.377 -16.850 -21.172  0.00  0.00    +0.207 C 
ATOM      4  H   UNL     1      33.681 -18.331 -22.366  0.00  0.00    +0.155 HD
ENDROOT
BRANCH   3   6
ATOM      5  N   UNL     1      34.615 -15.341 -23.040  0.00  0.00    +0.392 N 
ATOM      6  C   UNL     1      33.644 -15.927 -22.098  0.00  0.00    +0.021 C 
ATOM      7  C   UNL     1      32.969 -14.855 -21.230  0.00  0.00    -0.012 C 
ATOM      8  C   UNL     1      32.323 -13.770 -22.080  0.00  0.00    -0.004 C 
ATOM      9  C   UNL     1      33.337 -13.205 -23.064  0.00  0.00    -0.023 C 
ATOM     10  C   UNL     1      33.976 -14.320 -23.890  0.00  0.00    -0.077 C 
ATOM     11  C   UNL     1      35.227 -16.361 -23.902  0.00  0.00    -0.100 C 
ATOM     12  H   UNL     1      35.345 -14.911 -22.474  0.00  0.00    -0.079 HD
ENDBRANCH   3   6
BRANCH   2  13
ATOM     13  C   UNL     1      34.770 -19.324 -20.939  0.00  0.00    +0.042 C 
ATOM     14  C   UNL     1      36.137 -19.547 -20.994  0.00  0.00    -0.009 C 
ATOM     15  C   UNL     1      33.925 -20.207 -20.286  0.00  0.00    -0.009 C 
ATOM     16  C   UNL     1      36.672 -20.679 -20.380  0.00  0.00    -0.003 C 
ATOM     17  C   UNL     1      34.458 -21.341 -19.672  0.00  0.00    -0.003 C 
ATOM     18  C   UNL     1      37.063 -18.605 -21.695  0.00  0.00    +0.032 C 
ATOM     19  C   UNL     1      32.448 -19.982 -20.218  0.00  0.00    +0.032 C 
ATOM     20  C   UNL     1      35.833 -21.576 -19.719  0.00  0.00    -0.001 C 
ENDBRANCH   2  13
TORSDOF 2
ENDMDL
MODEL 5
REMARK VINA RESULT:      -8.8      2.658      4.684
REMARK  Name = 4062
REMARK  2 active torsions:
REMARK  status: ('A' for Active; 'I' for Inactive)
REMARK    1  A    between atoms: N_2  and  C_13
REMARK    2  A    between atoms: C_3  and  C_6
REMARK                            x       y       z     vdW  Elec       q    Type
REMARK                         _______ _______ _______ _____ _____    ______ ____
ROOT
ATOM      1  O   UNL     1      32.117 -14.775 -22.556  0.00  0.00    -0.277 OA
ATOM      2  N   UNL     1      34.258 -15.103 -23.475  0.00  0.00    -0.286 N 
ATOM      3  C   UNL     1      33.054 -14.440 -23.274  0.00  0.00    +0.207 C 
ATOM      4  H   UNL     1      34.894 -14.673 -24.092  0.00  0.00    +0.155 HD
ENDROOT
BRANCH   3   6
ATOM      5  N   UNL     1      33.540 -13.441 -25.416  0.00  0.00    +0.392 N 
ATOM      6  C   UNL     1      32.994 -13.173 -24.073  0.00  0.00    +0.021 C 
ATOM      7  C   UNL     1      33.818 -12.120 -23.318  0.00  0.00    -0.012 C 
ATOM      8  C   UNL     1      33.956 -10.834 -24.120  0.00  0.00    -0.004 C 
ATOM      9  C   UNL     1      34.491 -11.143 -25.511  0.00  0.00    -0.023 C 
ATOM     10  C   UNL     1      33.634 -12.200 -26.205  0.00  0.00    -0.077 C 
ATOM     11  C   UNL     1      32.726 -14.414 -26.156  0.00  0.00    -0.100 C 
ATOM     12  H   UNL     1      34.471 -13.832 -25.278  0.00  0.00    -0.079 HD
ENDBRANCH   3   6
BRANCH   2  13
ATOM     13  C   UNL     1      34.677 -16.324 -22.895  0.00  0.00    +0.042 C 
ATOM     14  C   UNL     1      34.879 -16.394 -21.525  0.00  0.00    -0.009 C 
ATOM     15  C   UNL     1      34.880 -17.430 -23.707  0.00  0.00    -0.009 C 
ATOM     16  C   UNL     1      35.292 -17.598 -20.953  0.00  0.00    -0.003 C 
ATOM     17  C   UNL     1      35.294 -18.634 -23.136  0.00  0.00    -0.003 C 
ATOM     18  C   UNL     1      34.666 -15.212 -20.635  0.00  0.00    +0.032 C 
ATOM     19  C   UNL     1      34.668 -17.372 -25.186  0.00  0.00    +0.032 C 
ATOM     20  C   UNL     1      35.500 -18.717 -21.759  0.00  0.00    -0.001 C 
ENDBRANCH   2  13
TORSDOF 2
ENDMDL
MODEL 6
REMARK VINA RESULT:      -8.8      2.662      4.676
REMARK  Name = 4062
REMARK  2 active torsions:
REMARK  status: ('A' for Active; 'I' for Inactive)
REMARK    1  A    between atoms: N_2  and  C_13
REMARK    2  A    between atoms: C_3  and  C_6
REMARK                            x       y       z     vdW  Elec       q    Type
REMARK                         _______ _______ _______ _____ _____    ______ ____
ROOT
ATOM      1  O   UNL     1      32.117 -14.761 -22.566  0.00  0.00    -0.277 OA
ATOM      2  N   UNL     1      34.261 -15.091 -23.479  0.00  0.00    -0.286 N 
ATOM      3  C   UNL     1      33.056 -14.427 -23.281  0.00  0.00    +0.207 C 
ATOM      4  H   UNL     1      34.898 -14.662 -24.094  0.00  0.00    +0.155 HD
ENDROOT
BRANCH   3   6
ATOM      5  N   UNL     1      33.545 -13.431 -25.424  0.00  0.00    +0.392 N 
ATOM      6  C   UNL     1      32.999 -13.161 -24.082  0.00  0.00    +0.021 C 
ATOM      7  C   UNL     1      33.824 -12.109 -23.327  0.00  0.00    -0.012 C 
ATOM      8  C   UNL     1      33.965 -10.824 -24.130  0.00  0.00    -0.004 C 
ATOM      9  C   UNL     1      34.501 -11.134 -25.520  0.00  0.00    -0.023 C 
ATOM     10  C   UNL     1      33.641 -12.190 -26.214  0.00  0.00    -0.077 C 
ATOM     11  C   UNL     1      32.729 -14.402 -26.163  0.00  0.00    -0.100 C 
ATOM     12  H   UNL     1      34.475 -13.824 -25.286  0.00  0.00    -0.079 HD
ENDBRANCH   3   6
BRANCH   2  13
ATOM     13  C   UNL     1      34.677 -16.312 -22.897  0.00  0.00    +0.042 C 
ATOM     14  C   UNL     1      34.881 -17.418 -23.707  0.00  0.00    -0.009 C 
ATOM     15  C   UNL     1      34.874 -16.381 -21.526  0.00  0.00    -0.009 C 
ATOM     16  C   UNL     1      35.292 -18.622 -23.133  0.00  0.00    -0.003 C 
ATOM     17  C   UNL     1      35.285 -17.584 -20.951  0.00  0.00    -0.003 C 
ATOM     18  C   UNL     1      34.673 -17.361 -25.186  0.00  0.00    +0.032 C 
ATOM     19  C   UNL     1      34.659 -15.197 -20.637  0.00  0.00    +0.032 C 
ATOM     20  C   UNL     1      35.493 -18.705 -21.756  0.00  0.00    -0.001 C 
ENDBRANCH   2  13
TORSDOF 2
ENDMDL
MODEL 7
REMARK VINA RESULT:      -8.5      6.024      9.675
REMARK  Name = 4062
REMARK  2 active torsions:
REMARK  status: ('A' for Active; 'I' for Inactive)
REMARK    1  A    between atoms: N_2  and  C_13
REMARK    2  A    between atoms: C_3  and  C_6
REMARK                            x       y       z     vdW  Elec       q    Type
REMARK                         _______ _______ _______ _____ _____    ______ ____
ROOT
ATOM      1  O   UNL     1      35.704 -25.531 -15.833  0.00  0.00    -0.277 OA
ATOM      2  N   UNL     1      35.472 -23.209 -15.533  0.00  0.00    -0.286 N 
ATOM      3  C   UNL     1      35.740 -24.516 -15.145  0.00  0.00    +0.207 C 
ATOM      4  H   UNL     1      35.557 -22.521 -14.834  0.00  0.00    +0.155 HD
ENDROOT
BRANCH   3   6
ATOM      5  N   UNL     1      35.179 -23.733 -12.933  0.00  0.00    +0.392 N 
ATOM      6  C   UNL     1      36.111 -24.584 -13.695  0.00  0.00    +0.021 C 
ATOM      7  C   UNL     1      37.563 -24.097 -13.574  0.00  0.00    -0.012 C 
ATOM      8  C   UNL     1      37.995 -23.975 -12.120  0.00  0.00    -0.004 C 
ATOM      9  C   UNL     1      37.000 -23.119 -11.350  0.00  0.00    -0.023 C 
ATOM     10  C   UNL     1      35.577 -23.651 -11.516  0.00  0.00    -0.077 C 
ATOM     11  C   UNL     1      33.798 -24.225 -13.010  0.00  0.00    -0.100 C 
ATOM     12  H   UNL     1      35.220 -22.807 -13.356  0.00  0.00    -0.079 HD
ENDBRANCH   3   6
BRANCH   2  13
ATOM     13  C   UNL     1      35.091 -22.752 -16.818  0.00  0.00    +0.042 C 
ATOM     14  C   UNL     1      33.787 -22.938 -17.248  0.00  0.00    -0.009 C 
ATOM     15  C   UNL     1      36.030 -22.127 -17.625  0.00  0.00    -0.009 C 
ATOM     16  C   UNL     1      33.411 -22.488 -18.514  0.00  0.00    -0.003 C 
ATOM     17  C   UNL     1      35.656 -21.677 -18.891  0.00  0.00    -0.003 C 
ATOM     18  C   UNL     1      32.762 -23.611 -16.392  0.00  0.00    +0.032 C 
ATOM     19  C   UNL     1      37.441 -21.918 -17.176  0.00  0.00    +0.032 C 
ATOM     20  C   UNL     1      34.346 -21.857 -19.336  0.00  0.00    -0.001 C 
ENDBRANCH   2  13
TORSDOF 2
ENDMDL
MODEL 8
REMARK VINA RESULT:      -8.5      6.022      9.870
REMARK  Name = 4062
REMARK  2 active torsions:
REMARK  status: ('A' for Active; 'I' for Inactive)
REMARK    1  A    between atoms: N_2  and  C_13
REMARK    2  A    between atoms: C_3  and  C_6
REMARK                            x       y       z     vdW  Elec       q    Type
REMARK                         _______ _______ _______ _____ _____    ______ ____
ROOT
ATOM      1  O   UNL     1      35.700 -25.528 -15.833  0.00  0.00    -0.277 OA
ATOM      2  N   UNL     1      35.454 -23.208 -15.529  0.00  0.00    -0.286 N 
ATOM      3  C   UNL     1      35.727 -24.514 -15.143  0.00  0.00    +0.207 C 
ATOM      4  H   UNL     1      35.531 -22.522 -14.827  0.00  0.00    +0.155 HD
ENDROOT
BRANCH   3   6
ATOM      5  N   UNL     1      35.151 -23.735 -12.932  0.00  0.00    +0.392 N 
ATOM      6  C   UNL     1      36.089 -24.584 -13.690  0.00  0.00    +0.021 C 
ATOM      7  C   UNL     1      37.539 -24.096 -13.559  0.00  0.00    -0.012 C 
ATOM      8  C   UNL     1      37.961 -23.977 -12.102  0.00  0.00    -0.004 C 
ATOM      9  C   UNL     1      36.961 -23.122 -11.338  0.00  0.00    -0.023 C 
ATOM     10  C   UNL     1      35.540 -23.655 -11.513  0.00  0.00    -0.077 C 
ATOM     11  C   UNL     1      33.771 -24.228 -13.020  0.00  0.00    -0.100 C 
ATOM     12  H   UNL     1      35.194 -22.808 -13.354  0.00  0.00    -0.079 HD
ENDBRANCH   3   6
BRANCH   2  13
ATOM     13  C   UNL     1      35.079 -22.750 -16.815  0.00  0.00    +0.042 C 
ATOM     14  C   UNL     1      36.022 -22.124 -17.617  0.00  0.00    -0.009 C 
ATOM     15  C   UNL     1      33.776 -22.933 -17.250  0.00  0.00    -0.009 C 
ATOM     16  C   UNL     1      35.653 -21.672 -18.884  0.00  0.00    -0.003 C 
ATOM     17  C   UNL     1      33.406 -22.481 -18.517  0.00  0.00    -0.003 C 
ATOM     18  C   UNL     1      37.431 -21.918 -17.162  0.00  0.00    +0.032 C 
ATOM     19  C   UNL     1      32.747 -23.605 -16.399  0.00  0.00    +0.032 C 
ATOM     20  C   UNL     1      34.345 -21.851 -19.334  0.00  0.00    -0.001 C 
ENDBRANCH   2  13
TORSDOF 2
ENDMDL
MODEL 9
REMARK VINA RESULT:      -8.4      4.055      6.589
REMARK  Name = 4062
REMARK  2 active torsions:
REMARK  status: ('A' for Active; 'I' for Inactive)
REMARK    1  A    between atoms: N_2  and  C_13
REMARK    2  A    between atoms: C_3  and  C_6
REMARK                            x       y       z     vdW  Elec       q    Type
REMARK                         _______ _______ _______ _____ _____    ______ ____
ROOT
ATOM      1  O   UNL     1      34.146 -12.065 -23.909  0.00  0.00    -0.277 OA
ATOM      2  N   UNL     1      32.861 -13.880 -23.140  0.00  0.00    -0.286 N 
ATOM      3  C   UNL     1      33.184 -12.540 -23.313  0.00  0.00    +0.207 C 
ATOM      4  H   UNL     1      32.040 -14.067 -22.629  0.00  0.00    +0.155 HD
ENDROOT
BRANCH   3   6
ATOM      5  N   UNL     1      32.733 -10.290 -22.565  0.00  0.00    +0.392 N 
ATOM      6  C   UNL     1      32.172 -11.651 -22.656  0.00  0.00    +0.021 C 
ATOM      7  C   UNL     1      31.878 -12.244 -21.270  0.00  0.00    -0.012 C 
ATOM      8  C   UNL     1      30.977 -11.332 -20.450  0.00  0.00    -0.004 C 
ATOM      9  C   UNL     1      31.563  -9.929 -20.399  0.00  0.00    -0.023 C 
ATOM     10  C   UNL     1      31.838  -9.400 -21.805  0.00  0.00    -0.077 C 
ATOM     11  C   UNL     1      32.972  -9.706 -23.891  0.00  0.00    -0.100 C 
ATOM     12  H   UNL     1      33.626 -10.376 -22.081  0.00  0.00    -0.079 HD
ENDBRANCH   3   6
BRANCH   2  13
ATOM     13  C   UNL     1      33.574 -15.007 -23.615  0.00  0.00    +0.042 C 
ATOM     14  C   UNL     1      34.315 -15.769 -22.725  0.00  0.00    -0.009 C 
ATOM     15  C   UNL     1      33.520 -15.329 -24.962  0.00  0.00    -0.009 C 
ATOM     16  C   UNL     1      35.018 -16.879 -23.192  0.00  0.00    -0.003 C 
ATOM     17  C   UNL     1      34.223 -16.440 -25.431  0.00  0.00    -0.003 C 
ATOM     18  C   UNL     1      34.385 -15.435 -21.269  0.00  0.00    +0.032 C 
ATOM     19  C   UNL     1      32.726 -14.519 -25.936  0.00  0.00    +0.032 C 
ATOM     20  C   UNL     1      34.972 -17.215 -24.545  0.00  0.00    -0.001 C 
ENDBRANCH   2  13
TORSDOF 2
ENDMDL
