MODEL 1
REMARK VINA RESULT:      -7.2      0.000      0.000
REMARK  Name = 736234
REMARK  5 active torsions:
REMARK  status: ('A' for Active; 'I' for Inactive)
REMARK    1  A    between atoms: C_1  and  N_2
REMARK    2  A    between atoms: C_1  and  C_7
REMARK    3  A    between atoms: C_1  and  C_10
REMARK    4  A    between atoms: C_7  and  O_8
REMARK    5  A    between atoms: C_10  and  C_11
REMARK                            x       y       z     vdW  Elec       q    Type
REMARK                         _______ _______ _______ _____ _____    ______ ____
ROOT
ATOM      1  C   UNL     1      34.917 -17.630 -22.552  0.00  0.00    +0.040 C 
ENDROOT
BRANCH   1   2
ATOM      2  N   UNL     1      35.412 -17.490 -23.923  0.00  0.00    +0.389 N 
ATOM      3  H   UNL     1      36.236 -18.078 -24.049  0.00  0.00    -0.088 HD
ATOM      4  H   UNL     1      35.659 -16.517 -24.098  0.00  0.00    -0.088 HD
ATOM      5  H   UNL     1      34.685 -17.779 -24.577  0.00  0.00    -0.088 HD
ENDBRANCH   1   2
BRANCH   1   7
ATOM      6  O   UNL     1      34.961 -16.027 -20.716  0.00  0.00    -0.252 OA
ATOM      7  C   UNL     1      34.970 -16.249 -21.921  0.00  0.00    +0.297 C 
BRANCH   7   8
ATOM      8  O   UNL     1      35.060 -15.304 -22.905  0.00  0.00    -0.446 OA
ATOM      9  C   UNL     1      34.193 -14.175 -22.757  0.00  0.00    +0.256 C 
ENDBRANCH   7   8
ENDBRANCH   1   7
BRANCH   1  10
ATOM     10  C   UNL     1      35.802 -18.622 -21.785  0.00  0.00    +0.015 C 
BRANCH  10  11
ATOM     11  C   UNL     1      35.009 -19.620 -20.975  0.00  0.00    -0.024 C 
ATOM     12  C   UNL     1      35.679 -20.605 -20.268  0.00  0.00    -0.004 C 
ATOM     13  C   UNL     1      33.626 -19.532 -20.955  0.00  0.00    -0.004 C 
ATOM     14  C   UNL     1      34.948 -21.527 -19.519  0.00  0.00    -0.000 C 
ATOM     15  C   UNL     1      32.895 -20.455 -20.206  0.00  0.00    -0.000 C 
ATOM     16  C   UNL     1      33.556 -21.452 -19.488  0.00  0.00    -0.000 C 
ENDBRANCH  10  11
ENDBRANCH   1  10
TORSDOF 5
ENDMDL
MODEL 2
REMARK VINA RESULT:      -7.2      0.022      1.340
REMARK  Name = 736234
REMARK  5 active torsions:
REMARK  status: ('A' for Active; 'I' for Inactive)
REMARK    1  A    between atoms: C_1  and  N_2
REMARK    2  A    between atoms: C_1  and  C_7
REMARK    3  A    between atoms: C_1  and  C_10
REMARK    4  A    between atoms: C_7  and  O_8
REMARK    5  A    between atoms: C_10  and  C_11
REMARK                            x       y       z     vdW  Elec       q    Type
REMARK                         _______ _______ _______ _____ _____    ______ ____
ROOT
ATOM      1  C   UNL     1      34.901 -17.625 -22.568  0.00  0.00    +0.040 C 
ENDROOT
BRANCH   1   2
ATOM      2  N   UNL     1      35.391 -17.484 -23.940  0.00  0.00    +0.389 N 
ATOM      3  H   UNL     1      35.592 -18.407 -24.326  0.00  0.00    -0.088 HD
ATOM      4  H   UNL     1      36.242 -16.922 -23.941  0.00  0.00    -0.088 HD
ATOM      5  H   UNL     1      34.680 -17.025 -24.509  0.00  0.00    -0.088 HD
ENDBRANCH   1   2
BRANCH   1   7
ATOM      6  O   UNL     1      34.957 -16.027 -20.729  0.00  0.00    -0.252 OA
ATOM      7  C   UNL     1      34.960 -16.246 -21.934  0.00  0.00    +0.297 C 
BRANCH   7   8
ATOM      8  O   UNL     1      35.047 -15.300 -22.916  0.00  0.00    -0.446 OA
ATOM      9  C   UNL     1      34.198 -14.159 -22.751  0.00  0.00    +0.256 C 
ENDBRANCH   7   8
ENDBRANCH   1   7
BRANCH   1  10
ATOM     10  C   UNL     1      35.786 -18.622 -21.806  0.00  0.00    +0.015 C 
BRANCH  10  11
ATOM     11  C   UNL     1      34.994 -19.614 -20.988  0.00  0.00    -0.024 C 
ATOM     12  C   UNL     1      33.612 -19.526 -20.968  0.00  0.00    -0.004 C 
ATOM     13  C   UNL     1      35.664 -20.594 -20.273  0.00  0.00    -0.004 C 
ATOM     14  C   UNL     1      32.878 -20.443 -20.214  0.00  0.00    -0.000 C 
ATOM     15  C   UNL     1      34.931 -21.510 -19.519  0.00  0.00    -0.000 C 
ATOM     16  C   UNL     1      33.539 -21.434 -19.489  0.00  0.00    -0.000 C 
ENDBRANCH  10  11
ENDBRANCH   1  10
TORSDOF 5
ENDMDL
MODEL 3
REMARK VINA RESULT:      -7.1      1.613      2.427
REMARK  Name = 736234
REMARK  5 active torsions:
REMARK  status: ('A' for Active; 'I' for Inactive)
REMARK    1  A    between atoms: C_1  and  N_2
REMARK    2  A    between atoms: C_1  and  C_7
REMARK    3  A    between atoms: C_1  and  C_10
REMARK    4  A    between atoms: C_7  and  O_8
REMARK    5  A    between atoms: C_10  and  C_11
REMARK                            x       y       z     vdW  Elec       q    Type
REMARK                         _______ _______ _______ _____ _____    ______ ____
ROOT
ATOM      1  C   UNL     1      35.186 -17.701 -21.559  0.00  0.00    +0.040 C 
ENDROOT
BRANCH   1   2
ATOM      2  N   UNL     1      34.971 -16.630 -20.585  0.00  0.00    +0.389 N 
ATOM      3  H   UNL     1      35.835 -16.457 -20.072  0.00  0.00    -0.088 HD
ATOM      4  H   UNL     1      34.238 -16.906 -19.932  0.00  0.00    -0.088 HD
ATOM      5  H   UNL     1      34.689 -15.779 -21.072  0.00  0.00    -0.088 HD
ENDBRANCH   1   2
BRANCH   1   7
ATOM      6  O   UNL     1      35.341 -15.834 -23.120  0.00  0.00    -0.252 OA
ATOM      7  C   UNL     1      35.284 -17.042 -22.925  0.00  0.00    +0.297 C 
BRANCH   7   8
ATOM      8  O   UNL     1      35.330 -18.008 -23.891  0.00  0.00    -0.446 OA
ATOM      9  C   UNL     1      34.594 -17.721 -25.085  0.00  0.00    +0.256 C 
ENDBRANCH   7   8
ENDBRANCH   1   7
BRANCH   1  10
ATOM     10  C   UNL     1      34.011 -18.688 -21.506  0.00  0.00    +0.015 C 
BRANCH  10  11
ATOM     11  C   UNL     1      34.299 -19.907 -20.663  0.00  0.00    -0.024 C 
ATOM     12  C   UNL     1      33.245 -20.599 -20.090  0.00  0.00    -0.004 C 
ATOM     13  C   UNL     1      35.612 -20.310 -20.478  0.00  0.00    -0.004 C 
ATOM     14  C   UNL     1      33.510 -21.726 -19.311  0.00  0.00    -0.000 C 
ATOM     15  C   UNL     1      35.877 -21.437 -19.699  0.00  0.00    -0.000 C 
ATOM     16  C   UNL     1      34.826 -22.144 -19.116  0.00  0.00    -0.000 C 
ENDBRANCH  10  11
ENDBRANCH   1  10
TORSDOF 5
ENDMDL
MODEL 4
REMARK VINA RESULT:      -6.9      1.435      1.636
REMARK  Name = 736234
REMARK  5 active torsions:
REMARK  status: ('A' for Active; 'I' for Inactive)
REMARK    1  A    between atoms: C_1  and  N_2
REMARK    2  A    between atoms: C_1  and  C_7
REMARK    3  A    between atoms: C_1  and  C_10
REMARK    4  A    between atoms: C_7  and  O_8
REMARK    5  A    between atoms: C_10  and  C_11
REMARK                            x       y       z     vdW  Elec       q    Type
REMARK                         _______ _______ _______ _____ _____    ______ ____
ROOT
ATOM      1  C   UNL     1      34.566 -18.194 -23.290  0.00  0.00    +0.040 C 
ENDROOT
BRANCH   1   2
ATOM      2  N   UNL     1      34.875 -19.195 -24.313  0.00  0.00    +0.389 N 
ATOM      3  H   UNL     1      34.510 -20.102 -24.023  0.00  0.00    -0.088 HD
ATOM      4  H   UNL     1      35.885 -19.258 -24.434  0.00  0.00    -0.088 HD
ATOM      5  H   UNL     1      34.444 -18.922 -25.196  0.00  0.00    -0.088 HD
ENDBRANCH   1   2
BRANCH   1   7
ATOM      6  O   UNL     1      35.406 -15.906 -23.294  0.00  0.00    -0.252 OA
ATOM      7  C   UNL     1      34.880 -16.835 -23.893  0.00  0.00    +0.297 C 
BRANCH   7   8
ATOM      8  O   UNL     1      34.512 -16.828 -25.209  0.00  0.00    -0.446 OA
ATOM      9  C   UNL     1      33.665 -15.745 -25.607  0.00  0.00    +0.256 C 
ENDBRANCH   7   8
ENDBRANCH   1   7
BRANCH   1  10
ATOM     10  C   UNL     1      35.421 -18.455 -22.042  0.00  0.00    +0.015 C 
BRANCH  10  11
ATOM     11  C   UNL     1      34.837 -19.510 -21.133  0.00  0.00    -0.024 C 
ATOM     12  C   UNL     1      35.684 -20.409 -20.506  0.00  0.00    -0.004 C 
ATOM     13  C   UNL     1      33.465 -19.559 -20.944  0.00  0.00    -0.004 C 
ATOM     14  C   UNL     1      35.145 -21.384 -19.665  0.00  0.00    -0.000 C 
ATOM     15  C   UNL     1      32.926 -20.534 -20.104  0.00  0.00    -0.000 C 
ATOM     16  C   UNL     1      33.766 -21.446 -19.465  0.00  0.00    -0.000 C 
ENDBRANCH  10  11
ENDBRANCH   1  10
TORSDOF 5
ENDMDL
MODEL 5
REMARK VINA RESULT:      -6.7      3.527      5.698
REMARK  Name = 736234
REMARK  5 active torsions:
REMARK  status: ('A' for Active; 'I' for Inactive)
REMARK    1  A    between atoms: C_1  and  N_2
REMARK    2  A    between atoms: C_1  and  C_7
REMARK    3  A    between atoms: C_1  and  C_10
REMARK    4  A    between atoms: C_7  and  O_8
REMARK    5  A    between atoms: C_10  and  C_11
REMARK                            x       y       z     vdW  Elec       q    Type
REMARK                         _______ _______ _______ _____ _____    ______ ____
ROOT
ATOM      1  C   UNL     1      33.819 -20.973 -20.377  0.00  0.00    +0.040 C 
ENDROOT
BRANCH   1   2
ATOM      2  N   UNL     1      32.622 -20.224 -19.990  0.00  0.00    +0.389 N 
ATOM      3  H   UNL     1      32.392 -20.429 -19.018  0.00  0.00    -0.088 HD
ATOM      4  H   UNL     1      31.842 -20.495 -20.589  0.00  0.00    -0.088 HD
ATOM      5  H   UNL     1      32.799 -19.225 -20.095  0.00  0.00    -0.088 HD
ENDBRANCH   1   2
BRANCH   1   7
ATOM      6  O   UNL     1      35.057 -22.643 -19.104  0.00  0.00    -0.252 OA
ATOM      7  C   UNL     1      33.998 -22.079 -19.351  0.00  0.00    +0.297 C 
BRANCH   7   8
ATOM      8  O   UNL     1      32.803 -22.321 -18.732  0.00  0.00    -0.446 OA
ATOM      9  C   UNL     1      32.881 -23.051 -17.504  0.00  0.00    +0.256 C 
ENDBRANCH   7   8
ENDBRANCH   1   7
BRANCH   1  10
ATOM     10  C   UNL     1      35.032 -20.032 -20.392  0.00  0.00    +0.015 C 
BRANCH  10  11
ATOM     11  C   UNL     1      34.982 -19.019 -21.511  0.00  0.00    -0.024 C 
ATOM     12  C   UNL     1      34.850 -19.457 -22.818  0.00  0.00    -0.004 C 
ATOM     13  C   UNL     1      35.069 -17.669 -21.208  0.00  0.00    -0.004 C 
ATOM     14  C   UNL     1      34.803 -18.522 -23.852  0.00  0.00    -0.000 C 
ATOM     15  C   UNL     1      35.023 -16.734 -22.242  0.00  0.00    -0.000 C 
ATOM     16  C   UNL     1      34.890 -17.160 -23.564  0.00  0.00    -0.000 C 
ENDBRANCH  10  11
ENDBRANCH   1  10
TORSDOF 5
ENDMDL
MODEL 6
REMARK VINA RESULT:      -6.6      4.833      6.503
REMARK  Name = 736234
REMARK  5 active torsions:
REMARK  status: ('A' for Active; 'I' for Inactive)
REMARK    1  A    between atoms: C_1  and  N_2
REMARK    2  A    between atoms: C_1  and  C_7
REMARK    3  A    between atoms: C_1  and  C_10
REMARK    4  A    between atoms: C_7  and  O_8
REMARK    5  A    between atoms: C_10  and  C_11
REMARK                            x       y       z     vdW  Elec       q    Type
REMARK                         _______ _______ _______ _____ _____    ______ ____
ROOT
ATOM      1  C   UNL     1      36.524 -21.488 -17.269  0.00  0.00    +0.040 C 
ENDROOT
BRANCH   1   2
ATOM      2  N   UNL     1      37.558 -20.468 -17.085  0.00  0.00    +0.389 N 
ATOM      3  H   UNL     1      37.196 -19.720 -16.493  0.00  0.00    -0.088 HD
ATOM      4  H   UNL     1      37.824 -20.086 -17.992  0.00  0.00    -0.088 HD
ATOM      5  H   UNL     1      38.374 -20.888 -16.640  0.00  0.00    -0.088 HD
ENDBRANCH   1   2
BRANCH   1   7
ATOM      6  O   UNL     1      37.986 -22.805 -15.831  0.00  0.00    -0.252 OA
ATOM      7  C   UNL     1      36.907 -22.669 -16.393  0.00  0.00    +0.297 C 
BRANCH   7   8
ATOM      8  O   UNL     1      35.851 -23.532 -16.310  0.00  0.00    -0.446 OA
ATOM      9  C   UNL     1      34.706 -23.041 -15.605  0.00  0.00    +0.256 C 
ENDBRANCH   7   8
ENDBRANCH   1   7
BRANCH   1  10
ATOM     10  C   UNL     1      36.461 -21.895 -18.748  0.00  0.00    +0.015 C 
BRANCH  10  11
ATOM     11  C   UNL     1      35.344 -21.215 -19.503  0.00  0.00    -0.024 C 
ATOM     12  C   UNL     1      34.031 -21.563 -19.231  0.00  0.00    -0.004 C 
ATOM     13  C   UNL     1      35.653 -20.256 -20.454  0.00  0.00    -0.004 C 
ATOM     14  C   UNL     1      32.998 -20.936 -19.928  0.00  0.00    -0.000 C 
ATOM     15  C   UNL     1      34.620 -19.628 -21.151  0.00  0.00    -0.000 C 
ATOM     16  C   UNL     1      33.293 -19.968 -20.888  0.00  0.00    -0.000 C 
ENDBRANCH  10  11
ENDBRANCH   1  10
TORSDOF 5
ENDMDL
MODEL 7
REMARK VINA RESULT:      -6.5      8.281      9.390
REMARK  Name = 736234
REMARK  5 active torsions:
REMARK  status: ('A' for Active; 'I' for Inactive)
REMARK    1  A    between atoms: C_1  and  N_2
REMARK    2  A    between atoms: C_1  and  C_7
REMARK    3  A    between atoms: C_1  and  C_10
REMARK    4  A    between atoms: C_7  and  O_8
REMARK    5  A    between atoms: C_10  and  C_11
REMARK                            x       y       z     vdW  Elec       q    Type
REMARK                         _______ _______ _______ _____ _____    ______ ____
ROOT
ATOM      1  C   UNL     1      28.378 -23.195 -16.046  0.00  0.00    +0.040 C 
ENDROOT
BRANCH   1   2
ATOM      2  N   UNL     1      28.150 -24.400 -16.845  0.00  0.00    +0.389 N 
ATOM      3  H   UNL     1      27.844 -25.159 -16.236  0.00  0.00    -0.088 HD
ATOM      4  H   UNL     1      29.015 -24.668 -17.313  0.00  0.00    -0.088 HD
ATOM      5  H   UNL     1      27.430 -24.213 -17.543  0.00  0.00    -0.088 HD
ENDBRANCH   1   2
BRANCH   1   7
ATOM      6  O   UNL     1      26.203 -22.290 -15.420  0.00  0.00    -0.252 OA
ATOM      7  C   UNL     1      27.145 -22.321 -16.202  0.00  0.00    +0.297 C 
BRANCH   7   8
ATOM      8  O   UNL     1      27.271 -21.560 -17.331  0.00  0.00    -0.446 OA
ATOM      9  C   UNL     1      26.041 -21.164 -17.946  0.00  0.00    +0.256 C 
ENDBRANCH   7   8
ENDBRANCH   1   7
BRANCH   1  10
ATOM     10  C   UNL     1      29.635 -22.473 -16.553  0.00  0.00    +0.015 C 
BRANCH  10  11
ATOM     11  C   UNL     1      30.891 -22.888 -15.825  0.00  0.00    -0.024 C 
ATOM     12  C   UNL     1      30.866 -23.011 -14.445  0.00  0.00    -0.004 C 
ATOM     13  C   UNL     1      32.045 -23.137 -16.550  0.00  0.00    -0.004 C 
ATOM     14  C   UNL     1      32.027 -23.394 -13.772  0.00  0.00    -0.000 C 
ATOM     15  C   UNL     1      33.206 -23.520 -15.877  0.00  0.00    -0.000 C 
ATOM     16  C   UNL     1      33.196 -23.648 -14.488  0.00  0.00    -0.000 C 
ENDBRANCH  10  11
ENDBRANCH   1  10
TORSDOF 5
ENDMDL
MODEL 8
REMARK VINA RESULT:      -6.5      2.970      5.369
REMARK  Name = 736234
REMARK  5 active torsions:
REMARK  status: ('A' for Active; 'I' for Inactive)
REMARK    1  A    between atoms: C_1  and  N_2
REMARK    2  A    between atoms: C_1  and  C_7
REMARK    3  A    between atoms: C_1  and  C_10
REMARK    4  A    between atoms: C_7  and  O_8
REMARK    5  A    between atoms: C_10  and  C_11
REMARK                            x       y       z     vdW  Elec       q    Type
REMARK                         _______ _______ _______ _____ _____    ______ ____
ROOT
ATOM      1  C   UNL     1      33.937 -20.238 -20.840  0.00  0.00    +0.040 C 
ENDROOT
BRANCH   1   2
ATOM      2  N   UNL     1      32.560 -19.935 -20.448  0.00  0.00    +0.389 N 
ATOM      3  H   UNL     1      32.012 -20.795 -20.439  0.00  0.00    -0.088 HD
ATOM      4  H   UNL     1      32.153 -19.280 -21.115  0.00  0.00    -0.088 HD
ATOM      5  H   UNL     1      32.556 -19.519 -19.517  0.00  0.00    -0.088 HD
ENDBRANCH   1   2
BRANCH   1   7
ATOM      6  O   UNL     1      33.944 -22.072 -19.234  0.00  0.00    -0.252 OA
ATOM      7  C   UNL     1      34.521 -21.125 -19.753  0.00  0.00    +0.297 C 
BRANCH   7   8
ATOM      8  O   UNL     1      35.795 -20.716 -19.471  0.00  0.00    -0.446 OA
ATOM      9  C   UNL     1      36.525 -21.553 -18.569  0.00  0.00    +0.256 C 
ENDBRANCH   7   8
ENDBRANCH   1   7
BRANCH   1  10
ATOM     10  C   UNL     1      34.733 -18.932 -20.974  0.00  0.00    +0.015 C 
BRANCH  10  11
ATOM     11  C   UNL     1      34.726 -18.375 -22.378  0.00  0.00    -0.024 C 
ATOM     12  C   UNL     1      34.852 -17.009 -22.565  0.00  0.00    -0.004 C 
ATOM     13  C   UNL     1      34.593 -19.241 -23.451  0.00  0.00    -0.004 C 
ATOM     14  C   UNL     1      34.847 -16.492 -23.862  0.00  0.00    -0.000 C 
ATOM     15  C   UNL     1      34.587 -18.725 -24.748  0.00  0.00    -0.000 C 
ATOM     16  C   UNL     1      34.714 -17.351 -24.952  0.00  0.00    -0.000 C 
ENDBRANCH  10  11
ENDBRANCH   1  10
TORSDOF 5
ENDMDL
MODEL 9
REMARK VINA RESULT:      -6.4      5.115      7.347
REMARK  Name = 736234
REMARK  5 active torsions:
REMARK  status: ('A' for Active; 'I' for Inactive)
REMARK    1  A    between atoms: C_1  and  N_2
REMARK    2  A    between atoms: C_1  and  C_7
REMARK    3  A    between atoms: C_1  and  C_10
REMARK    4  A    between atoms: C_7  and  O_8
REMARK    5  A    between atoms: C_10  and  C_11
REMARK                            x       y       z     vdW  Elec       q    Type
REMARK                         _______ _______ _______ _____ _____    ______ ____
ROOT
ATOM      1  C   UNL     1      33.506 -22.912 -16.938  0.00  0.00    +0.040 C 
ENDROOT
BRANCH   1   2
ATOM      2  N   UNL     1      34.266 -23.879 -16.144  0.00  0.00    +0.389 N 
ATOM      3  H   UNL     1      33.672 -24.678 -15.922  0.00  0.00    -0.088 HD
ATOM      4  H   UNL     1      34.579 -23.438 -15.280  0.00  0.00    -0.088 HD
ATOM      5  H   UNL     1      35.076 -24.195 -16.677  0.00  0.00    -0.088 HD
ENDBRANCH   1   2
BRANCH   1   7
ATOM      6  O   UNL     1      31.097 -22.595 -17.141  0.00  0.00    -0.252 OA
ATOM      7  C   UNL     1      32.052 -23.038 -16.515  0.00  0.00    +0.297 C 
BRANCH   7   8
ATOM      8  O   UNL     1      31.980 -23.747 -15.348  0.00  0.00    -0.446 OA
ATOM      9  C   UNL     1      31.195 -23.149 -14.311  0.00  0.00    +0.256 C 
ENDBRANCH   7   8
ENDBRANCH   1   7
BRANCH   1  10
ATOM     10  C   UNL     1      33.675 -23.227 -18.431  0.00  0.00    +0.015 C 
BRANCH  10  11
ATOM     11  C   UNL     1      34.113 -22.032 -19.243  0.00  0.00    -0.024 C 
ATOM     12  C   UNL     1      33.154 -21.196 -19.790  0.00  0.00    -0.004 C 
ATOM     13  C   UNL     1      35.466 -21.794 -19.426  0.00  0.00    -0.004 C 
ATOM     14  C   UNL     1      33.557 -20.091 -20.541  0.00  0.00    -0.000 C 
ATOM     15  C   UNL     1      35.869 -20.689 -20.177  0.00  0.00    -0.000 C 
ATOM     16  C   UNL     1      34.915 -19.838 -20.734  0.00  0.00    -0.000 C 
ENDBRANCH  10  11
ENDBRANCH   1  10
TORSDOF 5
ENDMDL
