MODEL 1
REMARK VINA RESULT:      -8.4      0.000      0.000
REMARK  Name = 21138
REMARK  7 active torsions:
REMARK  status: ('A' for Active; 'I' for Inactive)
REMARK    1  A    between atoms: O_1  and  C_2
REMARK    2  A    between atoms: O_1  and  C_12
REMARK    3  A    between atoms: C_12  and  C_13
REMARK    4  A    between atoms: C_13  and  O_14
REMARK    5  A    between atoms: C_13  and  C_16
REMARK    6  A    between atoms: C_16  and  N_17
REMARK    7  A    between atoms: N_17  and  C_20
REMARK                            x       y       z     vdW  Elec       q    Type
REMARK                         _______ _______ _______ _____ _____    ______ ____
ROOT
ATOM      1  O   UNL     1      34.333 -18.131 -22.578  0.00  0.00    -0.473 OA
ENDROOT
BRANCH   1   2
ATOM      2  C   UNL     1      35.138 -18.869 -21.757  0.00  0.00    +0.139 C 
ATOM      3  C   UNL     1      34.609 -19.855 -20.909  0.00  0.00    +0.034 C 
ATOM      4  C   UNL     1      35.484 -20.593 -20.077  0.00  0.00    +0.003 C 
ATOM      5  C   UNL     1      36.509 -18.614 -21.785  0.00  0.00    +0.037 C 
ATOM      6  C   UNL     1      33.231 -20.125 -20.869  0.00  0.00    +0.003 C 
ATOM      7  C   UNL     1      36.862 -20.325 -20.118  0.00  0.00    +0.000 C 
ATOM      8  C   UNL     1      37.370 -19.341 -20.967  0.00  0.00    +0.003 C 
ATOM      9  C   UNL     1      34.955 -21.580 -19.228  0.00  0.00    +0.000 C 
ATOM     10  C   UNL     1      32.724 -21.109 -20.019  0.00  0.00    +0.000 C 
ATOM     11  C   UNL     1      33.584 -21.835 -19.200  0.00  0.00    +0.000 C 
ENDBRANCH   1   2
BRANCH   1  12
ATOM     12  C   UNL     1      34.625 -18.168 -23.972  0.00  0.00    +0.232 C 
BRANCH  12  13
ATOM     13  C   UNL     1      34.257 -16.820 -24.589  0.00  0.00    +0.133 C 
BRANCH  13  14
ATOM     14  O   UNL     1      35.018 -16.646 -25.787  0.00  0.00    -0.383 OA
ATOM     15  H   UNL     1      35.472 -17.475 -26.005  0.00  0.00    +0.210 HD
ENDBRANCH  13  14
BRANCH  13  16
ATOM     16  C   UNL     1      34.539 -15.633 -23.665  0.00  0.00    -0.048 C 
BRANCH  16  17
ATOM     17  N   UNL     1      33.433 -15.373 -22.755  0.00  0.00    +0.387 N 
ATOM     18  H   UNL     1      33.093 -16.257 -22.380  0.00  0.00    -0.084 HD
ATOM     19  H   UNL     1      32.693 -14.895 -23.270  0.00  0.00    -0.084 HD
BRANCH  17  20
ATOM     20  C   UNL     1      33.856 -14.519 -21.652  0.00  0.00    -0.062 C 
ATOM     21  C   UNL     1      34.530 -15.354 -20.567  0.00  0.00    -0.023 C 
ATOM     22  C   UNL     1      32.649 -13.770 -21.098  0.00  0.00    -0.023 C 
ENDBRANCH  17  20
ENDBRANCH  16  17
ENDBRANCH  13  16
ENDBRANCH  12  13
ENDBRANCH   1  12
TORSDOF 7
ENDMDL
MODEL 2
REMARK VINA RESULT:      -8.3      1.465      2.718
REMARK  Name = 21138
REMARK  7 active torsions:
REMARK  status: ('A' for Active; 'I' for Inactive)
REMARK    1  A    between atoms: O_1  and  C_2
REMARK    2  A    between atoms: O_1  and  C_12
REMARK    3  A    between atoms: C_12  and  C_13
REMARK    4  A    between atoms: C_13  and  O_14
REMARK    5  A    between atoms: C_13  and  C_16
REMARK    6  A    between atoms: C_16  and  N_17
REMARK    7  A    between atoms: N_17  and  C_20
REMARK                            x       y       z     vdW  Elec       q    Type
REMARK                         _______ _______ _______ _____ _____    ______ ____
ROOT
ATOM      1  O   UNL     1      34.229 -18.023 -21.857  0.00  0.00    -0.473 OA
ENDROOT
BRANCH   1   2
ATOM      2  C   UNL     1      35.044 -18.917 -21.225  0.00  0.00    +0.139 C 
ATOM      3  C   UNL     1      34.519 -19.990 -20.487  0.00  0.00    +0.034 C 
ATOM      4  C   UNL     1      35.407 -20.890 -19.850  0.00  0.00    +0.003 C 
ATOM      5  C   UNL     1      36.423 -18.734 -21.334  0.00  0.00    +0.037 C 
ATOM      6  C   UNL     1      33.134 -20.189 -20.367  0.00  0.00    +0.003 C 
ATOM      7  C   UNL     1      36.792 -20.692 -19.970  0.00  0.00    +0.000 C 
ATOM      8  C   UNL     1      37.295 -19.621 -20.708  0.00  0.00    +0.003 C 
ATOM      9  C   UNL     1      34.882 -21.964 -19.111  0.00  0.00    +0.000 C 
ATOM     10  C   UNL     1      32.632 -21.261 -19.628  0.00  0.00    +0.000 C 
ATOM     11  C   UNL     1      33.503 -22.147 -19.002  0.00  0.00    +0.000 C 
ENDBRANCH   1   2
BRANCH   1  12
ATOM     12  C   UNL     1      33.880 -16.845 -21.136  0.00  0.00    +0.232 C 
BRANCH  12  13
ATOM     13  C   UNL     1      34.707 -15.677 -21.667  0.00  0.00    +0.133 C 
BRANCH  13  14
ATOM     14  O   UNL     1      34.270 -14.479 -21.021  0.00  0.00    -0.383 OA
ATOM     15  H   UNL     1      34.591 -14.470 -20.105  0.00  0.00    +0.210 HD
ENDBRANCH  13  14
BRANCH  13  16
ATOM     16  C   UNL     1      34.578 -15.480 -23.179  0.00  0.00    -0.048 C 
BRANCH  16  17
ATOM     17  N   UNL     1      35.435 -16.391 -23.925  0.00  0.00    +0.387 N 
ATOM     18  H   UNL     1      35.595 -17.231 -23.369  0.00  0.00    -0.084 HD
ATOM     19  H   UNL     1      36.318 -15.920 -24.122  0.00  0.00    -0.084 HD
BRANCH  17  20
ATOM     20  C   UNL     1      34.817 -16.769 -25.190  0.00  0.00    -0.062 C 
ATOM     21  C   UNL     1      33.641 -15.848 -25.500  0.00  0.00    -0.023 C 
ATOM     22  C   UNL     1      34.371 -18.226 -25.122  0.00  0.00    -0.023 C 
ENDBRANCH  17  20
ENDBRANCH  16  17
ENDBRANCH  13  16
ENDBRANCH  12  13
ENDBRANCH   1  12
TORSDOF 7
ENDMDL
MODEL 3
REMARK VINA RESULT:      -8.2      2.974      4.806
REMARK  Name = 21138
REMARK  7 active torsions:
REMARK  status: ('A' for Active; 'I' for Inactive)
REMARK    1  A    between atoms: O_1  and  C_2
REMARK    2  A    between atoms: O_1  and  C_12
REMARK    3  A    between atoms: C_12  and  C_13
REMARK    4  A    between atoms: C_13  and  O_14
REMARK    5  A    between atoms: C_13  and  C_16
REMARK    6  A    between atoms: C_16  and  N_17
REMARK    7  A    between atoms: N_17  and  C_20
REMARK                            x       y       z     vdW  Elec       q    Type
REMARK                         _______ _______ _______ _____ _____    ______ ____
ROOT
ATOM      1  O   UNL     1      34.358 -15.810 -25.792  0.00  0.00    -0.473 OA
ENDROOT
BRANCH   1   2
ATOM      2  C   UNL     1      34.488 -16.759 -24.819  0.00  0.00    +0.139 C 
ATOM      3  C   UNL     1      34.550 -16.409 -23.460  0.00  0.00    +0.034 C 
ATOM      4  C   UNL     1      34.685 -17.430 -22.489  0.00  0.00    +0.003 C 
ATOM      5  C   UNL     1      34.558 -18.095 -25.214  0.00  0.00    +0.037 C 
ATOM      6  C   UNL     1      34.481 -15.069 -23.045  0.00  0.00    +0.003 C 
ATOM      7  C   UNL     1      34.754 -18.769 -22.904  0.00  0.00    +0.000 C 
ATOM      8  C   UNL     1      34.691 -19.099 -24.258  0.00  0.00    +0.003 C 
ATOM      9  C   UNL     1      34.748 -17.080 -21.130  0.00  0.00    +0.000 C 
ATOM     10  C   UNL     1      34.545 -14.741 -21.690  0.00  0.00    +0.000 C 
ATOM     11  C   UNL     1      34.678 -15.744 -20.734  0.00  0.00    +0.000 C 
ENDBRANCH   1   2
BRANCH   1  12
ATOM     12  C   UNL     1      33.037 -15.532 -26.251  0.00  0.00    +0.232 C 
BRANCH  12  13
ATOM     13  C   UNL     1      32.945 -14.055 -26.623  0.00  0.00    +0.133 C 
BRANCH  13  14
ATOM     14  O   UNL     1      33.802 -13.813 -27.742  0.00  0.00    -0.383 OA
ATOM     15  H   UNL     1      33.578 -12.958 -28.142  0.00  0.00    +0.210 HD
ENDBRANCH  13  14
BRANCH  13  16
ATOM     16  C   UNL     1      33.362 -13.116 -25.489  0.00  0.00    -0.048 C 
BRANCH  16  17
ATOM     17  N   UNL     1      33.680 -11.780 -25.973  0.00  0.00    +0.387 N 
ATOM     18  H   UNL     1      32.819 -11.239 -26.051  0.00  0.00    -0.084 HD
ATOM     19  H   UNL     1      34.134 -11.863 -26.883  0.00  0.00    -0.084 HD
BRANCH  17  20
ATOM     20  C   UNL     1      34.589 -11.098 -25.060  0.00  0.00    -0.062 C 
ATOM     21  C   UNL     1      33.804 -10.225 -24.086  0.00  0.00    -0.023 C 
ATOM     22  C   UNL     1      35.584 -10.266 -25.862  0.00  0.00    -0.023 C 
ENDBRANCH  17  20
ENDBRANCH  16  17
ENDBRANCH  13  16
ENDBRANCH  12  13
ENDBRANCH   1  12
TORSDOF 7
ENDMDL
MODEL 4
REMARK VINA RESULT:      -8.1      5.153      8.707
REMARK  Name = 21138
REMARK  7 active torsions:
REMARK  status: ('A' for Active; 'I' for Inactive)
REMARK    1  A    between atoms: O_1  and  C_2
REMARK    2  A    between atoms: O_1  and  C_12
REMARK    3  A    between atoms: C_12  and  C_13
REMARK    4  A    between atoms: C_13  and  O_14
REMARK    5  A    between atoms: C_13  and  C_16
REMARK    6  A    between atoms: C_16  and  N_17
REMARK    7  A    between atoms: N_17  and  C_20
REMARK                            x       y       z     vdW  Elec       q    Type
REMARK                         _______ _______ _______ _____ _____    ______ ____
ROOT
ATOM      1  O   UNL     1      36.545 -22.255 -18.174  0.00  0.00    -0.473 OA
ENDROOT
BRANCH   1   2
ATOM      2  C   UNL     1      35.463 -21.754 -18.841  0.00  0.00    +0.139 C 
ATOM      3  C   UNL     1      35.602 -20.735 -19.797  0.00  0.00    +0.034 C 
ATOM      4  C   UNL     1      34.451 -20.249 -20.462  0.00  0.00    +0.003 C 
ATOM      5  C   UNL     1      34.208 -22.287 -18.544  0.00  0.00    +0.037 C 
ATOM      6  C   UNL     1      36.858 -20.188 -20.108  0.00  0.00    +0.003 C 
ATOM      7  C   UNL     1      33.196 -20.796 -20.152  0.00  0.00    +0.000 C 
ATOM      8  C   UNL     1      33.076 -21.809 -19.199  0.00  0.00    +0.003 C 
ATOM      9  C   UNL     1      34.590 -19.229 -21.418  0.00  0.00    +0.000 C 
ATOM     10  C   UNL     1      36.976 -19.175 -21.061  0.00  0.00    +0.000 C 
ATOM     11  C   UNL     1      35.845 -18.697 -21.714  0.00  0.00    +0.000 C 
ENDBRANCH   1   2
BRANCH   1  12
ATOM     12  C   UNL     1      36.755 -21.791 -16.843  0.00  0.00    +0.232 C 
BRANCH  12  13
ATOM     13  C   UNL     1      36.362 -22.896 -15.867  0.00  0.00    +0.133 C 
BRANCH  13  14
ATOM     14  O   UNL     1      35.277 -22.427 -15.062  0.00  0.00    -0.383 OA
ATOM     15  H   UNL     1      35.347 -22.806 -14.172  0.00  0.00    +0.210 HD
ENDBRANCH  13  14
BRANCH  13  16
ATOM     16  C   UNL     1      37.501 -23.317 -14.936  0.00  0.00    -0.048 C 
BRANCH  16  17
ATOM     17  N   UNL     1      38.271 -24.427 -15.481  0.00  0.00    +0.387 N 
ATOM     18  H   UNL     1      39.070 -24.059 -15.995  0.00  0.00    -0.084 HD
ATOM     19  H   UNL     1      37.667 -24.969 -16.099  0.00  0.00    -0.084 HD
BRANCH  17  20
ATOM     20  C   UNL     1      38.751 -25.300 -14.417  0.00  0.00    -0.062 C 
ATOM     21  C   UNL     1      40.190 -25.725 -14.691  0.00  0.00    -0.023 C 
ATOM     22  C   UNL     1      37.832 -26.512 -14.301  0.00  0.00    -0.023 C 
ENDBRANCH  17  20
ENDBRANCH  16  17
ENDBRANCH  13  16
ENDBRANCH  12  13
ENDBRANCH   1  12
TORSDOF 7
ENDMDL
MODEL 5
REMARK VINA RESULT:      -8.0      4.473      7.888
REMARK  Name = 21138
REMARK  7 active torsions:
REMARK  status: ('A' for Active; 'I' for Inactive)
REMARK    1  A    between atoms: O_1  and  C_2
REMARK    2  A    between atoms: O_1  and  C_12
REMARK    3  A    between atoms: C_12  and  C_13
REMARK    4  A    between atoms: C_13  and  O_14
REMARK    5  A    between atoms: C_13  and  C_16
REMARK    6  A    between atoms: C_16  and  N_17
REMARK    7  A    between atoms: N_17  and  C_20
REMARK                            x       y       z     vdW  Elec       q    Type
REMARK                         _______ _______ _______ _____ _____    ______ ____
ROOT
ATOM      1  O   UNL     1      36.607 -22.276 -18.136  0.00  0.00    -0.473 OA
ENDROOT
BRANCH   1   2
ATOM      2  C   UNL     1      35.502 -21.803 -18.785  0.00  0.00    +0.139 C 
ATOM      3  C   UNL     1      35.600 -20.786 -19.748  0.00  0.00    +0.034 C 
ATOM      4  C   UNL     1      34.426 -20.330 -20.394  0.00  0.00    +0.003 C 
ATOM      5  C   UNL     1      34.266 -22.363 -18.463  0.00  0.00    +0.037 C 
ATOM      6  C   UNL     1      36.837 -20.212 -20.085  0.00  0.00    +0.003 C 
ATOM      7  C   UNL     1      33.189 -20.904 -20.058  0.00  0.00    +0.000 C 
ATOM      8  C   UNL     1      33.111 -21.915 -19.099  0.00  0.00    +0.003 C 
ATOM      9  C   UNL     1      34.523 -19.312 -21.357  0.00  0.00    +0.000 C 
ATOM     10  C   UNL     1      36.914 -19.202 -21.045  0.00  0.00    +0.000 C 
ATOM     11  C   UNL     1      35.760 -18.752 -21.679  0.00  0.00    +0.000 C 
ENDBRANCH   1   2
BRANCH   1  12
ATOM     12  C   UNL     1      37.075 -21.520 -17.023  0.00  0.00    +0.232 C 
BRANCH  12  13
ATOM     13  C   UNL     1      37.286 -22.463 -15.840  0.00  0.00    +0.133 C 
BRANCH  13  14
ATOM     14  O   UNL     1      38.475 -23.223 -16.071  0.00  0.00    -0.383 OA
ATOM     15  H   UNL     1      38.662 -23.773 -15.295  0.00  0.00    +0.210 HD
ENDBRANCH  13  14
BRANCH  13  16
ATOM     16  C   UNL     1      36.127 -23.440 -15.629  0.00  0.00    -0.048 C 
BRANCH  16  17
ATOM     17  N   UNL     1      35.015 -22.824 -14.919  0.00  0.00    +0.387 N 
ATOM     18  H   UNL     1      34.664 -22.038 -15.464  0.00  0.00    -0.084 HD
ATOM     19  H   UNL     1      35.346 -22.507 -14.007  0.00  0.00    -0.084 HD
BRANCH  17  20
ATOM     20  C   UNL     1      33.935 -23.781 -14.714  0.00  0.00    -0.062 C 
ATOM     21  C   UNL     1      32.606 -23.183 -15.166  0.00  0.00    -0.023 C 
ATOM     22  C   UNL     1      33.883 -24.181 -13.243  0.00  0.00    -0.023 C 
ENDBRANCH  17  20
ENDBRANCH  16  17
ENDBRANCH  13  16
ENDBRANCH  12  13
ENDBRANCH   1  12
TORSDOF 7
ENDMDL
MODEL 6
REMARK VINA RESULT:      -8.0      2.738      4.351
REMARK  Name = 21138
REMARK  7 active torsions:
REMARK  status: ('A' for Active; 'I' for Inactive)
REMARK    1  A    between atoms: O_1  and  C_2
REMARK    2  A    between atoms: O_1  and  C_12
REMARK    3  A    between atoms: C_12  and  C_13
REMARK    4  A    between atoms: C_13  and  O_14
REMARK    5  A    between atoms: C_13  and  C_16
REMARK    6  A    between atoms: C_16  and  N_17
REMARK    7  A    between atoms: N_17  and  C_20
REMARK                            x       y       z     vdW  Elec       q    Type
REMARK                         _______ _______ _______ _____ _____    ______ ____
ROOT
ATOM      1  O   UNL     1      34.159 -15.002 -24.561  0.00  0.00    -0.473 OA
ENDROOT
BRANCH   1   2
ATOM      2  C   UNL     1      34.341 -15.405 -23.269  0.00  0.00    +0.139 C 
ATOM      3  C   UNL     1      34.588 -16.750 -22.951  0.00  0.00    +0.034 C 
ATOM      4  C   UNL     1      34.770 -17.117 -21.597  0.00  0.00    +0.003 C 
ATOM      5  C   UNL     1      34.275 -14.436 -22.267  0.00  0.00    +0.037 C 
ATOM      6  C   UNL     1      34.658 -17.738 -23.947  0.00  0.00    +0.003 C 
ATOM      7  C   UNL     1      34.701 -16.131 -20.601  0.00  0.00    +0.000 C 
ATOM      8  C   UNL     1      34.455 -14.798 -20.935  0.00  0.00    +0.003 C 
ATOM      9  C   UNL     1      35.017 -18.463 -21.278  0.00  0.00    +0.000 C 
ATOM     10  C   UNL     1      34.904 -19.070 -23.611  0.00  0.00    +0.000 C 
ATOM     11  C   UNL     1      35.082 -19.432 -22.280  0.00  0.00    +0.000 C 
ENDBRANCH   1   2
BRANCH   1  12
ATOM     12  C   UNL     1      32.915 -14.381 -24.875  0.00  0.00    +0.232 C 
BRANCH  12  13
ATOM     13  C   UNL     1      33.033 -13.702 -26.238  0.00  0.00    +0.133 C 
BRANCH  13  14
ATOM     14  O   UNL     1      33.705 -14.592 -27.133  0.00  0.00    -0.383 OA
ATOM     15  H   UNL     1      33.456 -15.507 -26.927  0.00  0.00    +0.210 HD
ENDBRANCH  13  14
BRANCH  13  16
ATOM     16  C   UNL     1      33.813 -12.387 -26.194  0.00  0.00    -0.048 C 
BRANCH  16  17
ATOM     17  N   UNL     1      34.176 -12.010 -24.835  0.00  0.00    +0.387 N 
ATOM     18  H   UNL     1      35.190 -12.050 -24.736  0.00  0.00    -0.084 HD
ATOM     19  H   UNL     1      33.728 -12.658 -24.187  0.00  0.00    -0.084 HD
BRANCH  17  20
ATOM     20  C   UNL     1      33.721 -10.659 -24.530  0.00  0.00    -0.062 C 
ATOM     21  C   UNL     1      34.913  -9.714 -24.414  0.00  0.00    -0.023 C 
ATOM     22  C   UNL     1      32.907 -10.677 -23.241  0.00  0.00    -0.023 C 
ENDBRANCH  17  20
ENDBRANCH  16  17
ENDBRANCH  13  16
ENDBRANCH  12  13
ENDBRANCH   1  12
TORSDOF 7
ENDMDL
MODEL 7
REMARK VINA RESULT:      -7.9      3.747      5.659
REMARK  Name = 21138
REMARK  7 active torsions:
REMARK  status: ('A' for Active; 'I' for Inactive)
REMARK    1  A    between atoms: O_1  and  C_2
REMARK    2  A    between atoms: O_1  and  C_12
REMARK    3  A    between atoms: C_12  and  C_13
REMARK    4  A    between atoms: C_13  and  O_14
REMARK    5  A    between atoms: C_13  and  C_16
REMARK    6  A    between atoms: C_16  and  N_17
REMARK    7  A    between atoms: N_17  and  C_20
REMARK                            x       y       z     vdW  Elec       q    Type
REMARK                         _______ _______ _______ _____ _____    ______ ____
ROOT
ATOM      1  O   UNL     1      33.908 -13.775 -23.759  0.00  0.00    -0.473 OA
ENDROOT
BRANCH   1   2
ATOM      2  C   UNL     1      34.217 -14.796 -22.907  0.00  0.00    +0.139 C 
ATOM      3  C   UNL     1      34.423 -16.103 -23.377  0.00  0.00    +0.034 C 
ATOM      4  C   UNL     1      34.741 -17.128 -22.453  0.00  0.00    +0.003 C 
ATOM      5  C   UNL     1      34.323 -14.503 -21.547  0.00  0.00    +0.037 C 
ATOM      6  C   UNL     1      34.320 -16.416 -24.742  0.00  0.00    +0.003 C 
ATOM      7  C   UNL     1      34.844 -16.815 -21.088  0.00  0.00    +0.000 C 
ATOM      8  C   UNL     1      34.637 -15.511 -20.639  0.00  0.00    +0.003 C 
ATOM      9  C   UNL     1      34.946 -18.436 -22.922  0.00  0.00    +0.000 C 
ATOM     10  C   UNL     1      34.528 -17.722 -25.190  0.00  0.00    +0.000 C 
ATOM     11  C   UNL     1      34.840 -18.729 -24.282  0.00  0.00    +0.000 C 
ENDBRANCH   1   2
BRANCH   1  12
ATOM     12  C   UNL     1      32.912 -12.852 -23.328  0.00  0.00    +0.232 C 
BRANCH  12  13
ATOM     13  C   UNL     1      33.228 -11.477 -23.911  0.00  0.00    +0.133 C 
BRANCH  13  14
ATOM     14  O   UNL     1      34.647 -11.350 -24.033  0.00  0.00    -0.383 OA
ATOM     15  H   UNL     1      34.932 -10.511 -23.637  0.00  0.00    +0.210 HD
ENDBRANCH  13  14
BRANCH  13  16
ATOM     16  C   UNL     1      32.717 -10.321 -23.048  0.00  0.00    -0.048 C 
BRANCH  16  17
ATOM     17  N   UNL     1      32.861  -9.035 -23.715  0.00  0.00    +0.387 N 
ATOM     18  H   UNL     1      31.939  -8.684 -23.970  0.00  0.00    -0.084 HD
ATOM     19  H   UNL     1      33.437  -9.162 -24.547  0.00  0.00    -0.084 HD
BRANCH  17  20
ATOM     20  C   UNL     1      33.514  -8.066 -22.843  0.00  0.00    -0.062 C 
ATOM     21  C   UNL     1      32.593  -6.877 -22.590  0.00  0.00    -0.023 C 
ATOM     22  C   UNL     1      34.827  -7.618 -23.475  0.00  0.00    -0.023 C 
ENDBRANCH  17  20
ENDBRANCH  16  17
ENDBRANCH  13  16
ENDBRANCH  12  13
ENDBRANCH   1  12
TORSDOF 7
ENDMDL
MODEL 8
REMARK VINA RESULT:      -7.9      3.101      4.947
REMARK  Name = 21138
REMARK  7 active torsions:
REMARK  status: ('A' for Active; 'I' for Inactive)
REMARK    1  A    between atoms: O_1  and  C_2
REMARK    2  A    between atoms: O_1  and  C_12
REMARK    3  A    between atoms: C_12  and  C_13
REMARK    4  A    between atoms: C_13  and  O_14
REMARK    5  A    between atoms: C_13  and  C_16
REMARK    6  A    between atoms: C_16  and  N_17
REMARK    7  A    between atoms: N_17  and  C_20
REMARK                            x       y       z     vdW  Elec       q    Type
REMARK                         _______ _______ _______ _____ _____    ______ ____
ROOT
ATOM      1  O   UNL     1      34.189 -13.878 -23.702  0.00  0.00    -0.473 OA
ENDROOT
BRANCH   1   2
ATOM      2  C   UNL     1      34.387 -14.930 -22.854  0.00  0.00    +0.139 C 
ATOM      3  C   UNL     1      34.512 -16.243 -23.335  0.00  0.00    +0.034 C 
ATOM      4  C   UNL     1      34.716 -17.299 -22.416  0.00  0.00    +0.003 C 
ATOM      5  C   UNL     1      34.461 -14.662 -21.487  0.00  0.00    +0.037 C 
ATOM      6  C   UNL     1      34.440 -16.530 -24.708  0.00  0.00    +0.003 C 
ATOM      7  C   UNL     1      34.789 -17.012 -21.043  0.00  0.00    +0.000 C 
ATOM      8  C   UNL     1      34.662 -15.701 -20.583  0.00  0.00    +0.003 C 
ATOM      9  C   UNL     1      34.840 -18.613 -22.897  0.00  0.00    +0.000 C 
ATOM     10  C   UNL     1      34.566 -17.842 -25.167  0.00  0.00    +0.000 C 
ATOM     11  C   UNL     1      34.766 -18.882 -24.264  0.00  0.00    +0.000 C 
ENDBRANCH   1   2
BRANCH   1  12
ATOM     12  C   UNL     1      32.949 -13.185 -23.595  0.00  0.00    +0.232 C 
BRANCH  12  13
ATOM     13  C   UNL     1      33.174 -11.714 -23.936  0.00  0.00    +0.133 C 
BRANCH  13  14
ATOM     14  O   UNL     1      34.582 -11.472 -23.997  0.00  0.00    -0.383 OA
ATOM     15  H   UNL     1      35.027 -11.973 -23.296  0.00  0.00    +0.210 HD
ENDBRANCH  13  14
BRANCH  13  16
ATOM     16  C   UNL     1      32.567 -10.754 -22.910  0.00  0.00    -0.048 C 
BRANCH  16  17
ATOM     17  N   UNL     1      31.505 -11.380 -22.136  0.00  0.00    +0.387 N 
ATOM     18  H   UNL     1      31.788 -12.327 -21.885  0.00  0.00    -0.084 HD
ATOM     19  H   UNL     1      30.657 -11.399 -22.702  0.00  0.00    -0.084 HD
BRANCH  17  20
ATOM     20  C   UNL     1      31.235 -10.626 -20.918  0.00  0.00    -0.062 C 
ATOM     21  C   UNL     1      31.996  -9.304 -20.934  0.00  0.00    -0.023 C 
ATOM     22  C   UNL     1      31.620 -11.466 -19.705  0.00  0.00    -0.023 C 
ENDBRANCH  17  20
ENDBRANCH  16  17
ENDBRANCH  13  16
ENDBRANCH  12  13
ENDBRANCH   1  12
TORSDOF 7
ENDMDL
MODEL 9
REMARK VINA RESULT:      -7.8      3.495      5.662
REMARK  Name = 21138
REMARK  7 active torsions:
REMARK  status: ('A' for Active; 'I' for Inactive)
REMARK    1  A    between atoms: O_1  and  C_2
REMARK    2  A    between atoms: O_1  and  C_12
REMARK    3  A    between atoms: C_12  and  C_13
REMARK    4  A    between atoms: C_13  and  O_14
REMARK    5  A    between atoms: C_13  and  C_16
REMARK    6  A    between atoms: C_16  and  N_17
REMARK    7  A    between atoms: N_17  and  C_20
REMARK                            x       y       z     vdW  Elec       q    Type
REMARK                         _______ _______ _______ _____ _____    ______ ____
ROOT
ATOM      1  O   UNL     1      33.440 -13.584 -22.781  0.00  0.00    -0.473 OA
ENDROOT
BRANCH   1   2
ATOM      2  C   UNL     1      33.747 -14.700 -23.505  0.00  0.00    +0.139 C 
ATOM      3  C   UNL     1      34.304 -15.836 -22.896  0.00  0.00    +0.034 C 
ATOM      4  C   UNL     1      34.604 -16.969 -23.690  0.00  0.00    +0.003 C 
ATOM      5  C   UNL     1      33.490 -14.681 -24.877  0.00  0.00    +0.037 C 
ATOM      6  C   UNL     1      34.568 -15.873 -21.517  0.00  0.00    +0.003 C 
ATOM      7  C   UNL     1      34.340 -16.933 -25.069  0.00  0.00    +0.000 C 
ATOM      8  C   UNL     1      33.786 -15.795 -25.657  0.00  0.00    +0.003 C 
ATOM      9  C   UNL     1      35.162 -18.105 -23.081  0.00  0.00    +0.000 C 
ATOM     10  C   UNL     1      35.123 -17.012 -20.930  0.00  0.00    +0.000 C 
ATOM     11  C   UNL     1      35.419 -18.125 -21.710  0.00  0.00    +0.000 C 
ENDBRANCH   1   2
BRANCH   1  12
ATOM     12  C   UNL     1      32.111 -13.084 -22.897  0.00  0.00    +0.232 C 
BRANCH  12  13
ATOM     13  C   UNL     1      32.024 -11.740 -22.178  0.00  0.00    +0.133 C 
BRANCH  13  14
ATOM     14  O   UNL     1      30.653 -11.477 -21.870  0.00  0.00    -0.383 OA
ATOM     15  H   UNL     1      30.462 -11.773 -20.966  0.00  0.00    +0.210 HD
ENDBRANCH  13  14
BRANCH  13  16
ATOM     16  C   UNL     1      32.561 -10.573 -23.009  0.00  0.00    -0.048 C 
BRANCH  16  17
ATOM     17  N   UNL     1      33.444 -11.021 -24.077  0.00  0.00    +0.387 N 
ATOM     18  H   UNL     1      32.948 -10.966 -24.966  0.00  0.00    -0.084 HD
ATOM     19  H   UNL     1      33.725 -11.983 -23.884  0.00  0.00    -0.084 HD
BRANCH  17  20
ATOM     20  C   UNL     1      34.640 -10.192 -24.146  0.00  0.00    -0.062 C 
ATOM     21  C   UNL     1      34.292  -8.735 -23.859  0.00  0.00    -0.023 C 
ATOM     22  C   UNL     1      35.283 -10.342 -25.521  0.00  0.00    -0.023 C 
ENDBRANCH  17  20
ENDBRANCH  16  17
ENDBRANCH  13  16
ENDBRANCH  12  13
ENDBRANCH   1  12
TORSDOF 7
ENDMDL
