MODEL 1
REMARK VINA RESULT:      -6.6      0.000      0.000
REMARK  Name = 449146
REMARK  3 active torsions:
REMARK  status: ('A' for Active; 'I' for Inactive)
REMARK    1  A    between atoms: C_1  and  C_9
REMARK    2  A    between atoms: C_2  and  O_12
REMARK    3  A    between atoms: C_3  and  O_14
REMARK                            x       y       z     vdW  Elec       q    Type
REMARK                         _______ _______ _______ _____ _____    ______ ____
ROOT
ATOM      1  C   UNL     1      34.864 -20.052 -20.559  0.00  0.00    +0.090 C 
ATOM      2  C   UNL     1      33.685 -20.650 -20.112  0.00  0.00    +0.172 C 
ATOM      3  C   UNL     1      33.740 -21.732 -19.234  0.00  0.00    +0.168 C 
ATOM      4  C   UNL     1      36.099 -20.538 -20.126  0.00  0.00    +0.008 C 
ATOM      5  C   UNL     1      34.975 -22.218 -18.803  0.00  0.00    +0.040 C 
ATOM      6  C   UNL     1      36.154 -21.620 -19.249  0.00  0.00    +0.003 C 
ENDROOT
BRANCH   1   9
ATOM      7  O   UNL     1      34.398 -19.016 -22.632  0.00  0.00    -0.270 OA
ATOM      8  N   UNL     1      35.285 -17.707 -20.991  0.00  0.00    -0.325 N 
ATOM      9  C   UNL     1      34.829 -18.922 -21.477  0.00  0.00    +0.246 C 
ATOM     10  H   UNL     1      35.283 -16.912 -21.571  0.00  0.00    +0.145 HD
ATOM     11  H   UNL     1      35.611 -17.639 -20.064  0.00  0.00    +0.145 HD
ENDBRANCH   1   9
BRANCH   2  12
ATOM     12  O   UNL     1      32.474 -20.180 -20.529  0.00  0.00    -0.503 OA
ATOM     13  H   UNL     1      32.393 -19.295 -20.829  0.00  0.00    +0.292 HD
ENDBRANCH   2  12
BRANCH   3  14
ATOM     14  O   UNL     1      32.597 -22.325 -18.790  0.00  0.00    -0.503 OA
ATOM     15  H   UNL     1      32.261 -22.118 -17.940  0.00  0.00    +0.292 HD
ENDBRANCH   3  14
TORSDOF 3
ENDMDL
MODEL 2
REMARK VINA RESULT:      -6.6      2.015      3.594
REMARK  Name = 449146
REMARK  3 active torsions:
REMARK  status: ('A' for Active; 'I' for Inactive)
REMARK    1  A    between atoms: C_1  and  C_9
REMARK    2  A    between atoms: C_2  and  O_12
REMARK    3  A    between atoms: C_3  and  O_14
REMARK                            x       y       z     vdW  Elec       q    Type
REMARK                         _______ _______ _______ _____ _____    ______ ____
ROOT
ATOM      1  C   UNL     1      34.499 -21.475 -19.720  0.00  0.00    +0.090 C 
ATOM      2  C   UNL     1      33.894 -20.422 -20.407  0.00  0.00    +0.172 C 
ATOM      3  C   UNL     1      34.673 -19.386 -20.922  0.00  0.00    +0.168 C 
ATOM      4  C   UNL     1      35.883 -21.491 -19.549  0.00  0.00    +0.008 C 
ATOM      5  C   UNL     1      36.057 -19.402 -20.749  0.00  0.00    +0.040 C 
ATOM      6  C   UNL     1      36.662 -20.456 -20.062  0.00  0.00    +0.003 C 
ENDROOT
BRANCH   1   9
ATOM      7  O   UNL     1      33.987 -23.755 -19.362  0.00  0.00    -0.270 OA
ATOM      8  N   UNL     1      32.607 -22.216 -18.402  0.00  0.00    -0.325 N 
ATOM      9  C   UNL     1      33.704 -22.567 -19.174  0.00  0.00    +0.246 C 
ATOM     10  H   UNL     1      32.037 -22.916 -18.010  0.00  0.00    +0.145 HD
ATOM     11  H   UNL     1      32.399 -21.267 -18.245  0.00  0.00    +0.145 HD
ENDBRANCH   1   9
BRANCH   2  12
ATOM     12  O   UNL     1      32.541 -20.400 -20.581  0.00  0.00    -0.503 OA
ATOM     13  H   UNL     1      32.117 -21.093 -21.048  0.00  0.00    +0.292 HD
ENDBRANCH   2  12
BRANCH   3  14
ATOM     14  O   UNL     1      34.096 -18.351 -21.595  0.00  0.00    -0.503 OA
ATOM     15  H   UNL     1      33.867 -18.450 -22.498  0.00  0.00    +0.292 HD
ENDBRANCH   3  14
TORSDOF 3
ENDMDL
MODEL 3
REMARK VINA RESULT:      -6.5      2.596      4.213
REMARK  Name = 449146
REMARK  3 active torsions:
REMARK  status: ('A' for Active; 'I' for Inactive)
REMARK    1  A    between atoms: C_1  and  C_9
REMARK    2  A    between atoms: C_2  and  O_12
REMARK    3  A    between atoms: C_3  and  O_14
REMARK                            x       y       z     vdW  Elec       q    Type
REMARK                         _______ _______ _______ _____ _____    ______ ____
ROOT
ATOM      1  C   UNL     1      34.012 -21.268 -19.833  0.00  0.00    +0.090 C 
ATOM      2  C   UNL     1      35.367 -20.945 -19.910  0.00  0.00    +0.172 C 
ATOM      3  C   UNL     1      35.772 -19.779 -20.561  0.00  0.00    +0.168 C 
ATOM      4  C   UNL     1      33.061 -20.424 -20.408  0.00  0.00    +0.008 C 
ATOM      5  C   UNL     1      34.820 -18.937 -21.136  0.00  0.00    +0.040 C 
ATOM      6  C   UNL     1      33.465 -19.260 -21.060  0.00  0.00    +0.003 C 
ENDROOT
BRANCH   1   9
ATOM      7  O   UNL     1      34.067 -23.589 -19.387  0.00  0.00    -0.270 OA
ATOM      8  N   UNL     1      32.563 -22.340 -18.216  0.00  0.00    -0.325 N 
ATOM      9  C   UNL     1      33.569 -22.480 -19.159  0.00  0.00    +0.246 C 
ATOM     10  H   UNL     1      32.227 -23.129 -17.732  0.00  0.00    +0.145 HD
ATOM     11  H   UNL     1      32.184 -21.450 -18.029  0.00  0.00    +0.145 HD
ENDBRANCH   1   9
BRANCH   2  12
ATOM     12  O   UNL     1      36.303 -21.764 -19.348  0.00  0.00    -0.503 OA
ATOM     13  H   UNL     1      36.040 -22.429 -18.743  0.00  0.00    +0.292 HD
ENDBRANCH   2  12
BRANCH   3  14
ATOM     14  O   UNL     1      37.092 -19.452 -20.643  0.00  0.00    -0.503 OA
ATOM     15  H   UNL     1      37.357 -18.556 -20.577  0.00  0.00    +0.292 HD
ENDBRANCH   3  14
TORSDOF 3
ENDMDL
MODEL 4
REMARK VINA RESULT:      -6.4      2.477      4.984
REMARK  Name = 449146
REMARK  3 active torsions:
REMARK  status: ('A' for Active; 'I' for Inactive)
REMARK    1  A    between atoms: C_1  and  C_9
REMARK    2  A    between atoms: C_2  and  O_12
REMARK    3  A    between atoms: C_3  and  O_14
REMARK                            x       y       z     vdW  Elec       q    Type
REMARK                         _______ _______ _______ _____ _____    ______ ____
ROOT
ATOM      1  C   UNL     1      35.042 -18.744 -21.963  0.00  0.00    +0.090 C 
ATOM      2  C   UNL     1      35.095 -17.359 -21.806  0.00  0.00    +0.172 C 
ATOM      3  C   UNL     1      34.960 -16.525 -22.916  0.00  0.00    +0.168 C 
ATOM      4  C   UNL     1      34.853 -19.295 -23.231  0.00  0.00    +0.008 C 
ATOM      5  C   UNL     1      34.772 -17.077 -24.183  0.00  0.00    +0.040 C 
ATOM      6  C   UNL     1      34.719 -18.462 -24.340  0.00  0.00    +0.003 C 
ENDROOT
BRANCH   1   9
ATOM      7  O   UNL     1      34.260 -20.353 -20.417  0.00  0.00    -0.270 OA
ATOM      8  N   UNL     1      36.419 -19.659 -20.193  0.00  0.00    -0.325 N 
ATOM      9  C   UNL     1      35.182 -19.633 -20.818  0.00  0.00    +0.246 C 
ATOM     10  H   UNL     1      36.566 -20.242 -19.414  0.00  0.00    +0.145 HD
ATOM     11  H   UNL     1      37.152 -19.094 -20.530  0.00  0.00    +0.145 HD
ENDBRANCH   1   9
BRANCH   2  12
ATOM     12  O   UNL     1      35.277 -16.812 -20.570  0.00  0.00    -0.503 OA
ATOM     13  H   UNL     1      34.747 -17.094 -19.850  0.00  0.00    +0.292 HD
ENDBRANCH   2  12
BRANCH   3  14
ATOM     14  O   UNL     1      35.009 -15.171 -22.777  0.00  0.00    -0.503 OA
ATOM     15  H   UNL     1      35.315 -14.793 -21.976  0.00  0.00    +0.292 HD
ENDBRANCH   3  14
TORSDOF 3
ENDMDL
MODEL 5
REMARK VINA RESULT:      -6.3      4.068      5.566
REMARK  Name = 449146
REMARK  3 active torsions:
REMARK  status: ('A' for Active; 'I' for Inactive)
REMARK    1  A    between atoms: C_1  and  C_9
REMARK    2  A    between atoms: C_2  and  O_12
REMARK    3  A    between atoms: C_3  and  O_14
REMARK                            x       y       z     vdW  Elec       q    Type
REMARK                         _______ _______ _______ _____ _____    ______ ____
ROOT
ATOM      1  C   UNL     1      35.011 -17.784 -22.660  0.00  0.00    +0.090 C 
ATOM      2  C   UNL     1      34.916 -16.761 -23.603  0.00  0.00    +0.172 C 
ATOM      3  C   UNL     1      34.600 -17.060 -24.929  0.00  0.00    +0.168 C 
ATOM      4  C   UNL     1      34.790 -19.107 -23.043  0.00  0.00    +0.008 C 
ATOM      5  C   UNL     1      34.380 -18.383 -25.311  0.00  0.00    +0.040 C 
ATOM      6  C   UNL     1      34.475 -19.407 -24.368  0.00  0.00    +0.003 C 
ENDROOT
BRANCH   1   9
ATOM      7  O   UNL     1      35.042 -16.424 -20.726  0.00  0.00    -0.270 OA
ATOM      8  N   UNL     1      35.994 -18.489 -20.562  0.00  0.00    -0.325 N 
ATOM      9  C   UNL     1      35.340 -17.494 -21.271  0.00  0.00    +0.246 C 
ATOM     10  H   UNL     1      36.240 -18.342 -19.620  0.00  0.00    +0.145 HD
ATOM     11  H   UNL     1      36.213 -19.343 -21.000  0.00  0.00    +0.145 HD
ENDBRANCH   1   9
BRANCH   2  12
ATOM     12  O   UNL     1      35.129 -15.464 -23.236  0.00  0.00    -0.503 OA
ATOM     13  H   UNL     1      35.833 -14.979 -23.619  0.00  0.00    +0.292 HD
ENDBRANCH   2  12
BRANCH   3  14
ATOM     14  O   UNL     1      34.504 -16.070 -25.860  0.00  0.00    -0.503 OA
ATOM     15  H   UNL     1      34.025 -16.217 -26.652  0.00  0.00    +0.292 HD
ENDBRANCH   3  14
TORSDOF 3
ENDMDL
MODEL 6
REMARK VINA RESULT:      -6.3      2.116      2.737
REMARK  Name = 449146
REMARK  3 active torsions:
REMARK  status: ('A' for Active; 'I' for Inactive)
REMARK    1  A    between atoms: C_1  and  C_9
REMARK    2  A    between atoms: C_2  and  O_12
REMARK    3  A    between atoms: C_3  and  O_14
REMARK                            x       y       z     vdW  Elec       q    Type
REMARK                         _______ _______ _______ _____ _____    ______ ____
ROOT
ATOM      1  C   UNL     1      34.859 -19.039 -21.160  0.00  0.00    +0.090 C 
ATOM      2  C   UNL     1      35.747 -19.896 -20.510  0.00  0.00    +0.172 C 
ATOM      3  C   UNL     1      35.263 -20.989 -19.791  0.00  0.00    +0.168 C 
ATOM      4  C   UNL     1      33.486 -19.274 -21.089  0.00  0.00    +0.008 C 
ATOM      5  C   UNL     1      33.890 -21.223 -19.720  0.00  0.00    +0.040 C 
ATOM      6  C   UNL     1      33.001 -20.366 -20.370  0.00  0.00    +0.003 C 
ENDROOT
BRANCH   1   9
ATOM      7  O   UNL     1      35.083 -16.726 -21.595  0.00  0.00    -0.270 OA
ATOM      8  N   UNL     1      36.142 -18.159 -23.015  0.00  0.00    -0.325 N 
ATOM      9  C   UNL     1      35.343 -17.891 -21.915  0.00  0.00    +0.246 C 
ATOM     10  H   UNL     1      36.495 -17.419 -23.560  0.00  0.00    +0.145 HD
ATOM     11  H   UNL     1      36.358 -19.090 -23.252  0.00  0.00    +0.145 HD
ENDBRANCH   1   9
BRANCH   2  12
ATOM     12  O   UNL     1      37.092 -19.673 -20.576  0.00  0.00    -0.503 OA
ATOM     13  H   UNL     1      37.480 -19.388 -21.379  0.00  0.00    +0.292 HD
ENDBRANCH   2  12
BRANCH   3  14
ATOM     14  O   UNL     1      36.119 -21.834 -19.152  0.00  0.00    -0.503 OA
ATOM     15  H   UNL     1      36.898 -21.499 -18.754  0.00  0.00    +0.292 HD
ENDBRANCH   3  14
TORSDOF 3
ENDMDL
MODEL 7
REMARK VINA RESULT:      -6.3      4.085      4.978
REMARK  Name = 449146
REMARK  3 active torsions:
REMARK  status: ('A' for Active; 'I' for Inactive)
REMARK    1  A    between atoms: C_1  and  C_9
REMARK    2  A    between atoms: C_2  and  O_12
REMARK    3  A    between atoms: C_3  and  O_14
REMARK                            x       y       z     vdW  Elec       q    Type
REMARK                         _______ _______ _______ _____ _____    ______ ____
ROOT
ATOM      1  C   UNL     1      34.659 -17.069 -23.659  0.00  0.00    +0.090 C 
ATOM      2  C   UNL     1      34.773 -16.290 -22.507  0.00  0.00    +0.172 C 
ATOM      3  C   UNL     1      34.987 -16.901 -21.271  0.00  0.00    +0.168 C 
ATOM      4  C   UNL     1      34.759 -18.458 -23.575  0.00  0.00    +0.008 C 
ATOM      5  C   UNL     1      35.085 -18.289 -21.187  0.00  0.00    +0.040 C 
ATOM      6  C   UNL     1      34.971 -19.068 -22.340  0.00  0.00    +0.003 C 
ENDROOT
BRANCH   1   9
ATOM      7  O   UNL     1      35.074 -16.774 -25.968  0.00  0.00    -0.270 OA
ATOM      8  N   UNL     1      33.443 -15.486 -25.031  0.00  0.00    -0.325 N 
ATOM      9  C   UNL     1      34.435 -16.452 -24.960  0.00  0.00    +0.246 C 
ATOM     10  H   UNL     1      33.252 -15.038 -25.887  0.00  0.00    +0.145 HD
ATOM     11  H   UNL     1      32.929 -15.248 -24.226  0.00  0.00    +0.145 HD
ENDBRANCH   1   9
BRANCH   2  12
ATOM     12  O   UNL     1      34.679 -14.931 -22.582  0.00  0.00    -0.503 OA
ATOM     13  H   UNL     1      34.267 -14.452 -21.890  0.00  0.00    +0.292 HD
ENDBRANCH   2  12
BRANCH   3  14
ATOM     14  O   UNL     1      35.100 -16.153 -20.138  0.00  0.00    -0.503 OA
ATOM     15  H   UNL     1      34.800 -15.265 -20.131  0.00  0.00    +0.292 HD
ENDBRANCH   3  14
TORSDOF 3
ENDMDL
MODEL 8
REMARK VINA RESULT:      -6.2      9.404     10.199
REMARK  Name = 449146
REMARK  3 active torsions:
REMARK  status: ('A' for Active; 'I' for Inactive)
REMARK    1  A    between atoms: C_1  and  C_9
REMARK    2  A    between atoms: C_2  and  O_12
REMARK    3  A    between atoms: C_3  and  O_14
REMARK                            x       y       z     vdW  Elec       q    Type
REMARK                         _______ _______ _______ _____ _____    ______ ____
ROOT
ATOM      1  C   UNL     1      42.026 -15.401 -17.008  0.00  0.00    +0.090 C 
ATOM      2  C   UNL     1      41.156 -15.236 -15.930  0.00  0.00    +0.172 C 
ATOM      3  C   UNL     1      41.094 -14.012 -15.264  0.00  0.00    +0.168 C 
ATOM      4  C   UNL     1      42.834 -14.341 -17.420  0.00  0.00    +0.008 C 
ATOM      5  C   UNL     1      41.903 -12.953 -15.676  0.00  0.00    +0.040 C 
ATOM      6  C   UNL     1      42.773 -13.118 -16.754  0.00  0.00    +0.003 C 
ENDROOT
BRANCH   1   9
ATOM      7  O   UNL     1      41.902 -17.757 -17.162  0.00  0.00    -0.270 OA
ATOM      8  N   UNL     1      42.406 -16.615 -19.069  0.00  0.00    -0.325 N 
ATOM      9  C   UNL     1      42.107 -16.671 -17.717  0.00  0.00    +0.246 C 
ATOM     10  H   UNL     1      42.473 -17.446 -19.593  0.00  0.00    +0.145 HD
ATOM     11  H   UNL     1      42.552 -15.745 -19.505  0.00  0.00    +0.145 HD
ENDBRANCH   1   9
BRANCH   2  12
ATOM     12  O   UNL     1      40.361 -16.268 -15.522  0.00  0.00    -0.503 OA
ATOM     13  H   UNL     1      39.950 -16.821 -16.157  0.00  0.00    +0.292 HD
ENDBRANCH   2  12
BRANCH   3  14
ATOM     14  O   UNL     1      40.249 -13.838 -14.210  0.00  0.00    -0.503 OA
ATOM     15  H   UNL     1      39.815 -14.576 -13.830  0.00  0.00    +0.292 HD
ENDBRANCH   3  14
TORSDOF 3
ENDMDL
MODEL 9
REMARK VINA RESULT:      -6.2      6.879      7.952
REMARK  Name = 449146
REMARK  3 active torsions:
REMARK  status: ('A' for Active; 'I' for Inactive)
REMARK    1  A    between atoms: C_1  and  C_9
REMARK    2  A    between atoms: C_2  and  O_12
REMARK    3  A    between atoms: C_3  and  O_14
REMARK                            x       y       z     vdW  Elec       q    Type
REMARK                         _______ _______ _______ _____ _____    ______ ____
ROOT
ATOM      1  C   UNL     1      29.491 -23.646 -15.902  0.00  0.00    +0.090 C 
ATOM      2  C   UNL     1      29.648 -24.448 -14.770  0.00  0.00    +0.172 C 
ATOM      3  C   UNL     1      30.902 -24.574 -14.173  0.00  0.00    +0.168 C 
ATOM      4  C   UNL     1      30.589 -22.972 -16.435  0.00  0.00    +0.008 C 
ATOM      5  C   UNL     1      32.000 -23.900 -14.707  0.00  0.00    +0.040 C 
ATOM      6  C   UNL     1      31.843 -23.099 -15.839  0.00  0.00    +0.003 C 
ENDROOT
BRANCH   1   9
ATOM      7  O   UNL     1      27.842 -24.194 -17.505  0.00  0.00    -0.270 OA
ATOM      8  N   UNL     1      27.331 -22.555 -16.005  0.00  0.00    -0.325 N 
ATOM      9  C   UNL     1      28.190 -23.502 -16.541  0.00  0.00    +0.246 C 
ATOM     10  H   UNL     1      26.440 -22.418 -16.401  0.00  0.00    +0.145 HD
ATOM     11  H   UNL     1      27.612 -22.021 -15.228  0.00  0.00    +0.145 HD
ENDBRANCH   1   9
BRANCH   2  12
ATOM     12  O   UNL     1      28.578 -25.109 -14.241  0.00  0.00    -0.503 OA
ATOM     13  H   UNL     1      28.624 -26.034 -14.097  0.00  0.00    +0.292 HD
ENDBRANCH   2  12
BRANCH   3  14
ATOM     14  O   UNL     1      31.069 -25.353 -13.068  0.00  0.00    -0.503 OA
ATOM     15  H   UNL     1      30.856 -25.016 -12.220  0.00  0.00    +0.292 HD
ENDBRANCH   3  14
TORSDOF 3
ENDMDL
