MODEL 1
REMARK VINA RESULT:      -7.1      0.000      0.000
REMARK  Name = 8646
REMARK  0 active torsions:
REMARK  status: ('A' for Active; 'I' for Inactive)
REMARK                            x       y       z     vdW  Elec       q    Type
REMARK                         _______ _______ _______ _____ _____    ______ ____
ROOT
ATOM      1  O   UNL     1      37.880 -22.913 -15.173  0.00  0.00    -0.207 OA
ATOM      2  N   UNL     1      36.087 -27.062 -15.007  0.00  0.00    -0.222 N 
ATOM      3  N   UNL     1      35.145 -26.055 -15.230  0.00  0.00    -0.184 N 
ATOM      4  N   UNL     1      35.788 -24.829 -15.310  0.00  0.00    -0.151 NA
ATOM      5  N   UNL     1      38.488 -26.856 -14.575  0.00  0.00    -0.309 NA
ATOM      6  N   UNL     1      39.374 -24.615 -14.675  0.00  0.00    -0.251 NA
ATOM      7  N   UNL     1      40.768 -26.398 -14.192  0.00  0.00    -0.283 N 
ATOM      8  C   UNL     1      37.294 -26.476 -14.842  0.00  0.00    +0.242 C 
ATOM      9  C   UNL     1      37.034 -25.056 -15.050  0.00  0.00    +0.240 C 
ATOM     10  C   UNL     1      38.139 -24.092 -14.972  0.00  0.00    +0.239 C 
ATOM     11  C   UNL     1      39.515 -25.913 -14.491  0.00  0.00    +0.208 C 
ATOM     12  H   UNL     1      35.903 -28.030 -14.977  0.00  0.00    +0.174 HD
ATOM     13  H   UNL     1      34.173 -26.193 -15.316  0.00  0.00    +0.193 HD
ATOM     14  H   UNL     1      40.902 -27.363 -14.050  0.00  0.00    +0.156 HD
ATOM     15  H   UNL     1      41.531 -25.779 -14.121  0.00  0.00    +0.156 HD
ENDROOT
TORSDOF 0
ENDMDL
MODEL 2
REMARK VINA RESULT:      -6.7      6.437      7.874
REMARK  Name = 8646
REMARK  0 active torsions:
REMARK  status: ('A' for Active; 'I' for Inactive)
REMARK                            x       y       z     vdW  Elec       q    Type
REMARK                         _______ _______ _______ _____ _____    ______ ____
ROOT
ATOM      1  O   UNL     1      32.448 -20.123 -20.790  0.00  0.00    -0.207 OA
ATOM      2  N   UNL     1      36.742 -20.664 -19.477  0.00  0.00    -0.222 N 
ATOM      3  N   UNL     1      36.562 -19.616 -20.383  0.00  0.00    -0.184 N 
ATOM      4  N   UNL     1      35.216 -19.497 -20.692  0.00  0.00    -0.151 NA
ATOM      5  N   UNL     1      35.099 -22.278 -18.645  0.00  0.00    -0.309 NA
ATOM      6  N   UNL     1      32.832 -21.931 -19.389  0.00  0.00    -0.251 NA
ATOM      7  N   UNL     1      33.338 -23.698 -17.985  0.00  0.00    -0.283 N 
ATOM      8  C   UNL     1      35.547 -21.270 -19.297  0.00  0.00    +0.242 C 
ATOM      9  C   UNL     1      34.619 -20.476 -20.096  0.00  0.00    +0.240 C 
ATOM     10  C   UNL     1      33.194 -20.828 -20.123  0.00  0.00    +0.239 C 
ATOM     11  C   UNL     1      33.740 -22.597 -18.706  0.00  0.00    +0.208 C 
ATOM     12  H   UNL     1      37.591 -20.918 -19.045  0.00  0.00    +0.174 HD
ATOM     13  H   UNL     1      37.281 -19.049 -20.746  0.00  0.00    +0.193 HD
ATOM     14  H   UNL     1      33.996 -24.214 -17.464  0.00  0.00    +0.156 HD
ATOM     15  H   UNL     1      32.391 -23.970 -17.989  0.00  0.00    +0.156 HD
ENDROOT
TORSDOF 0
ENDMDL
MODEL 3
REMARK VINA RESULT:      -6.7      1.896      3.993
REMARK  Name = 8646
REMARK  0 active torsions:
REMARK  status: ('A' for Active; 'I' for Inactive)
REMARK                            x       y       z     vdW  Elec       q    Type
REMARK                         _______ _______ _______ _____ _____    ______ ____
ROOT
ATOM      1  O   UNL     1      36.589 -27.290 -16.148  0.00  0.00    -0.207 OA
ATOM      2  N   UNL     1      39.286 -25.022 -13.313  0.00  0.00    -0.222 N 
ATOM      3  N   UNL     1      39.841 -26.217 -13.776  0.00  0.00    -0.184 N 
ATOM      4  N   UNL     1      38.967 -26.818 -14.668  0.00  0.00    -0.151 NA
ATOM      5  N   UNL     1      37.055 -24.100 -13.724  0.00  0.00    -0.309 NA
ATOM      6  N   UNL     1      35.671 -25.364 -15.241  0.00  0.00    -0.251 NA
ATOM      7  N   UNL     1      34.867 -23.421 -14.276  0.00  0.00    -0.283 N 
ATOM      8  C   UNL     1      38.037 -24.918 -13.819  0.00  0.00    +0.242 C 
ATOM      9  C   UNL     1      37.898 -26.092 -14.675  0.00  0.00    +0.240 C 
ATOM     10  C   UNL     1      36.655 -26.305 -15.426  0.00  0.00    +0.239 C 
ATOM     11  C   UNL     1      35.879 -24.340 -14.438  0.00  0.00    +0.208 C 
ATOM     12  H   UNL     1      39.728 -24.369 -12.721  0.00  0.00    +0.174 HD
ATOM     13  H   UNL     1      40.718 -26.578 -13.509  0.00  0.00    +0.193 HD
ATOM     14  H   UNL     1      34.995 -22.646 -13.683  0.00  0.00    +0.156 HD
ATOM     15  H   UNL     1      34.014 -23.538 -14.756  0.00  0.00    +0.156 HD
ENDROOT
TORSDOF 0
ENDMDL
MODEL 4
REMARK VINA RESULT:      -6.7      2.255      2.975
REMARK  Name = 8646
REMARK  0 active torsions:
REMARK  status: ('A' for Active; 'I' for Inactive)
REMARK                            x       y       z     vdW  Elec       q    Type
REMARK                         _______ _______ _______ _____ _____    ______ ____
ROOT
ATOM      1  O   UNL     1      40.061 -26.088 -13.729  0.00  0.00    -0.207 OA
ATOM      2  N   UNL     1      35.636 -26.000 -14.661  0.00  0.00    -0.222 N 
ATOM      3  N   UNL     1      36.347 -26.939 -15.412  0.00  0.00    -0.184 N 
ATOM      4  N   UNL     1      37.679 -26.926 -15.029  0.00  0.00    -0.151 NA
ATOM      5  N   UNL     1      36.481 -24.356 -13.054  0.00  0.00    -0.309 NA
ATOM      6  N   UNL     1      38.849 -24.459 -12.610  0.00  0.00    -0.251 NA
ATOM      7  N   UNL     1      37.533 -22.879 -11.550  0.00  0.00    -0.283 N 
ATOM      8  C   UNL     1      36.520 -25.327 -13.890  0.00  0.00    +0.242 C 
ATOM      9  C   UNL     1      37.800 -25.968 -14.170  0.00  0.00    +0.240 C 
ATOM     10  C   UNL     1      39.013 -25.509 -13.480  0.00  0.00    +0.239 C 
ATOM     11  C   UNL     1      37.655 -23.932 -12.427  0.00  0.00    +0.208 C 
ATOM     12  H   UNL     1      34.662 -25.854 -14.688  0.00  0.00    +0.174 HD
ATOM     13  H   UNL     1      35.962 -27.521 -16.108  0.00  0.00    +0.193 HD
ATOM     14  H   UNL     1      36.652 -22.467 -11.394  0.00  0.00    +0.156 HD
ATOM     15  H   UNL     1      38.327 -22.537 -11.077  0.00  0.00    +0.156 HD
ENDROOT
TORSDOF 0
ENDMDL
MODEL 5
REMARK VINA RESULT:      -6.7      1.861      2.576
REMARK  Name = 8646
REMARK  0 active torsions:
REMARK  status: ('A' for Active; 'I' for Inactive)
REMARK                            x       y       z     vdW  Elec       q    Type
REMARK                         _______ _______ _______ _____ _____    ______ ____
ROOT
ATOM      1  O   UNL     1      36.239 -26.874 -15.724  0.00  0.00    -0.207 OA
ATOM      2  N   UNL     1      36.940 -23.217 -13.156  0.00  0.00    -0.222 N 
ATOM      3  N   UNL     1      35.652 -23.284 -13.694  0.00  0.00    -0.184 N 
ATOM      4  N   UNL     1      35.516 -24.453 -14.425  0.00  0.00    -0.151 NA
ATOM      5  N   UNL     1      38.843 -24.712 -13.529  0.00  0.00    -0.309 NA
ATOM      6  N   UNL     1      38.397 -26.637 -14.911  0.00  0.00    -0.251 NA
ATOM      7  N   UNL     1      40.512 -26.296 -14.037  0.00  0.00    -0.283 N 
ATOM      8  C   UNL     1      37.643 -24.272 -13.625  0.00  0.00    +0.242 C 
ATOM      9  C   UNL     1      36.678 -25.020 -14.424  0.00  0.00    +0.240 C 
ATOM     10  C   UNL     1      37.085 -26.267 -15.082  0.00  0.00    +0.239 C 
ATOM     11  C   UNL     1      39.204 -25.893 -14.181  0.00  0.00    +0.208 C 
ATOM     12  H   UNL     1      37.276 -22.523 -12.543  0.00  0.00    +0.174 HD
ATOM     13  H   UNL     1      34.949 -22.604 -13.573  0.00  0.00    +0.193 HD
ATOM     14  H   UNL     1      41.136 -25.759 -13.496  0.00  0.00    +0.156 HD
ATOM     15  H   UNL     1      40.824 -27.123 -14.473  0.00  0.00    +0.156 HD
ENDROOT
TORSDOF 0
ENDMDL
MODEL 6
REMARK VINA RESULT:      -6.5      2.423      3.451
REMARK  Name = 8646
REMARK  0 active torsions:
REMARK  status: ('A' for Active; 'I' for Inactive)
REMARK                            x       y       z     vdW  Elec       q    Type
REMARK                         _______ _______ _______ _____ _____    ______ ____
ROOT
ATOM      1  O   UNL     1      40.458 -25.042 -13.928  0.00  0.00    -0.207 OA
ATOM      2  N   UNL     1      36.535 -24.118 -11.875  0.00  0.00    -0.222 N 
ATOM      3  N   UNL     1      37.641 -23.519 -11.264  0.00  0.00    -0.184 N 
ATOM      4  N   UNL     1      38.786 -23.820 -11.984  0.00  0.00    -0.151 NA
ATOM      5  N   UNL     1      36.475 -25.663 -13.774  0.00  0.00    -0.309 NA
ATOM      6  N   UNL     1      38.603 -26.113 -14.816  0.00  0.00    -0.251 NA
ATOM      7  N   UNL     1      36.679 -27.119 -15.615  0.00  0.00    -0.283 N 
ATOM      8  C   UNL     1      36.984 -24.872 -12.903  0.00  0.00    +0.242 C 
ATOM      9  C   UNL     1      38.424 -24.636 -12.919  0.00  0.00    +0.240 C 
ATOM     10  C   UNL     1      39.259 -25.284 -13.938  0.00  0.00    +0.239 C 
ATOM     11  C   UNL     1      37.299 -26.278 -14.719  0.00  0.00    +0.208 C 
ATOM     12  H   UNL     1      35.594 -24.008 -11.604  0.00  0.00    +0.174 HD
ATOM     13  H   UNL     1      37.611 -22.969 -10.448  0.00  0.00    +0.193 HD
ATOM     14  H   UNL     1      35.705 -27.260 -15.567  0.00  0.00    +0.156 HD
ATOM     15  H   UNL     1      37.209 -27.579 -16.306  0.00  0.00    +0.156 HD
ENDROOT
TORSDOF 0
ENDMDL
MODEL 7
REMARK VINA RESULT:      -6.5     13.483     14.770
REMARK  Name = 8646
REMARK  0 active torsions:
REMARK  status: ('A' for Active; 'I' for Inactive)
REMARK                            x       y       z     vdW  Elec       q    Type
REMARK                         _______ _______ _______ _____ _____    ______ ____
ROOT
ATOM      1  O   UNL     1      33.067 -15.504 -26.865  0.00  0.00    -0.207 OA
ATOM      2  N   UNL     1      35.441 -16.863 -23.263  0.00  0.00    -0.222 N 
ATOM      3  N   UNL     1      35.312 -17.844 -24.250  0.00  0.00    -0.184 N 
ATOM      4  N   UNL     1      34.612 -17.325 -25.329  0.00  0.00    -0.151 NA
ATOM      5  N   UNL     1      34.458 -14.622 -23.183  0.00  0.00    -0.309 NA
ATOM      6  N   UNL     1      33.202 -13.967 -25.135  0.00  0.00    -0.251 NA
ATOM      7  N   UNL     1      33.414 -12.516 -23.345  0.00  0.00    -0.283 N 
ATOM      8  C   UNL     1      34.743 -15.776 -23.661  0.00  0.00    +0.242 C 
ATOM      9  C   UNL     1      34.244 -16.135 -24.984  0.00  0.00    +0.240 C 
ATOM     10  C   UNL     1      33.448 -15.169 -25.752  0.00  0.00    +0.239 C 
ATOM     11  C   UNL     1      33.684 -13.732 -23.930  0.00  0.00    +0.208 C 
ATOM     12  H   UNL     1      35.951 -16.950 -22.424  0.00  0.00    +0.174 HD
ATOM     13  H   UNL     1      35.664 -18.762 -24.190  0.00  0.00    +0.193 HD
ATOM     14  H   UNL     1      33.761 -12.313 -22.446  0.00  0.00    +0.156 HD
ATOM     15  H   UNL     1      32.873 -11.847 -23.826  0.00  0.00    +0.156 HD
ENDROOT
TORSDOF 0
ENDMDL
MODEL 8
REMARK VINA RESULT:      -6.4      2.844      2.961
REMARK  Name = 8646
REMARK  0 active torsions:
REMARK  status: ('A' for Active; 'I' for Inactive)
REMARK                            x       y       z     vdW  Elec       q    Type
REMARK                         _______ _______ _______ _____ _____    ______ ____
ROOT
ATOM      1  O   UNL     1      36.455 -24.083 -10.422  0.00  0.00    -0.207 OA
ATOM      2  N   UNL     1      34.764 -25.076 -14.497  0.00  0.00    -0.222 N 
ATOM      3  N   UNL     1      33.812 -24.582 -13.602  0.00  0.00    -0.184 N 
ATOM      4  N   UNL     1      34.426 -24.266 -12.401  0.00  0.00    -0.151 NA
ATOM      5  N   UNL     1      37.128 -25.582 -14.106  0.00  0.00    -0.309 NA
ATOM      6  N   UNL     1      37.959 -25.031 -11.910  0.00  0.00    -0.251 NA
ATOM      7  N   UNL     1      39.366 -25.976 -13.485  0.00  0.00    -0.283 N 
ATOM      8  C   UNL     1      35.943 -25.171 -13.842  0.00  0.00    +0.242 C 
ATOM      9  C   UNL     1      35.659 -24.637 -12.515  0.00  0.00    +0.240 C 
ATOM     10  C   UNL     1      36.731 -24.557 -11.515  0.00  0.00    +0.239 C 
ATOM     11  C   UNL     1      38.122 -25.508 -13.127  0.00  0.00    +0.208 C 
ATOM     12  H   UNL     1      34.605 -25.312 -15.441  0.00  0.00    +0.174 HD
ATOM     13  H   UNL     1      32.851 -24.477 -13.795  0.00  0.00    +0.193 HD
ATOM     14  H   UNL     1      39.517 -26.338 -14.388  0.00  0.00    +0.156 HD
ATOM     15  H   UNL     1      40.108 -25.948 -12.836  0.00  0.00    +0.156 HD
ENDROOT
TORSDOF 0
ENDMDL
MODEL 9
REMARK VINA RESULT:      -6.4      6.905      8.176
REMARK  Name = 8646
REMARK  0 active torsions:
REMARK  status: ('A' for Active; 'I' for Inactive)
REMARK                            x       y       z     vdW  Elec       q    Type
REMARK                         _______ _______ _______ _____ _____    ______ ____
ROOT
ATOM      1  O   UNL     1      36.926 -21.626 -18.900  0.00  0.00    -0.207 OA
ATOM      2  N   UNL     1      32.620 -20.975 -20.124  0.00  0.00    -0.222 N 
ATOM      3  N   UNL     1      32.806 -22.095 -19.310  0.00  0.00    -0.184 N 
ATOM      4  N   UNL     1      34.142 -22.188 -18.950  0.00  0.00    -0.151 NA
ATOM      5  N   UNL     1      34.297 -19.451 -21.052  0.00  0.00    -0.309 NA
ATOM      6  N   UNL     1      36.571 -19.861 -20.360  0.00  0.00    -0.251 NA
ATOM      7  N   UNL     1      36.090 -18.123 -21.811  0.00  0.00    -0.283 N 
ATOM      8  C   UNL     1      33.833 -20.428 -20.365  0.00  0.00    +0.242 C 
ATOM      9  C   UNL     1      34.756 -21.246 -19.586  0.00  0.00    +0.240 C 
ATOM     10  C   UNL     1      36.189 -20.927 -19.583  0.00  0.00    +0.239 C 
ATOM     11  C   UNL     1      35.668 -19.184 -21.042  0.00  0.00    +0.208 C 
ATOM     12  H   UNL     1      31.756 -20.642 -20.463  0.00  0.00    +0.174 HD
ATOM     13  H   UNL     1      32.098 -22.722 -19.034  0.00  0.00    +0.193 HD
ATOM     14  H   UNL     1      35.437 -17.600 -22.330  0.00  0.00    +0.156 HD
ATOM     15  H   UNL     1      37.046 -17.887 -21.842  0.00  0.00    +0.156 HD
ENDROOT
TORSDOF 0
ENDMDL
