MODEL 1
REMARK VINA RESULT:      -4.2      0.000      0.000
REMARK  Name = 6419722
REMARK  4 active torsions:
REMARK  status: ('A' for Active; 'I' for Inactive)
REMARK    1  A    between atoms: CA_1  and  N_2
REMARK    2  A    between atoms: CA_1  and  C_8
REMARK    3  A    between atoms: CA_1  and  CB_9
REMARK    4  A    between atoms: CB_9  and  SG_10
REMARK                            x       y       z     vdW  Elec       q    Type
REMARK                         _______ _______ _______ _____ _____    ______ ____
ROOT
ATOM      1  CA  CYS A   1      38.762 -25.252 -14.495  0.00  0.00    +0.051 C 
ENDROOT
BRANCH   1   2
ATOM      2  N   CYS A   1      37.848 -26.096 -15.332  0.00  0.00    +0.389 N 
ATOM      3  H1  CYS A   1      38.140 -26.048 -16.308  0.00  0.00    -0.088 HD
ATOM      4  H2  CYS A   1      36.892 -25.749 -15.246  0.00  0.00    -0.088 HD
ATOM      5  H3  CYS A   1      37.889 -27.062 -15.010  0.00  0.00    -0.088 HD
ENDBRANCH   1   2
BRANCH   1   8
ATOM      6  O   CYS A   1      40.500 -26.074 -15.881  0.00  0.00    -0.248 OA
ATOM      7  OXT CYS A   1      41.037 -24.630 -14.199  0.00  0.00    -0.248 OA
ATOM      8  C   CYS A   1      40.244 -25.317 -14.902  0.00  0.00    +0.346 C 
ENDBRANCH   1   8
BRANCH   1   9
ATOM      9  CB  CYS A   1      38.447 -25.567 -13.030  0.00  0.00    +0.043 C 
BRANCH   9  10
ATOM     10  SG  CYS A   1      37.906 -24.114 -12.071  0.00  0.00    -0.170 S 
ATOM     11  HG  CYS A   1      37.458 -23.151 -12.921  0.00  0.00    +0.102 HD
ENDBRANCH   9  10
ENDBRANCH   1   9
TORSDOF 4
ENDMDL
MODEL 2
REMARK VINA RESULT:      -4.2      0.939      1.529
REMARK  Name = 6419722
REMARK  4 active torsions:
REMARK  status: ('A' for Active; 'I' for Inactive)
REMARK    1  A    between atoms: CA_1  and  N_2
REMARK    2  A    between atoms: CA_1  and  C_8
REMARK    3  A    between atoms: CA_1  and  CB_9
REMARK    4  A    between atoms: CB_9  and  SG_10
REMARK                            x       y       z     vdW  Elec       q    Type
REMARK                         _______ _______ _______ _____ _____    ______ ____
ROOT
ATOM      1  CA  CYS A   1      38.642 -25.567 -14.750  0.00  0.00    +0.051 C 
ENDROOT
BRANCH   1   2
ATOM      2  N   CYS A   1      38.135 -26.918 -14.342  0.00  0.00    +0.389 N 
ATOM      3  H1  CYS A   1      37.176 -27.035 -14.671  0.00  0.00    -0.088 HD
ATOM      4  H2  CYS A   1      38.156 -26.996 -13.325  0.00  0.00    -0.088 HD
ATOM      5  H3  CYS A   1      38.726 -27.641 -14.751  0.00  0.00    -0.088 HD
ENDBRANCH   1   2
BRANCH   1   8
ATOM      6  O   CYS A   1      40.763 -24.760 -14.063  0.00  0.00    -0.248 OA
ATOM      7  OXT CYS A   1      40.653 -26.120 -15.892  0.00  0.00    -0.248 OA
ATOM      8  C   CYS A   1      40.170 -25.482 -14.914  0.00  0.00    +0.346 C 
ENDBRANCH   1   8
BRANCH   1   9
ATOM      9  CB  CYS A   1      38.003 -24.545 -13.806  0.00  0.00    +0.043 C 
BRANCH   9  10
ATOM     10  SG  CYS A   1      37.071 -25.302 -12.435  0.00  0.00    -0.170 S 
ATOM     11  HG  CYS A   1      37.340 -26.634 -12.384  0.00  0.00    +0.102 HD
ENDBRANCH   9  10
ENDBRANCH   1   9
TORSDOF 4
ENDMDL
MODEL 3
REMARK VINA RESULT:      -4.1      3.034      3.514
REMARK  Name = 6419722
REMARK  4 active torsions:
REMARK  status: ('A' for Active; 'I' for Inactive)
REMARK    1  A    between atoms: CA_1  and  N_2
REMARK    2  A    between atoms: CA_1  and  C_8
REMARK    3  A    between atoms: CA_1  and  CB_9
REMARK    4  A    between atoms: CB_9  and  SG_10
REMARK                            x       y       z     vdW  Elec       q    Type
REMARK                         _______ _______ _______ _____ _____    ______ ____
ROOT
ATOM      1  CA  CYS A   1      36.574 -25.343 -14.924  0.00  0.00    +0.051 C 
ENDROOT
BRANCH   1   2
ATOM      2  N   CYS A   1      35.732 -25.317 -13.684  0.00  0.00    +0.389 N 
ATOM      3  H1  CYS A   1      36.262 -24.895 -12.921  0.00  0.00    -0.088 HD
ATOM      4  H2  CYS A   1      35.470 -26.270 -13.430  0.00  0.00    -0.088 HD
ATOM      5  H3  CYS A   1      34.889 -24.769 -13.858  0.00  0.00    -0.088 HD
ENDBRANCH   1   2
BRANCH   1   8
ATOM      6  O   CYS A   1      38.124 -27.100 -14.557  0.00  0.00    -0.248 OA
ATOM      7  OXT CYS A   1      36.608 -27.318 -16.248  0.00  0.00    -0.248 OA
ATOM      8  C   CYS A   1      37.152 -26.726 -15.273  0.00  0.00    +0.346 C 
ENDBRANCH   1   8
BRANCH   1   9
ATOM      9  CB  CYS A   1      37.582 -24.197 -14.806  0.00  0.00    +0.043 C 
BRANCH   9  10
ATOM     10  SG  CYS A   1      37.186 -22.767 -15.864  0.00  0.00    -0.170 S 
ATOM     11  HG  CYS A   1      36.186 -22.043 -15.293  0.00  0.00    +0.102 HD
ENDBRANCH   9  10
ENDBRANCH   1   9
TORSDOF 4
ENDMDL
MODEL 4
REMARK VINA RESULT:      -4.1      4.742      5.058
REMARK  Name = 6419722
REMARK  4 active torsions:
REMARK  status: ('A' for Active; 'I' for Inactive)
REMARK    1  A    between atoms: CA_1  and  N_2
REMARK    2  A    between atoms: CA_1  and  C_8
REMARK    3  A    between atoms: CA_1  and  CB_9
REMARK    4  A    between atoms: CB_9  and  SG_10
REMARK                            x       y       z     vdW  Elec       q    Type
REMARK                         _______ _______ _______ _____ _____    ______ ____
ROOT
ATOM      1  CA  CYS A   1      36.787 -23.387 -11.833  0.00  0.00    +0.051 C 
ENDROOT
BRANCH   1   2
ATOM      2  N   CYS A   1      38.245 -23.685 -11.651  0.00  0.00    +0.389 N 
ATOM      3  H1  CYS A   1      38.420 -24.668 -11.862  0.00  0.00    -0.088 HD
ATOM      4  H2  CYS A   1      38.513 -23.491 -10.686  0.00  0.00    -0.088 HD
ATOM      5  H3  CYS A   1      38.792 -23.098 -12.281  0.00  0.00    -0.088 HD
ENDBRANCH   1   2
BRANCH   1   8
ATOM      6  O   CYS A   1      34.953 -24.873 -11.606  0.00  0.00    -0.248 OA
ATOM      7  OXT CYS A   1      36.060 -24.211  -9.724  0.00  0.00    -0.248 OA
ATOM      8  C   CYS A   1      35.847 -24.248 -10.969  0.00  0.00    +0.346 C 
ENDBRANCH   1   8
BRANCH   1   9
ATOM      9  CB  CYS A   1      36.513 -23.387 -13.339  0.00  0.00    +0.043 C 
BRANCH   9  10
ATOM     10  SG  CYS A   1      37.655 -24.445 -14.287  0.00  0.00    -0.170 S 
ATOM     11  HG  CYS A   1      37.851 -23.908 -15.521  0.00  0.00    +0.102 HD
ENDBRANCH   9  10
ENDBRANCH   1   9
TORSDOF 4
ENDMDL
MODEL 5
REMARK VINA RESULT:      -4.0     10.407     10.743
REMARK  Name = 6419722
REMARK  4 active torsions:
REMARK  status: ('A' for Active; 'I' for Inactive)
REMARK    1  A    between atoms: CA_1  and  N_2
REMARK    2  A    between atoms: CA_1  and  C_8
REMARK    3  A    between atoms: CA_1  and  CB_9
REMARK    4  A    between atoms: CB_9  and  SG_10
REMARK                            x       y       z     vdW  Elec       q    Type
REMARK                         _______ _______ _______ _____ _____    ______ ____
ROOT
ATOM      1  CA  CYS A   1      29.722 -23.375 -16.391  0.00  0.00    +0.051 C 
ENDROOT
BRANCH   1   2
ATOM      2  N   CYS A   1      30.859 -22.588 -16.972  0.00  0.00    +0.389 N 
ATOM      3  H1  CYS A   1      30.782 -22.579 -17.989  0.00  0.00    -0.088 HD
ATOM      4  H2  CYS A   1      31.743 -23.020 -16.702  0.00  0.00    -0.088 HD
ATOM      5  H3  CYS A   1      30.826 -21.632 -16.618  0.00  0.00    -0.088 HD
ENDBRANCH   1   2
BRANCH   1   8
ATOM      6  O   CYS A   1      27.993 -21.801 -16.787  0.00  0.00    -0.248 OA
ATOM      7  OXT CYS A   1      27.694 -23.951 -17.490  0.00  0.00    -0.248 OA
ATOM      8  C   CYS A   1      28.337 -23.006 -16.952  0.00  0.00    +0.346 C 
ENDBRANCH   1   8
BRANCH   1   9
ATOM      9  CB  CYS A   1      29.873 -23.322 -14.868  0.00  0.00    +0.043 C 
BRANCH   9  10
ATOM     10  SG  CYS A   1      30.672 -24.801 -14.163  0.00  0.00    -0.170 S 
ATOM     11  HG  CYS A   1      29.818 -25.408 -13.296  0.00  0.00    +0.102 HD
ENDBRANCH   9  10
ENDBRANCH   1   9
TORSDOF 4
ENDMDL
MODEL 6
REMARK VINA RESULT:      -4.0     10.573     10.858
REMARK  Name = 6419722
REMARK  4 active torsions:
REMARK  status: ('A' for Active; 'I' for Inactive)
REMARK    1  A    between atoms: CA_1  and  N_2
REMARK    2  A    between atoms: CA_1  and  C_8
REMARK    3  A    between atoms: CA_1  and  CB_9
REMARK    4  A    between atoms: CB_9  and  SG_10
REMARK                            x       y       z     vdW  Elec       q    Type
REMARK                         _______ _______ _______ _____ _____    ______ ____
ROOT
ATOM      1  CA  CYS A   1      28.783 -23.458 -15.435  0.00  0.00    +0.051 C 
ENDROOT
BRANCH   1   2
ATOM      2  N   CYS A   1      28.925 -24.925 -15.162  0.00  0.00    +0.389 N 
ATOM      3  H1  CYS A   1      29.833 -25.248 -15.496  0.00  0.00    -0.088 HD
ATOM      4  H2  CYS A   1      28.184 -25.434 -15.646  0.00  0.00    -0.088 HD
ATOM      5  H3  CYS A   1      28.852 -25.093 -14.159  0.00  0.00    -0.088 HD
ENDBRANCH   1   2
BRANCH   1   8
ATOM      6  O   CYS A   1      27.785 -24.107 -17.486  0.00  0.00    -0.248 OA
ATOM      7  OXT CYS A   1      28.261 -21.901 -17.154  0.00  0.00    -0.248 OA
ATOM      8  C   CYS A   1      28.213 -23.120 -16.824  0.00  0.00    +0.346 C 
ENDBRANCH   1   8
BRANCH   1   9
ATOM      9  CB  CYS A   1      30.119 -22.804 -15.072  0.00  0.00    +0.043 C 
BRANCH   9  10
ATOM     10  SG  CYS A   1      31.489 -23.281 -16.176  0.00  0.00    -0.170 S 
ATOM     11  HG  CYS A   1      32.667 -23.186 -15.504  0.00  0.00    +0.102 HD
ENDBRANCH   9  10
ENDBRANCH   1   9
TORSDOF 4
ENDMDL
MODEL 7
REMARK VINA RESULT:      -4.0      2.667      3.073
REMARK  Name = 6419722
REMARK  4 active torsions:
REMARK  status: ('A' for Active; 'I' for Inactive)
REMARK    1  A    between atoms: CA_1  and  N_2
REMARK    2  A    between atoms: CA_1  and  C_8
REMARK    3  A    between atoms: CA_1  and  CB_9
REMARK    4  A    between atoms: CB_9  and  SG_10
REMARK                            x       y       z     vdW  Elec       q    Type
REMARK                         _______ _______ _______ _____ _____    ______ ____
ROOT
ATOM      1  CA  CYS A   1      36.617 -25.523 -14.227  0.00  0.00    +0.051 C 
ENDROOT
BRANCH   1   2
ATOM      2  N   CYS A   1      35.152 -25.246 -14.388  0.00  0.00    +0.389 N 
ATOM      3  H1  CYS A   1      34.900 -25.309 -15.374  0.00  0.00    -0.088 HD
ATOM      4  H2  CYS A   1      34.944 -24.308 -14.043  0.00  0.00    -0.088 HD
ATOM      5  H3  CYS A   1      34.617 -25.930 -13.854  0.00  0.00    -0.088 HD
ENDBRANCH   1   2
BRANCH   1   8
ATOM      6  O   CYS A   1      38.257 -27.169 -14.700  0.00  0.00    -0.248 OA
ATOM      7  OXT CYS A   1      36.403 -27.064 -16.025  0.00  0.00    -0.248 OA
ATOM      8  C   CYS A   1      37.138 -26.707 -15.062  0.00  0.00    +0.346 C 
ENDBRANCH   1   8
BRANCH   1   9
ATOM      9  CB  CYS A   1      36.901 -25.576 -12.724  0.00  0.00    +0.043 C 
BRANCH   9  10
ATOM     10  SG  CYS A   1      38.013 -24.253 -12.145  0.00  0.00    -0.170 S 
ATOM     11  HG  CYS A   1      37.649 -23.073 -12.716  0.00  0.00    +0.102 HD
ENDBRANCH   9  10
ENDBRANCH   1   9
TORSDOF 4
ENDMDL
MODEL 8
REMARK VINA RESULT:      -4.0     10.370     10.800
REMARK  Name = 6419722
REMARK  4 active torsions:
REMARK  status: ('A' for Active; 'I' for Inactive)
REMARK    1  A    between atoms: CA_1  and  N_2
REMARK    2  A    between atoms: CA_1  and  C_8
REMARK    3  A    between atoms: CA_1  and  CB_9
REMARK    4  A    between atoms: CB_9  and  SG_10
REMARK                            x       y       z     vdW  Elec       q    Type
REMARK                         _______ _______ _______ _____ _____    ______ ____
ROOT
ATOM      1  CA  CYS A   1      42.210 -15.644 -17.843  0.00  0.00    +0.051 C 
ENDROOT
BRANCH   1   2
ATOM      2  N   CYS A   1      42.284 -16.321 -19.179  0.00  0.00    +0.389 N 
ATOM      3  H1  CYS A   1      42.853 -15.760 -19.814  0.00  0.00    -0.088 HD
ATOM      4  H2  CYS A   1      41.344 -16.419 -19.563  0.00  0.00    -0.088 HD
ATOM      5  H3  CYS A   1      42.704 -17.244 -19.069  0.00  0.00    -0.088 HD
ENDBRANCH   1   2
BRANCH   1   8
ATOM      6  O   CYS A   1      41.950 -16.070 -15.525  0.00  0.00    -0.248 OA
ATOM      7  OXT CYS A   1      41.442 -17.731 -17.004  0.00  0.00    -0.248 OA
ATOM      8  C   CYS A   1      41.821 -16.571 -16.678  0.00  0.00    +0.346 C 
ENDBRANCH   1   8
BRANCH   1   9
ATOM      9  CB  CYS A   1      41.354 -14.387 -18.025  0.00  0.00    +0.043 C 
BRANCH   9  10
ATOM     10  SG  CYS A   1      42.143 -12.871 -17.390  0.00  0.00    -0.170 S 
ATOM     11  HG  CYS A   1      42.150 -12.899 -16.031  0.00  0.00    +0.102 HD
ENDBRANCH   9  10
ENDBRANCH   1   9
TORSDOF 4
ENDMDL
MODEL 9
REMARK VINA RESULT:      -4.0      2.990      3.469
REMARK  Name = 6419722
REMARK  4 active torsions:
REMARK  status: ('A' for Active; 'I' for Inactive)
REMARK    1  A    between atoms: CA_1  and  N_2
REMARK    2  A    between atoms: CA_1  and  C_8
REMARK    3  A    between atoms: CA_1  and  CB_9
REMARK    4  A    between atoms: CB_9  and  SG_10
REMARK                            x       y       z     vdW  Elec       q    Type
REMARK                         _______ _______ _______ _____ _____    ______ ____
ROOT
ATOM      1  CA  CYS A   1      36.825 -25.290 -14.807  0.00  0.00    +0.051 C 
ENDROOT
BRANCH   1   2
ATOM      2  N   CYS A   1      37.633 -24.192 -15.431  0.00  0.00    +0.389 N 
ATOM      3  H1  CYS A   1      37.055 -23.680 -16.098  0.00  0.00    -0.088 HD
ATOM      4  H2  CYS A   1      38.435 -24.594 -15.916  0.00  0.00    -0.088 HD
ATOM      5  H3  CYS A   1      37.959 -23.555 -14.704  0.00  0.00    -0.088 HD
ENDBRANCH   1   2
BRANCH   1   8
ATOM      6  O   CYS A   1      38.242 -27.175 -14.562  0.00  0.00    -0.248 OA
ATOM      7  OXT CYS A   1      36.607 -27.239 -16.151  0.00  0.00    -0.248 OA
ATOM      8  C   CYS A   1      37.261 -26.710 -15.208  0.00  0.00    +0.346 C 
ENDBRANCH   1   8
BRANCH   1   9
ATOM      9  CB  CYS A   1      35.350 -24.944 -15.031  0.00  0.00    +0.043 C 
BRANCH   9  10
ATOM     10  SG  CYS A   1      34.562 -24.145 -13.595  0.00  0.00    -0.170 S 
ATOM     11  HG  CYS A   1      35.354 -23.133 -13.149  0.00  0.00    +0.102 HD
ENDBRANCH   9  10
ENDBRANCH   1   9
TORSDOF 4
ENDMDL
