MODEL 1
REMARK VINA RESULT:      -6.2      0.000      0.000
REMARK  Name = 1549100
REMARK  8 active torsions:
REMARK  status: ('A' for Active; 'I' for Inactive)
REMARK    1  A    between atoms: C_1  and  C_2
REMARK    2  A    between atoms: C_1  and  C_11
REMARK    3  A    between atoms: C_2  and  CA_3
REMARK    4  A    between atoms: CA_3  and  N_4
REMARK    5  A    between atoms: CA_3  and  C_10
REMARK    6  A    between atoms: C_11  and  CA_12
REMARK    7  A    between atoms: CA_12  and  N_13
REMARK    8  A    between atoms: CA_12  and  C_19
REMARK                            x       y       z     vdW  Elec       q    Type
REMARK                         _______ _______ _______ _____ _____    ______ ____
ROOT
ATOM      1  C   UNL     1      37.418 -23.755 -14.151  0.00  0.00    -0.003 C 
ENDROOT
BRANCH   1   2
ATOM      2  C   UNL     1      36.034 -23.755 -13.490  0.00  0.00    -0.011 C 
BRANCH   2   3
ATOM      3  CA  UNL     1      36.107 -23.434 -11.992  0.00  0.00    +0.040 C 
BRANCH   3   4
ATOM      4  N   UNL     1      37.442 -22.798 -11.751  0.00  0.00    +0.389 N 
ATOM      5  H1  UNL     1      37.672 -22.184 -12.532  0.00  0.00    -0.088 HD
ATOM      6  H2  UNL     1      38.154 -23.524 -11.667  0.00  0.00    -0.088 HD
ATOM      7  H3  UNL     1      37.408 -22.254 -10.889  0.00  0.00    -0.088 HD
ENDBRANCH   3   4
BRANCH   3  10
ATOM      8  O   UNL     1      36.240 -25.766 -11.534  0.00  0.00    -0.248 OA
ATOM      9  OXT UNL     1      35.370 -24.364  -9.952  0.00  0.00    -0.248 OA
ATOM     10  C   UNL     1      35.891 -24.644 -11.070  0.00  0.00    +0.345 C 
ENDBRANCH   3  10
ENDBRANCH   2   3
ENDBRANCH   1   2
BRANCH   1  11
ATOM     11  C   UNL     1      37.661 -25.063 -14.918  0.00  0.00    -0.011 C 
BRANCH  11  12
ATOM     12  CA  UNL     1      38.831 -25.901 -14.386  0.00  0.00    +0.040 C 
BRANCH  12  13
ATOM     13  N   UNL     1      38.740 -25.964 -12.893  0.00  0.00    +0.389 N 
ATOM     14  H1  UNL     1      39.676 -26.059 -12.498  0.00  0.00    -0.088 HD
ATOM     15  H2  UNL     1      38.173 -26.768 -12.622  0.00  0.00    -0.088 HD
ATOM     16  H3  UNL     1      38.308 -25.109 -12.542  0.00  0.00    -0.088 HD
ENDBRANCH  12  13
BRANCH  12  19
ATOM     17  O   UNL     1      40.572 -26.053 -15.989  0.00  0.00    -0.248 OA
ATOM     18  OXT UNL     1      40.840 -24.639 -14.219  0.00  0.00    -0.248 OA
ATOM     19  C   UNL     1      40.220 -25.496 -14.909  0.00  0.00    +0.345 C 
ENDBRANCH  12  19
ENDBRANCH  11  12
ENDBRANCH   1  11
TORSDOF 8
ENDMDL
MODEL 2
REMARK VINA RESULT:      -6.1      1.162      4.682
REMARK  Name = 1549100
REMARK  8 active torsions:
REMARK  status: ('A' for Active; 'I' for Inactive)
REMARK    1  A    between atoms: C_1  and  C_2
REMARK    2  A    between atoms: C_1  and  C_11
REMARK    3  A    between atoms: C_2  and  CA_3
REMARK    4  A    between atoms: CA_3  and  N_4
REMARK    5  A    between atoms: CA_3  and  C_10
REMARK    6  A    between atoms: C_11  and  CA_12
REMARK    7  A    between atoms: CA_12  and  N_13
REMARK    8  A    between atoms: CA_12  and  C_19
REMARK                            x       y       z     vdW  Elec       q    Type
REMARK                         _______ _______ _______ _____ _____    ______ ____
ROOT
ATOM      1  C   UNL     1      37.361 -23.695 -14.260  0.00  0.00    -0.003 C 
ENDROOT
BRANCH   1   2
ATOM      2  C   UNL     1      36.832 -24.910 -15.032  0.00  0.00    -0.011 C 
BRANCH   2   3
ATOM      3  CA  UNL     1      37.573 -26.200 -14.661  0.00  0.00    +0.040 C 
BRANCH   3   4
ATOM      4  N   UNL     1      36.883 -26.763 -13.456  0.00  0.00    +0.389 N 
ATOM      5  H1  UNL     1      37.199 -27.720 -13.299  0.00  0.00    -0.088 HD
ATOM      6  H2  UNL     1      35.874 -26.759 -13.609  0.00  0.00    -0.088 HD
ATOM      7  H3  UNL     1      37.106 -26.192 -12.641  0.00  0.00    -0.088 HD
ENDBRANCH   3   4
BRANCH   3  10
ATOM      8  O   UNL     1      39.802 -25.899 -15.437  0.00  0.00    -0.248 OA
ATOM      9  OXT UNL     1      39.410 -26.033 -13.190  0.00  0.00    -0.248 OA
ATOM     10  C   UNL     1      39.078 -26.021 -14.410  0.00  0.00    +0.345 C 
ENDBRANCH   3  10
ENDBRANCH   2   3
ENDBRANCH   1   2
BRANCH   1  11
ATOM     11  C   UNL     1      36.319 -23.186 -13.254  0.00  0.00    -0.011 C 
BRANCH  11  12
ATOM     12  CA  UNL     1      36.731 -23.338 -11.784  0.00  0.00    +0.040 C 
BRANCH  12  13
ATOM     13  N   UNL     1      38.188 -23.677 -11.724  0.00  0.00    +0.389 N 
ATOM     14  H1  UNL     1      38.659 -23.041 -11.081  0.00  0.00    -0.088 HD
ATOM     15  H2  UNL     1      38.596 -23.584 -12.654  0.00  0.00    -0.088 HD
ATOM     16  H3  UNL     1      38.301 -24.636 -11.397  0.00  0.00    -0.088 HD
ENDBRANCH  12  13
BRANCH  12  19
ATOM     17  O   UNL     1      35.029 -24.979 -11.606  0.00  0.00    -0.248 OA
ATOM     18  OXT UNL     1      36.031 -24.237  -9.696  0.00  0.00    -0.248 OA
ATOM     19  C   UNL     1      35.839 -24.268 -10.945  0.00  0.00    +0.345 C 
ENDBRANCH  12  19
ENDBRANCH  11  12
ENDBRANCH   1  11
TORSDOF 8
ENDMDL
MODEL 3
REMARK VINA RESULT:      -6.0      1.785      4.960
REMARK  Name = 1549100
REMARK  8 active torsions:
REMARK  status: ('A' for Active; 'I' for Inactive)
REMARK    1  A    between atoms: C_1  and  C_2
REMARK    2  A    between atoms: C_1  and  C_11
REMARK    3  A    between atoms: C_2  and  CA_3
REMARK    4  A    between atoms: CA_3  and  N_4
REMARK    5  A    between atoms: CA_3  and  C_10
REMARK    6  A    between atoms: C_11  and  CA_12
REMARK    7  A    between atoms: CA_12  and  N_13
REMARK    8  A    between atoms: CA_12  and  C_19
REMARK                            x       y       z     vdW  Elec       q    Type
REMARK                         _______ _______ _______ _____ _____    ______ ____
ROOT
ATOM      1  C   UNL     1      36.350 -25.636 -14.298  0.00  0.00    -0.003 C 
ENDROOT
BRANCH   1   2
ATOM      2  C   UNL     1      37.678 -26.020 -14.962  0.00  0.00    -0.011 C 
BRANCH   2   3
ATOM      3  CA  UNL     1      38.786 -25.001 -14.674  0.00  0.00    +0.040 C 
BRANCH   3   4
ATOM      4  N   UNL     1      38.674 -23.934 -15.720  0.00  0.00    +0.389 N 
ATOM      5  H1  UNL     1      38.886 -23.027 -15.304  0.00  0.00    -0.088 HD
ATOM      6  H2  UNL     1      37.724 -23.924 -16.094  0.00  0.00    -0.088 HD
ATOM      7  H3  UNL     1      39.334 -24.127 -16.473  0.00  0.00    -0.088 HD
ENDBRANCH   3   4
BRANCH   3  10
ATOM      8  O   UNL     1      40.276 -26.855 -14.593  0.00  0.00    -0.248 OA
ATOM      9  OXT UNL     1      41.131 -24.736 -14.627  0.00  0.00    -0.248 OA
ATOM     10  C   UNL     1      40.203 -25.595 -14.633  0.00  0.00    +0.345 C 
ENDBRANCH   3  10
ENDBRANCH   2   3
ENDBRANCH   1   2
BRANCH   1  11
ATOM     11  C   UNL     1      36.536 -25.392 -12.794  0.00  0.00    -0.011 C 
BRANCH  11  12
ATOM     12  CA  UNL     1      35.879 -24.107 -12.274  0.00  0.00    +0.040 C 
BRANCH  12  13
ATOM     13  N   UNL     1      35.628 -23.191 -13.432  0.00  0.00    +0.389 N 
ATOM     14  H1  UNL     1      35.616 -23.731 -14.297  0.00  0.00    -0.088 HD
ATOM     15  H2  UNL     1      36.370 -22.493 -13.478  0.00  0.00    -0.088 HD
ATOM     16  H3  UNL     1      34.729 -22.725 -13.308  0.00  0.00    -0.088 HD
ENDBRANCH  12  13
BRANCH  12  19
ATOM     17  O   UNL     1      37.278 -22.411 -11.385  0.00  0.00    -0.248 OA
ATOM     18  OXT UNL     1      36.404 -23.963  -9.960  0.00  0.00    -0.248 OA
ATOM     19  C   UNL     1      36.596 -23.435 -11.091  0.00  0.00    +0.345 C 
ENDBRANCH  12  19
ENDBRANCH  11  12
ENDBRANCH   1  11
TORSDOF 8
ENDMDL
MODEL 4
REMARK VINA RESULT:      -5.9      1.826      2.365
REMARK  Name = 1549100
REMARK  8 active torsions:
REMARK  status: ('A' for Active; 'I' for Inactive)
REMARK    1  A    between atoms: C_1  and  C_2
REMARK    2  A    between atoms: C_1  and  C_11
REMARK    3  A    between atoms: C_2  and  CA_3
REMARK    4  A    between atoms: CA_3  and  N_4
REMARK    5  A    between atoms: CA_3  and  C_10
REMARK    6  A    between atoms: C_11  and  CA_12
REMARK    7  A    between atoms: CA_12  and  N_13
REMARK    8  A    between atoms: CA_12  and  C_19
REMARK                            x       y       z     vdW  Elec       q    Type
REMARK                         _______ _______ _______ _____ _____    ______ ____
ROOT
ATOM      1  C   UNL     1      37.648 -23.591 -13.987  0.00  0.00    -0.003 C 
ENDROOT
BRANCH   1   2
ATOM      2  C   UNL     1      36.527 -23.111 -13.057  0.00  0.00    -0.011 C 
BRANCH   2   3
ATOM      3  CA  UNL     1      36.822 -23.421 -11.585  0.00  0.00    +0.040 C 
BRANCH   3   4
ATOM      4  N   UNL     1      38.158 -24.097 -11.546  0.00  0.00    +0.389 N 
ATOM      5  H1  UNL     1      38.890 -23.396 -11.433  0.00  0.00    -0.088 HD
ATOM      6  H2  UNL     1      38.307 -24.608 -12.417  0.00  0.00    -0.088 HD
ATOM      7  H3  UNL     1      38.186 -24.748 -10.761  0.00  0.00    -0.088 HD
ENDBRANCH   3   4
BRANCH   3  10
ATOM      8  O   UNL     1      35.843 -24.357  -9.628  0.00  0.00    -0.248 OA
ATOM      9  OXT UNL     1      34.901 -24.789 -11.665  0.00  0.00    -0.248 OA
ATOM     10  C   UNL     1      35.748 -24.268 -10.885  0.00  0.00    +0.345 C 
ENDBRANCH   3  10
ENDBRANCH   2   3
ENDBRANCH   1   2
BRANCH   1  11
ATOM     11  C   UNL     1      37.073 -24.240 -15.254  0.00  0.00    -0.011 C 
BRANCH  11  12
ATOM     12  CA  UNL     1      36.574 -25.678 -15.058  0.00  0.00    +0.040 C 
BRANCH  12  13
ATOM     13  N   UNL     1      35.136 -25.636 -14.643  0.00  0.00    +0.389 N 
ATOM     14  H1  UNL     1      34.725 -24.746 -14.926  0.00  0.00    -0.088 HD
ATOM     15  H2  UNL     1      35.073 -25.732 -13.629  0.00  0.00    -0.088 HD
ATOM     16  H3  UNL     1      34.631 -26.402 -15.090  0.00  0.00    -0.088 HD
ENDBRANCH  12  13
BRANCH  12  19
ATOM     17  O   UNL     1      38.529 -26.968 -14.693  0.00  0.00    -0.248 OA
ATOM     18  OXT UNL     1      37.024 -26.764 -12.991  0.00  0.00    -0.248 OA
ATOM     19  C   UNL     1      37.456 -26.563 -14.161  0.00  0.00    +0.345 C 
ENDBRANCH  12  19
ENDBRANCH  11  12
ENDBRANCH   1  11
TORSDOF 8
ENDMDL
MODEL 5
REMARK VINA RESULT:      -5.9      1.411      5.149
REMARK  Name = 1549100
REMARK  8 active torsions:
REMARK  status: ('A' for Active; 'I' for Inactive)
REMARK    1  A    between atoms: C_1  and  C_2
REMARK    2  A    between atoms: C_1  and  C_11
REMARK    3  A    between atoms: C_2  and  CA_3
REMARK    4  A    between atoms: CA_3  and  N_4
REMARK    5  A    between atoms: CA_3  and  C_10
REMARK    6  A    between atoms: C_11  and  CA_12
REMARK    7  A    between atoms: CA_12  and  N_13
REMARK    8  A    between atoms: CA_12  and  C_19
REMARK                            x       y       z     vdW  Elec       q    Type
REMARK                         _______ _______ _______ _____ _____    ______ ____
ROOT
ATOM      1  C   UNL     1      36.805 -24.521 -14.757  0.00  0.00    -0.003 C 
ENDROOT
BRANCH   1   2
ATOM      2  C   UNL     1      38.335 -24.452 -14.838  0.00  0.00    -0.011 C 
BRANCH   2   3
ATOM      3  CA  UNL     1      38.996 -25.776 -14.438  0.00  0.00    +0.040 C 
BRANCH   3   4
ATOM      4  N   UNL     1      38.533 -26.087 -13.047  0.00  0.00    +0.389 N 
ATOM      5  H1  UNL     1      38.733 -27.064 -12.833  0.00  0.00    -0.088 HD
ATOM      6  H2  UNL     1      37.528 -25.922 -12.978  0.00  0.00    -0.088 HD
ATOM      7  H3  UNL     1      39.023 -25.485 -12.384  0.00  0.00    -0.088 HD
ENDBRANCH   3   4
BRANCH   3  10
ATOM      8  O   UNL     1      41.080 -24.643 -14.631  0.00  0.00    -0.248 OA
ATOM      9  OXT UNL     1      41.056 -26.925 -14.504  0.00  0.00    -0.248 OA
ATOM     10  C   UNL     1      40.529 -25.775 -14.528  0.00  0.00    +0.345 C 
ENDBRANCH   3  10
ENDBRANCH   2   3
ENDBRANCH   1   2
BRANCH   1  11
ATOM     11  C   UNL     1      36.265 -23.548 -13.700  0.00  0.00    -0.011 C 
BRANCH  11  12
ATOM     12  CA  UNL     1      35.329 -24.190 -12.667  0.00  0.00    +0.040 C 
BRANCH  12  13
ATOM     13  N   UNL     1      33.976 -23.559 -12.784  0.00  0.00    +0.389 N 
ATOM     14  H1  UNL     1      33.259 -24.245 -12.549  0.00  0.00    -0.088 HD
ATOM     15  H2  UNL     1      33.835 -23.235 -13.741  0.00  0.00    -0.088 HD
ATOM     16  H3  UNL     1      33.913 -22.768 -12.144  0.00  0.00    -0.088 HD
ENDBRANCH  12  13
BRANCH  12  19
ATOM     17  O   UNL     1      35.283 -25.049 -10.458  0.00  0.00    -0.248 OA
ATOM     18  OXT UNL     1      36.857 -23.485 -10.987  0.00  0.00    -0.248 OA
ATOM     19  C   UNL     1      35.872 -24.238 -11.229  0.00  0.00    +0.345 C 
ENDBRANCH  12  19
ENDBRANCH  11  12
ENDBRANCH   1  11
TORSDOF 8
ENDMDL
MODEL 6
REMARK VINA RESULT:      -5.8      2.562      4.846
REMARK  Name = 1549100
REMARK  8 active torsions:
REMARK  status: ('A' for Active; 'I' for Inactive)
REMARK    1  A    between atoms: C_1  and  C_2
REMARK    2  A    between atoms: C_1  and  C_11
REMARK    3  A    between atoms: C_2  and  CA_3
REMARK    4  A    between atoms: CA_3  and  N_4
REMARK    5  A    between atoms: CA_3  and  C_10
REMARK    6  A    between atoms: C_11  and  CA_12
REMARK    7  A    between atoms: CA_12  and  N_13
REMARK    8  A    between atoms: CA_12  and  C_19
REMARK                            x       y       z     vdW  Elec       q    Type
REMARK                         _______ _______ _______ _____ _____    ______ ____
ROOT
ATOM      1  C   UNL     1      37.508 -23.928 -12.936  0.00  0.00    -0.003 C 
ENDROOT
BRANCH   1   2
ATOM      2  C   UNL     1      38.597 -25.004 -12.857  0.00  0.00    -0.011 C 
BRANCH   2   3
ATOM      3  CA  UNL     1      38.976 -25.548 -14.240  0.00  0.00    +0.040 C 
BRANCH   3   4
ATOM      4  N   UNL     1      38.299 -26.877 -14.381  0.00  0.00    +0.389 N 
ATOM      5  H1  UNL     1      38.058 -27.237 -13.458  0.00  0.00    -0.088 HD
ATOM      6  H2  UNL     1      38.928 -27.531 -14.848  0.00  0.00    -0.088 HD
ATOM      7  H3  UNL     1      37.450 -26.768 -14.937  0.00  0.00    -0.088 HD
ENDBRANCH   3   4
BRANCH   3  10
ATOM      8  O   UNL     1      40.955 -26.836 -14.533  0.00  0.00    -0.248 OA
ATOM      9  OXT UNL     1      41.085 -24.555 -14.601  0.00  0.00    -0.248 OA
ATOM     10  C   UNL     1      40.487 -25.663 -14.487  0.00  0.00    +0.345 C 
ENDBRANCH   3  10
ENDBRANCH   2   3
ENDBRANCH   1   2
BRANCH   1  11
ATOM     11  C   UNL     1      36.114 -24.540 -12.737  0.00  0.00    -0.011 C 
BRANCH  11  12
ATOM     12  CA  UNL     1      35.109 -24.198 -13.845  0.00  0.00    +0.040 C 
BRANCH  12  13
ATOM     13  N   UNL     1      33.765 -24.734 -13.460  0.00  0.00    +0.389 N 
ATOM     14  H1  UNL     1      33.706 -24.809 -12.445  0.00  0.00    -0.088 HD
ATOM     15  H2  UNL     1      33.637 -25.657 -13.877  0.00  0.00    -0.088 HD
ATOM     16  H3  UNL     1      33.038 -24.105 -13.799  0.00  0.00    -0.088 HD
ENDBRANCH  12  13
BRANCH  12  19
ATOM     17  O   UNL     1      35.700 -23.605 -16.063  0.00  0.00    -0.248 OA
ATOM     18  OXT UNL     1      35.729 -25.809 -15.480  0.00  0.00    -0.248 OA
ATOM     19  C   UNL     1      35.547 -24.577 -15.270  0.00  0.00    +0.345 C 
ENDBRANCH  12  19
ENDBRANCH  11  12
ENDBRANCH   1  11
TORSDOF 8
ENDMDL
MODEL 7
REMARK VINA RESULT:      -5.8      2.433      3.011
REMARK  Name = 1549100
REMARK  8 active torsions:
REMARK  status: ('A' for Active; 'I' for Inactive)
REMARK    1  A    between atoms: C_1  and  C_2
REMARK    2  A    between atoms: C_1  and  C_11
REMARK    3  A    between atoms: C_2  and  CA_3
REMARK    4  A    between atoms: CA_3  and  N_4
REMARK    5  A    between atoms: CA_3  and  C_10
REMARK    6  A    between atoms: C_11  and  CA_12
REMARK    7  A    between atoms: CA_12  and  N_13
REMARK    8  A    between atoms: CA_12  and  C_19
REMARK                            x       y       z     vdW  Elec       q    Type
REMARK                         _______ _______ _______ _____ _____    ______ ____
ROOT
ATOM      1  C   UNL     1      37.150 -24.872 -12.506  0.00  0.00    -0.003 C 
ENDROOT
BRANCH   1   2
ATOM      2  C   UNL     1      36.577 -23.559 -13.055  0.00  0.00    -0.011 C 
BRANCH   2   3
ATOM      3  CA  UNL     1      35.336 -23.788 -13.926  0.00  0.00    +0.040 C 
BRANCH   3   4
ATOM      4  N   UNL     1      34.459 -24.750 -13.184  0.00  0.00    +0.389 N 
ATOM      5  H1  UNL     1      34.494 -24.543 -12.187  0.00  0.00    -0.088 HD
ATOM      6  H2  UNL     1      34.788 -25.703 -13.346  0.00  0.00    -0.088 HD
ATOM      7  H3  UNL     1      33.499 -24.661 -13.518  0.00  0.00    -0.088 HD
ENDBRANCH   3   4
BRANCH   3  10
ATOM      8  O   UNL     1      35.572 -25.538 -15.520  0.00  0.00    -0.248 OA
ATOM      9  OXT UNL     1      35.933 -23.377 -16.171  0.00  0.00    -0.248 OA
ATOM     10  C   UNL     1      35.637 -24.288 -15.346  0.00  0.00    +0.345 C 
ENDBRANCH   3  10
ENDBRANCH   2   3
ENDBRANCH   1   2
BRANCH   1  11
ATOM     11  C   UNL     1      38.624 -25.037 -12.902  0.00  0.00    -0.011 C 
BRANCH  11  12
ATOM     12  CA  UNL     1      38.843 -25.506 -14.347  0.00  0.00    +0.040 C 
BRANCH  12  13
ATOM     13  N   UNL     1      38.238 -26.865 -14.510  0.00  0.00    +0.389 N 
ATOM     14  H1  UNL     1      38.668 -27.511 -13.849  0.00  0.00    -0.088 HD
ATOM     15  H2  UNL     1      38.399 -27.195 -15.462  0.00  0.00    -0.088 HD
ATOM     16  H3  UNL     1      37.235 -26.814 -14.332  0.00  0.00    -0.088 HD
ENDBRANCH  12  13
BRANCH  12  19
ATOM     17  O   UNL     1      41.040 -24.625 -14.199  0.00  0.00    -0.248 OA
ATOM     18  OXT UNL     1      40.572 -26.118 -15.859  0.00  0.00    -0.248 OA
ATOM     19  C   UNL     1      40.290 -25.402 -14.858  0.00  0.00    +0.345 C 
ENDBRANCH  12  19
ENDBRANCH  11  12
ENDBRANCH   1  11
TORSDOF 8
ENDMDL
MODEL 8
REMARK VINA RESULT:      -5.7     10.219     11.491
REMARK  Name = 1549100
REMARK  8 active torsions:
REMARK  status: ('A' for Active; 'I' for Inactive)
REMARK    1  A    between atoms: C_1  and  C_2
REMARK    2  A    between atoms: C_1  and  C_11
REMARK    3  A    between atoms: C_2  and  CA_3
REMARK    4  A    between atoms: CA_3  and  N_4
REMARK    5  A    between atoms: CA_3  and  C_10
REMARK    6  A    between atoms: C_11  and  CA_12
REMARK    7  A    between atoms: CA_12  and  N_13
REMARK    8  A    between atoms: CA_12  and  C_19
REMARK                            x       y       z     vdW  Elec       q    Type
REMARK                         _______ _______ _______ _____ _____    ______ ____
ROOT
ATOM      1  C   UNL     1      34.601 -19.227 -21.330  0.00  0.00    -0.003 C 
ENDROOT
BRANCH   1   2
ATOM      2  C   UNL     1      34.338 -19.252 -22.841  0.00  0.00    -0.011 C 
BRANCH   2   3
ATOM      3  CA  UNL     1      35.434 -18.527 -23.631  0.00  0.00    +0.040 C 
BRANCH   3   4
ATOM      4  N   UNL     1      36.464 -18.085 -22.638  0.00  0.00    +0.389 N 
ATOM      5  H1  UNL     1      37.270 -18.707 -22.684  0.00  0.00    -0.088 HD
ATOM      6  H2  UNL     1      36.064 -18.115 -21.698  0.00  0.00    -0.088 HD
ATOM      7  H3  UNL     1      36.755 -17.131 -22.852  0.00  0.00    -0.088 HD
ENDBRANCH   3   4
BRANCH   3  10
ATOM      8  O   UNL     1      35.020 -16.205 -23.945  0.00  0.00    -0.248 OA
ATOM      9  OXT UNL     1      34.476 -17.672 -25.611  0.00  0.00    -0.248 OA
ATOM     10  C   UNL     1      34.933 -17.347 -24.478  0.00  0.00    +0.345 C 
ENDBRANCH   3  10
ENDBRANCH   2   3
ENDBRANCH   1   2
BRANCH   1  11
ATOM     11  C   UNL     1      33.702 -20.233 -20.598  0.00  0.00    -0.011 C 
BRANCH  11  12
ATOM     12  CA  UNL     1      34.448 -21.167 -19.635  0.00  0.00    +0.040 C 
BRANCH  12  13
ATOM     13  N   UNL     1      35.805 -21.456 -20.198  0.00  0.00    +0.389 N 
ATOM     14  H1  UNL     1      35.768 -22.310 -20.754  0.00  0.00    -0.088 HD
ATOM     15  H2  UNL     1      36.470 -21.575 -19.434  0.00  0.00    -0.088 HD
ATOM     16  H3  UNL     1      36.101 -20.678 -20.788  0.00  0.00    -0.088 HD
ENDBRANCH  12  13
BRANCH  12  19
ATOM     17  O   UNL     1      32.610 -22.201 -18.554  0.00  0.00    -0.248 OA
ATOM     18  OXT UNL     1      34.167 -23.527 -19.565  0.00  0.00    -0.248 OA
ATOM     19  C   UNL     1      33.672 -22.422 -19.203  0.00  0.00    +0.345 C 
ENDBRANCH  12  19
ENDBRANCH  11  12
ENDBRANCH   1  11
TORSDOF 8
ENDMDL
MODEL 9
REMARK VINA RESULT:      -5.7     10.251     11.167
REMARK  Name = 1549100
REMARK  8 active torsions:
REMARK  status: ('A' for Active; 'I' for Inactive)
REMARK    1  A    between atoms: C_1  and  C_2
REMARK    2  A    between atoms: C_1  and  C_11
REMARK    3  A    between atoms: C_2  and  CA_3
REMARK    4  A    between atoms: CA_3  and  N_4
REMARK    5  A    between atoms: CA_3  and  C_10
REMARK    6  A    between atoms: C_11  and  CA_12
REMARK    7  A    between atoms: CA_12  and  N_13
REMARK    8  A    between atoms: CA_12  and  C_19
REMARK                            x       y       z     vdW  Elec       q    Type
REMARK                         _______ _______ _______ _____ _____    ______ ____
ROOT
ATOM      1  C   UNL     1      34.737 -19.377 -22.192  0.00  0.00    -0.003 C 
ENDROOT
BRANCH   1   2
ATOM      2  C   UNL     1      35.608 -18.121 -22.321  0.00  0.00    -0.011 C 
BRANCH   2   3
ATOM      3  CA  UNL     1      34.794 -16.894 -22.748  0.00  0.00    +0.040 C 
BRANCH   3   4
ATOM      4  N   UNL     1      35.367 -16.428 -24.051  0.00  0.00    +0.389 N 
ATOM      5  H1  UNL     1      36.118 -17.056 -24.337  0.00  0.00    -0.088 HD
ATOM      6  H2  UNL     1      35.737 -15.482 -23.941  0.00  0.00    -0.088 HD
ATOM      7  H3  UNL     1      34.635 -16.425 -24.762  0.00  0.00    -0.088 HD
ENDBRANCH   3   4
BRANCH   3  10
ATOM      8  O   UNL     1      34.990 -16.090 -20.517  0.00  0.00    -0.248 OA
ATOM      9  OXT UNL     1      34.496 -14.619 -22.195  0.00  0.00    -0.248 OA
ATOM     10  C   UNL     1      34.763 -15.758 -21.714  0.00  0.00    +0.345 C 
ENDBRANCH   3  10
ENDBRANCH   2   3
ENDBRANCH   1   2
BRANCH   1  11
ATOM     11  C   UNL     1      34.068 -19.444 -20.812  0.00  0.00    -0.011 C 
BRANCH  11  12
ATOM     12  CA  UNL     1      33.925 -20.864 -20.246  0.00  0.00    +0.040 C 
BRANCH  12  13
ATOM     13  N   UNL     1      32.657 -20.942 -19.455  0.00  0.00    +0.389 N 
ATOM     14  H1  UNL     1      31.967 -21.488 -19.970  0.00  0.00    -0.088 HD
ATOM     15  H2  UNL     1      32.297 -20.000 -19.298  0.00  0.00    -0.088 HD
ATOM     16  H3  UNL     1      32.843 -21.389 -18.557  0.00  0.00    -0.088 HD
ENDBRANCH  12  13
BRANCH  12  19
ATOM     17  O   UNL     1      35.069 -22.597 -19.103  0.00  0.00    -0.248 OA
ATOM     18  OXT UNL     1      36.129 -20.598 -19.393  0.00  0.00    -0.248 OA
ATOM     19  C   UNL     1      35.159 -21.401 -19.502  0.00  0.00    +0.345 C 
ENDBRANCH  12  19
ENDBRANCH  11  12
ENDBRANCH   1  11
TORSDOF 8
ENDMDL
