MODEL 1
REMARK VINA RESULT:      -9.7      0.000      0.000
REMARK  Name = 5281232
REMARK  10 active torsions:
REMARK  status: ('A' for Active; 'I' for Inactive)
REMARK    1  A    between atoms: C_1  and  C_4
REMARK    2  A    between atoms: C_2  and  C_16
REMARK    3  A    between atoms: C_3  and  C_6
REMARK    4  A    between atoms: C_7  and  C_8
REMARK    5  A    between atoms: C_9  and  C_12
REMARK    6  A    between atoms: C_12  and  O_13
REMARK    7  A    between atoms: C_15  and  C_18
REMARK    8  A    between atoms: C_19  and  C_20
REMARK    9  A    between atoms: C_21  and  C_24
REMARK   10  A    between atoms: C_24  and  O_25
REMARK                            x       y       z     vdW  Elec       q    Type
REMARK                         _______ _______ _______ _____ _____    ______ ____
ROOT
ATOM      1  C   UNL     1      33.714 -14.190 -21.584  0.00  0.00    -0.000 C 
ATOM      2  C   UNL     1      32.440 -13.765 -21.608  0.00  0.00    -0.000 C 
ENDROOT
BRANCH   1   4
ATOM      3  C   UNL     1      34.720 -16.503 -21.633  0.00  0.00    -0.022 C 
ATOM      4  C   UNL     1      34.100 -15.470 -21.022  0.00  0.00    -0.004 C 
ATOM      5  C   UNL     1      35.082 -16.365 -23.094  0.00  0.00    +0.031 C 
BRANCH   3   6
ATOM      6  C   UNL     1      35.067 -17.760 -20.969  0.00  0.00    -0.004 C 
ATOM      7  C   UNL     1      34.662 -18.990 -21.330  0.00  0.00    -0.000 C 
BRANCH   7   8
ATOM      8  C   UNL     1      35.060 -20.212 -20.660  0.00  0.00    +0.002 C 
ATOM      9  C   UNL     1      34.287 -21.018 -19.907  0.00  0.00    +0.054 C 
ATOM     10  C   UNL     1      32.820 -20.815 -19.640  0.00  0.00    +0.038 C 
BRANCH   9  12
ATOM     11  O   UNL     1      35.867 -22.236 -18.575  0.00  0.00    -0.245 OA
ATOM     12  C   UNL     1      34.864 -22.243 -19.276  0.00  0.00    +0.334 C 
BRANCH  12  13
ATOM     13  O   UNL     1      34.165 -23.367 -19.556  0.00  0.00    -0.477 OA
ATOM     14  H   UNL     1      33.420 -23.325 -20.124  0.00  0.00    +0.295 HD
ENDBRANCH  12  13
ENDBRANCH   9  12
ENDBRANCH   7   8
ENDBRANCH   3   6
ENDBRANCH   1   4
BRANCH   2  16
ATOM     15  C   UNL     1      31.581 -11.411 -21.513  0.00  0.00    -0.022 C 
ATOM     16  C   UNL     1      32.047 -12.488 -22.174  0.00  0.00    -0.004 C 
ATOM     17  C   UNL     1      31.450 -11.426 -20.013  0.00  0.00    +0.031 C 
BRANCH  15  18
ATOM     18  C   UNL     1      31.196 -10.144 -22.118  0.00  0.00    -0.004 C 
ATOM     19  C   UNL     1      32.052  -9.151 -22.412  0.00  0.00    -0.000 C 
BRANCH  19  20
ATOM     20  C   UNL     1      31.632  -7.913 -23.039  0.00  0.00    +0.002 C 
ATOM     21  C   UNL     1      31.542  -6.704 -22.453  0.00  0.00    +0.054 C 
ATOM     22  C   UNL     1      31.870  -6.375 -21.024  0.00  0.00    +0.038 C 
BRANCH  21  24
ATOM     23  O   UNL     1      30.534  -4.564 -22.966  0.00  0.00    -0.245 OA
ATOM     24  C   UNL     1      31.076  -5.593 -23.337  0.00  0.00    +0.334 C 
BRANCH  24  25
ATOM     25  O   UNL     1      31.337  -5.871 -24.637  0.00  0.00    -0.477 OA
ATOM     26  H   UNL     1      31.657  -6.718 -24.880  0.00  0.00    +0.295 HD
ENDBRANCH  24  25
ENDBRANCH  21  24
ENDBRANCH  19  20
ENDBRANCH  15  18
ENDBRANCH   2  16
TORSDOF 10
ENDMDL
MODEL 2
REMARK VINA RESULT:      -9.6      5.496     13.640
REMARK  Name = 5281232
REMARK  10 active torsions:
REMARK  status: ('A' for Active; 'I' for Inactive)
REMARK    1  A    between atoms: C_1  and  C_4
REMARK    2  A    between atoms: C_2  and  C_16
REMARK    3  A    between atoms: C_3  and  C_6
REMARK    4  A    between atoms: C_7  and  C_8
REMARK    5  A    between atoms: C_9  and  C_12
REMARK    6  A    between atoms: C_12  and  O_13
REMARK    7  A    between atoms: C_15  and  C_18
REMARK    8  A    between atoms: C_19  and  C_20
REMARK    9  A    between atoms: C_21  and  C_24
REMARK   10  A    between atoms: C_24  and  O_25
REMARK                            x       y       z     vdW  Elec       q    Type
REMARK                         _______ _______ _______ _____ _____    ______ ____
ROOT
ATOM      1  C   UNL     1      34.641 -21.071 -19.614  0.00  0.00    -0.000 C 
ATOM      2  C   UNL     1      33.815 -21.989 -19.083  0.00  0.00    -0.000 C 
ENDROOT
BRANCH   1   4
ATOM      3  C   UNL     1      35.053 -19.399 -21.458  0.00  0.00    -0.022 C 
ATOM      4  C   UNL     1      34.297 -20.301 -20.794  0.00  0.00    -0.004 C 
ATOM      5  C   UNL     1      36.448 -19.113 -20.948  0.00  0.00    +0.031 C 
BRANCH   3   6
ATOM      6  C   UNL     1      34.609 -18.672 -22.647  0.00  0.00    -0.004 C 
ATOM      7  C   UNL     1      34.996 -17.441 -23.019  0.00  0.00    -0.000 C 
BRANCH   7   8
ATOM      8  C   UNL     1      34.553 -16.773 -24.227  0.00  0.00    +0.002 C 
ATOM      9  C   UNL     1      33.825 -15.642 -24.313  0.00  0.00    +0.054 C 
ATOM     10  C   UNL     1      33.353 -14.821 -23.144  0.00  0.00    +0.038 C 
BRANCH   9  12
ATOM     11  O   UNL     1      33.268 -15.783 -26.642  0.00  0.00    -0.245 OA
ATOM     12  C   UNL     1      33.443 -15.092 -25.649  0.00  0.00    +0.334 C 
BRANCH  12  13
ATOM     13  O   UNL     1      33.306 -13.746 -25.650  0.00  0.00    -0.477 OA
ATOM     14  H   UNL     1      33.194 -13.287 -26.460  0.00  0.00    +0.295 HD
ENDBRANCH  12  13
ENDBRANCH   9  12
ENDBRANCH   7   8
ENDBRANCH   3   6
ENDBRANCH   1   4
BRANCH   2  16
ATOM     15  C   UNL     1      33.319 -23.138 -16.910  0.00  0.00    -0.022 C 
ATOM     16  C   UNL     1      34.151 -22.757 -17.899  0.00  0.00    -0.004 C 
ATOM     17  C   UNL     1      31.851 -22.805 -16.968  0.00  0.00    +0.031 C 
BRANCH  15  18
ATOM     18  C   UNL     1      33.694 -23.912 -15.735  0.00  0.00    -0.004 C 
ATOM     19  C   UNL     1      34.457 -23.447 -14.732  0.00  0.00    -0.000 C 
BRANCH  19  20
ATOM     20  C   UNL     1      34.787 -24.242 -13.565  0.00  0.00    +0.002 C 
ATOM     21  C   UNL     1      35.883 -24.121 -12.792  0.00  0.00    +0.054 C 
ATOM     22  C   UNL     1      36.994 -23.125 -12.965  0.00  0.00    +0.038 C 
BRANCH  21  24
ATOM     23  O   UNL     1      35.350 -24.999 -10.601  0.00  0.00    -0.245 OA
ATOM     24  C   UNL     1      35.973 -25.077 -11.648  0.00  0.00    +0.334 C 
BRANCH  24  25
ATOM     25  O   UNL     1      36.851 -26.072 -11.920  0.00  0.00    -0.477 OA
ATOM     26  H   UNL     1      37.170 -26.618 -11.228  0.00  0.00    +0.295 HD
ENDBRANCH  24  25
ENDBRANCH  21  24
ENDBRANCH  19  20
ENDBRANCH  15  18
ENDBRANCH   2  16
TORSDOF 10
ENDMDL
MODEL 3
REMARK VINA RESULT:      -9.5      0.203     12.551
REMARK  Name = 5281232
REMARK  10 active torsions:
REMARK  status: ('A' for Active; 'I' for Inactive)
REMARK    1  A    between atoms: C_1  and  C_4
REMARK    2  A    between atoms: C_2  and  C_16
REMARK    3  A    between atoms: C_3  and  C_6
REMARK    4  A    between atoms: C_7  and  C_8
REMARK    5  A    between atoms: C_9  and  C_12
REMARK    6  A    between atoms: C_12  and  O_13
REMARK    7  A    between atoms: C_15  and  C_18
REMARK    8  A    between atoms: C_19  and  C_20
REMARK    9  A    between atoms: C_21  and  C_24
REMARK   10  A    between atoms: C_24  and  O_25
REMARK                            x       y       z     vdW  Elec       q    Type
REMARK                         _______ _______ _______ _____ _____    ______ ____
ROOT
ATOM      1  C   UNL     1      32.430 -13.789 -21.603  0.00  0.00    -0.000 C 
ATOM      2  C   UNL     1      33.714 -14.177 -21.518  0.00  0.00    -0.000 C 
ENDROOT
BRANCH   1   4
ATOM      3  C   UNL     1      31.589 -11.411 -21.544  0.00  0.00    -0.022 C 
ATOM      4  C   UNL     1      32.035 -12.517 -22.178  0.00  0.00    -0.004 C 
ATOM      5  C   UNL     1      31.463 -11.445 -20.037  0.00  0.00    +0.031 C 
BRANCH   3   6
ATOM      6  C   UNL     1      31.214 -10.170 -22.223  0.00  0.00    -0.004 C 
ATOM      7  C   UNL     1      32.048  -9.188 -22.604  0.00  0.00    -0.000 C 
BRANCH   7   8
ATOM      8  C   UNL     1      31.634  -7.989 -23.307  0.00  0.00    +0.002 C 
ATOM      9  C   UNL     1      31.596  -6.733 -22.821  0.00  0.00    +0.054 C 
ATOM     10  C   UNL     1      32.019  -6.322 -21.437  0.00  0.00    +0.038 C 
BRANCH   9  12
ATOM     11  O   UNL     1      31.347  -5.536 -24.885  0.00  0.00    -0.245 OA
ATOM     12  C   UNL     1      31.129  -5.605 -23.683  0.00  0.00    +0.334 C 
BRANCH  12  13
ATOM     13  O   UNL     1      30.437  -4.665 -23.000  0.00  0.00    -0.477 OA
ATOM     14  H   UNL     1      30.724  -3.772 -23.010  0.00  0.00    +0.295 HD
ENDBRANCH  12  13
ENDBRANCH   9  12
ENDBRANCH   7   8
ENDBRANCH   3   6
ENDBRANCH   1   4
BRANCH   2  16
ATOM     15  C   UNL     1      34.727 -16.470 -21.582  0.00  0.00    -0.022 C 
ATOM     16  C   UNL     1      34.115 -15.450 -20.950  0.00  0.00    -0.004 C 
ATOM     17  C   UNL     1      35.110 -16.356 -23.034  0.00  0.00    +0.031 C 
BRANCH  15  18
ATOM     18  C   UNL     1      35.115 -17.735 -20.976  0.00  0.00    -0.004 C 
ATOM     19  C   UNL     1      34.505 -18.909 -21.212  0.00  0.00    -0.000 C 
BRANCH  19  20
ATOM     20  C   UNL     1      34.938 -20.153 -20.606  0.00  0.00    +0.002 C 
ATOM     21  C   UNL     1      34.181 -21.009 -19.893  0.00  0.00    +0.054 C 
ATOM     22  C   UNL     1      32.718 -20.863 -19.583  0.00  0.00    +0.038 C 
BRANCH  21  24
ATOM     23  O   UNL     1      35.975 -22.231 -18.824  0.00  0.00    -0.245 OA
ATOM     24  C   UNL     1      34.888 -22.220 -19.380  0.00  0.00    +0.334 C 
BRANCH  24  25
ATOM     25  O   UNL     1      34.157 -23.337 -19.609  0.00  0.00    -0.477 OA
ATOM     26  H   UNL     1      34.392 -24.144 -19.194  0.00  0.00    +0.295 HD
ENDBRANCH  24  25
ENDBRANCH  21  24
ENDBRANCH  19  20
ENDBRANCH  15  18
ENDBRANCH   2  16
TORSDOF 10
ENDMDL
MODEL 4
REMARK VINA RESULT:      -9.5      5.448      8.675
REMARK  Name = 5281232
REMARK  10 active torsions:
REMARK  status: ('A' for Active; 'I' for Inactive)
REMARK    1  A    between atoms: C_1  and  C_4
REMARK    2  A    between atoms: C_2  and  C_16
REMARK    3  A    between atoms: C_3  and  C_6
REMARK    4  A    between atoms: C_7  and  C_8
REMARK    5  A    between atoms: C_9  and  C_12
REMARK    6  A    between atoms: C_12  and  O_13
REMARK    7  A    between atoms: C_15  and  C_18
REMARK    8  A    between atoms: C_19  and  C_20
REMARK    9  A    between atoms: C_21  and  C_24
REMARK   10  A    between atoms: C_24  and  O_25
REMARK                            x       y       z     vdW  Elec       q    Type
REMARK                         _______ _______ _______ _____ _____    ______ ____
ROOT
ATOM      1  C   UNL     1      33.901 -22.012 -19.260  0.00  0.00    -0.000 C 
ATOM      2  C   UNL     1      34.546 -20.912 -19.683  0.00  0.00    -0.000 C 
ENDROOT
BRANCH   1   4
ATOM      3  C   UNL     1      33.548 -23.169 -17.046  0.00  0.00    -0.022 C 
ATOM      4  C   UNL     1      34.309 -22.753 -18.082  0.00  0.00    -0.004 C 
ATOM      5  C   UNL     1      32.071 -22.849 -17.062  0.00  0.00    +0.031 C 
BRANCH   3   6
ATOM      6  C   UNL     1      34.063 -23.916 -15.898  0.00  0.00    -0.004 C 
ATOM      7  C   UNL     1      34.051 -23.514 -14.616  0.00  0.00    -0.000 C 
BRANCH   7   8
ATOM      8  C   UNL     1      34.543 -24.305 -13.505  0.00  0.00    +0.002 C 
ATOM      9  C   UNL     1      35.784 -24.290 -12.981  0.00  0.00    +0.054 C 
ATOM     10  C   UNL     1      36.911 -23.405 -13.439  0.00  0.00    +0.038 C 
BRANCH   9  12
ATOM     11  O   UNL     1      37.055 -25.983 -11.853  0.00  0.00    -0.245 OA
ATOM     12  C   UNL     1      36.129 -25.184 -11.835  0.00  0.00    +0.334 C 
BRANCH  12  13
ATOM     13  O   UNL     1      35.313 -25.021 -10.768  0.00  0.00    -0.477 OA
ATOM     14  H   UNL     1      35.353 -24.232 -10.264  0.00  0.00    +0.295 HD
ENDBRANCH  12  13
ENDBRANCH   9  12
ENDBRANCH   7   8
ENDBRANCH   3   6
ENDBRANCH   1   4
BRANCH   2  16
ATOM     15  C   UNL     1      34.856 -19.240 -21.526  0.00  0.00    -0.022 C 
ATOM     16  C   UNL     1      34.138 -20.164 -20.858  0.00  0.00    -0.004 C 
ATOM     17  C   UNL     1      36.262 -18.904 -21.103  0.00  0.00    +0.031 C 
BRANCH  15  18
ATOM     18  C   UNL     1      34.412 -18.509 -22.704  0.00  0.00    -0.004 C 
ATOM     19  C   UNL     1      34.931 -17.339 -23.113  0.00  0.00    -0.000 C 
BRANCH  19  20
ATOM     20  C   UNL     1      34.477 -16.655 -24.308  0.00  0.00    +0.002 C 
ATOM     21  C   UNL     1      33.758 -15.517 -24.360  0.00  0.00    +0.054 C 
ATOM     22  C   UNL     1      33.282 -14.706 -23.189  0.00  0.00    +0.038 C 
BRANCH  21  24
ATOM     23  O   UNL     1      33.254 -15.733 -26.717  0.00  0.00    -0.245 OA
ATOM     24  C   UNL     1      33.422 -15.031 -25.732  0.00  0.00    +0.334 C 
BRANCH  24  25
ATOM     25  O   UNL     1      33.320 -13.681 -25.752  0.00  0.00    -0.477 OA
ATOM     26  H   UNL     1      32.855 -13.235 -25.071  0.00  0.00    +0.295 HD
ENDBRANCH  24  25
ENDBRANCH  21  24
ENDBRANCH  19  20
ENDBRANCH  15  18
ENDBRANCH   2  16
TORSDOF 10
ENDMDL
MODEL 5
REMARK VINA RESULT:      -9.4      5.607     13.718
REMARK  Name = 5281232
REMARK  10 active torsions:
REMARK  status: ('A' for Active; 'I' for Inactive)
REMARK    1  A    between atoms: C_1  and  C_4
REMARK    2  A    between atoms: C_2  and  C_16
REMARK    3  A    between atoms: C_3  and  C_6
REMARK    4  A    between atoms: C_7  and  C_8
REMARK    5  A    between atoms: C_9  and  C_12
REMARK    6  A    between atoms: C_12  and  O_13
REMARK    7  A    between atoms: C_15  and  C_18
REMARK    8  A    between atoms: C_19  and  C_20
REMARK    9  A    between atoms: C_21  and  C_24
REMARK   10  A    between atoms: C_24  and  O_25
REMARK                            x       y       z     vdW  Elec       q    Type
REMARK                         _______ _______ _______ _____ _____    ______ ____
ROOT
ATOM      1  C   UNL     1      35.027 -20.900 -19.865  0.00  0.00    -0.000 C 
ATOM      2  C   UNL     1      34.287 -21.789 -19.182  0.00  0.00    -0.000 C 
ENDROOT
BRANCH   1   4
ATOM      3  C   UNL     1      35.152 -19.273 -21.789  0.00  0.00    -0.022 C 
ATOM      4  C   UNL     1      34.539 -20.225 -21.052  0.00  0.00    -0.004 C 
ATOM      5  C   UNL     1      36.528 -18.810 -21.368  0.00  0.00    +0.031 C 
BRANCH   3   6
ATOM      6  C   UNL     1      34.567 -18.652 -22.978  0.00  0.00    -0.004 C 
ATOM      7  C   UNL     1      34.836 -17.423 -23.448  0.00  0.00    -0.000 C 
BRANCH   7   8
ATOM      8  C   UNL     1      34.256 -16.862 -24.653  0.00  0.00    +0.002 C 
ATOM      9  C   UNL     1      33.781 -15.612 -24.823  0.00  0.00    +0.054 C 
ATOM     10  C   UNL     1      33.796 -14.527 -23.781  0.00  0.00    +0.038 C 
BRANCH   9  12
ATOM     11  O   UNL     1      33.400 -14.106 -26.651  0.00  0.00    -0.245 OA
ATOM     12  C   UNL     1      33.202 -15.198 -26.137  0.00  0.00    +0.334 C 
BRANCH  12  13
ATOM     13  O   UNL     1      32.435 -16.156 -26.705  0.00  0.00    -0.477 OA
ATOM     14  H   UNL     1      32.385 -16.224 -27.639  0.00  0.00    +0.295 HD
ENDBRANCH  12  13
ENDBRANCH   9  12
ENDBRANCH   7   8
ENDBRANCH   3   6
ENDBRANCH   1   4
BRANCH   2  16
ATOM     15  C   UNL     1      34.028 -23.055 -17.033  0.00  0.00    -0.022 C 
ATOM     16  C   UNL     1      34.768 -22.464 -17.991  0.00  0.00    -0.004 C 
ATOM     17  C   UNL     1      32.527 -23.103 -17.139  0.00  0.00    +0.031 C 
BRANCH  15  18
ATOM     18  C   UNL     1      34.549 -23.724 -15.849  0.00  0.00    -0.004 C 
ATOM     19  C   UNL     1      35.308 -23.129 -14.913  0.00  0.00    -0.000 C 
BRANCH  19  20
ATOM     20  C   UNL     1      35.786 -23.825 -13.734  0.00  0.00    +0.002 C 
ATOM     21  C   UNL     1      36.939 -24.510 -13.615  0.00  0.00    +0.054 C 
ATOM     22  C   UNL     1      37.985 -24.692 -14.678  0.00  0.00    +0.038 C 
BRANCH  21  24
ATOM     23  O   UNL     1      37.694 -24.585 -11.317  0.00  0.00    -0.245 OA
ATOM     24  C   UNL     1      37.182 -25.135 -12.280  0.00  0.00    +0.334 C 
BRANCH  24  25
ATOM     25  O   UNL     1      36.754 -26.419 -12.264  0.00  0.00    -0.477 OA
ATOM     26  H   UNL     1      37.345 -27.108 -12.032  0.00  0.00    +0.295 HD
ENDBRANCH  24  25
ENDBRANCH  21  24
ENDBRANCH  19  20
ENDBRANCH  15  18
ENDBRANCH   2  16
TORSDOF 10
ENDMDL
MODEL 6
REMARK VINA RESULT:      -9.1      5.066      6.933
REMARK  Name = 5281232
REMARK  10 active torsions:
REMARK  status: ('A' for Active; 'I' for Inactive)
REMARK    1  A    between atoms: C_1  and  C_4
REMARK    2  A    between atoms: C_2  and  C_16
REMARK    3  A    between atoms: C_3  and  C_6
REMARK    4  A    between atoms: C_7  and  C_8
REMARK    5  A    between atoms: C_9  and  C_12
REMARK    6  A    between atoms: C_12  and  O_13
REMARK    7  A    between atoms: C_15  and  C_18
REMARK    8  A    between atoms: C_19  and  C_20
REMARK    9  A    between atoms: C_21  and  C_24
REMARK   10  A    between atoms: C_24  and  O_25
REMARK                            x       y       z     vdW  Elec       q    Type
REMARK                         _______ _______ _______ _____ _____    ______ ____
ROOT
ATOM      1  C   UNL     1      33.130 -20.028 -20.749  0.00  0.00    -0.000 C 
ATOM      2  C   UNL     1      34.198 -19.231 -20.918  0.00  0.00    -0.000 C 
ENDROOT
BRANCH   1   4
ATOM      3  C   UNL     1      33.969 -21.822 -19.186  0.00  0.00    -0.022 C 
ATOM      4  C   UNL     1      33.027 -20.975 -19.655  0.00  0.00    -0.004 C 
ATOM      5  C   UNL     1      35.327 -21.829 -19.850  0.00  0.00    +0.031 C 
BRANCH   3   6
ATOM      6  C   UNL     1      33.762 -22.743 -18.068  0.00  0.00    -0.004 C 
ATOM      7  C   UNL     1      32.717 -22.747 -17.223  0.00  0.00    -0.000 C 
BRANCH   7   8
ATOM      8  C   UNL     1      32.537 -23.703 -16.148  0.00  0.00    +0.002 C 
ATOM      9  C   UNL     1      31.535 -23.739 -15.248  0.00  0.00    +0.054 C 
ATOM     10  C   UNL     1      30.367 -22.791 -15.209  0.00  0.00    +0.038 C 
BRANCH   9  12
ATOM     11  O   UNL     1      32.323 -24.863 -13.281  0.00  0.00    -0.245 OA
ATOM     12  C   UNL     1      31.508 -24.794 -14.191  0.00  0.00    +0.334 C 
BRANCH  12  13
ATOM     13  O   UNL     1      30.487 -25.669 -14.338  0.00  0.00    -0.477 OA
ATOM     14  H   UNL     1      30.240 -26.226 -13.625  0.00  0.00    +0.295 HD
ENDBRANCH  12  13
ENDBRANCH   9  12
ENDBRANCH   7   8
ENDBRANCH   3   6
ENDBRANCH   1   4
BRANCH   2  16
ATOM     15  C   UNL     1      34.358 -16.935 -21.914  0.00  0.00    -0.022 C 
ATOM     16  C   UNL     1      34.304 -18.278 -22.007  0.00  0.00    -0.004 C 
ATOM     17  C   UNL     1      34.349 -16.256 -20.570  0.00  0.00    +0.031 C 
BRANCH  15  18
ATOM     18  C   UNL     1      34.464 -16.010 -23.033  0.00  0.00    -0.004 C 
ATOM     19  C   UNL     1      33.530 -15.102 -23.359  0.00  0.00    -0.000 C 
BRANCH  19  20
ATOM     20  C   UNL     1      33.686 -14.180 -24.468  0.00  0.00    +0.002 C 
ATOM     21  C   UNL     1      33.383 -14.414 -25.759  0.00  0.00    +0.054 C 
ATOM     22  C   UNL     1      32.806 -15.680 -26.327  0.00  0.00    +0.038 C 
BRANCH  21  24
ATOM     23  O   UNL     1      33.864 -13.385 -27.896  0.00  0.00    -0.245 OA
ATOM     24  C   UNL     1      33.648 -13.283 -26.698  0.00  0.00    +0.334 C 
BRANCH  24  25
ATOM     25  O   UNL     1      33.616 -12.098 -26.044  0.00  0.00    -0.477 OA
ATOM     26  H   UNL     1      33.214 -12.039 -25.200  0.00  0.00    +0.295 HD
ENDBRANCH  24  25
ENDBRANCH  21  24
ENDBRANCH  19  20
ENDBRANCH  15  18
ENDBRANCH   2  16
TORSDOF 10
ENDMDL
MODEL 7
REMARK VINA RESULT:      -9.0      1.616      2.222
REMARK  Name = 5281232
REMARK  10 active torsions:
REMARK  status: ('A' for Active; 'I' for Inactive)
REMARK    1  A    between atoms: C_1  and  C_4
REMARK    2  A    between atoms: C_2  and  C_16
REMARK    3  A    between atoms: C_3  and  C_6
REMARK    4  A    between atoms: C_7  and  C_8
REMARK    5  A    between atoms: C_9  and  C_12
REMARK    6  A    between atoms: C_12  and  O_13
REMARK    7  A    between atoms: C_15  and  C_18
REMARK    8  A    between atoms: C_19  and  C_20
REMARK    9  A    between atoms: C_21  and  C_24
REMARK   10  A    between atoms: C_24  and  O_25
REMARK                            x       y       z     vdW  Elec       q    Type
REMARK                         _______ _______ _______ _____ _____    ______ ____
ROOT
ATOM      1  C   UNL     1      34.746 -15.700 -22.600  0.00  0.00    -0.000 C 
ATOM      2  C   UNL     1      33.698 -14.903 -22.865  0.00  0.00    -0.000 C 
ENDROOT
BRANCH   1   4
ATOM      3  C   UNL     1      34.716 -18.222 -22.554  0.00  0.00    -0.022 C 
ATOM      4  C   UNL     1      34.599 -17.004 -21.982  0.00  0.00    -0.004 C 
ATOM      5  C   UNL     1      35.040 -18.299 -24.029  0.00  0.00    +0.031 C 
BRANCH   3   6
ATOM      6  C   UNL     1      34.548 -19.486 -21.836  0.00  0.00    -0.004 C 
ATOM      7  C   UNL     1      33.771 -19.693 -20.760  0.00  0.00    -0.000 C 
BRANCH   7   8
ATOM      8  C   UNL     1      33.609 -20.974 -20.100  0.00  0.00    +0.002 C 
ATOM      9  C   UNL     1      34.561 -21.695 -19.477  0.00  0.00    +0.054 C 
ATOM     10  C   UNL     1      35.998 -21.281 -19.313  0.00  0.00    +0.038 C 
BRANCH   9  12
ATOM     11  O   UNL     1      33.850 -23.986 -19.492  0.00  0.00    -0.245 OA
ATOM     12  C   UNL     1      34.223 -23.011 -18.854  0.00  0.00    +0.334 C 
BRANCH  12  13
ATOM     13  O   UNL     1      34.374 -23.018 -17.510  0.00  0.00    -0.477 OA
ATOM     14  H   UNL     1      35.155 -23.371 -17.128  0.00  0.00    +0.295 HD
ENDBRANCH  12  13
ENDBRANCH   9  12
ENDBRANCH   7   8
ENDBRANCH   3   6
ENDBRANCH   1   4
BRANCH   2  16
ATOM     15  C   UNL     1      33.134 -12.484 -23.213  0.00  0.00    -0.022 C 
ATOM     16  C   UNL     1      33.838 -13.600 -23.488  0.00  0.00    -0.004 C 
ATOM     17  C   UNL     1      32.086 -12.482 -22.131  0.00  0.00    +0.031 C 
BRANCH  15  18
ATOM     18  C   UNL     1      33.304 -11.192 -23.862  0.00  0.00    -0.004 C 
ATOM     19  C   UNL     1      32.907 -10.021 -23.337  0.00  0.00    -0.000 C 
BRANCH  19  20
ATOM     20  C   UNL     1      33.119  -8.750 -24.005  0.00  0.00    +0.002 C 
ATOM     21  C   UNL     1      33.048  -7.526 -23.448  0.00  0.00    +0.054 C 
ATOM     22  C   UNL     1      32.746  -7.214 -22.009  0.00  0.00    +0.038 C 
BRANCH  21  24
ATOM     23  O   UNL     1      32.569  -5.429 -24.555  0.00  0.00    -0.245 OA
ATOM     24  C   UNL     1      33.309  -6.383 -24.372  0.00  0.00    +0.334 C 
BRANCH  24  25
ATOM     25  O   UNL     1      34.501  -6.532 -24.998  0.00  0.00    -0.477 OA
ATOM     26  H   UNL     1      34.769  -5.914 -25.649  0.00  0.00    +0.295 HD
ENDBRANCH  24  25
ENDBRANCH  21  24
ENDBRANCH  19  20
ENDBRANCH  15  18
ENDBRANCH   2  16
TORSDOF 10
ENDMDL
MODEL 8
REMARK VINA RESULT:      -8.9      4.804      7.107
REMARK  Name = 5281232
REMARK  10 active torsions:
REMARK  status: ('A' for Active; 'I' for Inactive)
REMARK    1  A    between atoms: C_1  and  C_4
REMARK    2  A    between atoms: C_2  and  C_16
REMARK    3  A    between atoms: C_3  and  C_6
REMARK    4  A    between atoms: C_7  and  C_8
REMARK    5  A    between atoms: C_9  and  C_12
REMARK    6  A    between atoms: C_12  and  O_13
REMARK    7  A    between atoms: C_15  and  C_18
REMARK    8  A    between atoms: C_19  and  C_20
REMARK    9  A    between atoms: C_21  and  C_24
REMARK   10  A    between atoms: C_24  and  O_25
REMARK                            x       y       z     vdW  Elec       q    Type
REMARK                         _______ _______ _______ _____ _____    ______ ____
ROOT
ATOM      1  C   UNL     1      35.693 -20.265 -20.841  0.00  0.00    -0.000 C 
ATOM      2  C   UNL     1      36.126 -19.025 -21.125  0.00  0.00    -0.000 C 
ENDROOT
BRANCH   1   4
ATOM      3  C   UNL     1      35.168 -21.749 -18.869  0.00  0.00    -0.022 C 
ATOM      4  C   UNL     1      35.965 -20.917 -19.574  0.00  0.00    -0.004 C 
ATOM      5  C   UNL     1      33.801 -22.080 -19.423  0.00  0.00    +0.031 C 
BRANCH   3   6
ATOM      6  C   UNL     1      35.542 -22.358 -17.592  0.00  0.00    -0.004 C 
ATOM      7  C   UNL     1      34.708 -22.934 -16.710  0.00  0.00    -0.000 C 
BRANCH   7   8
ATOM      8  C   UNL     1      35.130 -23.556 -15.470  0.00  0.00    +0.002 C 
ATOM      9  C   UNL     1      34.359 -23.859 -14.407  0.00  0.00    +0.054 C 
ATOM     10  C   UNL     1      32.874 -23.636 -14.318  0.00  0.00    +0.038 C 
BRANCH   9  12
ATOM     11  O   UNL     1      34.622 -24.225 -12.051  0.00  0.00    -0.245 OA
ATOM     12  C   UNL     1      34.961 -24.493 -13.195  0.00  0.00    +0.334 C 
BRANCH  12  13
ATOM     13  O   UNL     1      35.923 -25.397 -13.490  0.00  0.00    -0.477 OA
ATOM     14  H   UNL     1      35.846 -25.930 -14.258  0.00  0.00    +0.295 HD
ENDBRANCH  12  13
ENDBRANCH   9  12
ENDBRANCH   7   8
ENDBRANCH   3   6
ENDBRANCH   1   4
BRANCH   2  16
ATOM     15  C   UNL     1      35.158 -17.226 -22.579  0.00  0.00    -0.022 C 
ATOM     16  C   UNL     1      35.852 -18.366 -22.387  0.00  0.00    -0.004 C 
ATOM     17  C   UNL     1      34.596 -16.462 -21.410  0.00  0.00    +0.031 C 
BRANCH  15  18
ATOM     18  C   UNL     1      34.903 -16.594 -23.866  0.00  0.00    -0.004 C 
ATOM     19  C   UNL     1      33.791 -15.904 -24.166  0.00  0.00    -0.000 C 
BRANCH  19  20
ATOM     20  C   UNL     1      33.586 -15.266 -25.452  0.00  0.00    +0.002 C 
ATOM     21  C   UNL     1      33.405 -13.952 -25.680  0.00  0.00    +0.054 C 
ATOM     22  C   UNL     1      33.390 -12.859 -24.648  0.00  0.00    +0.038 C 
BRANCH  21  24
ATOM     23  O   UNL     1      34.098 -13.460 -27.945  0.00  0.00    -0.245 OA
ATOM     24  C   UNL     1      33.214 -13.566 -27.110  0.00  0.00    +0.334 C 
BRANCH  24  25
ATOM     25  O   UNL     1      31.905 -13.345 -27.378  0.00  0.00    -0.477 OA
ATOM     26  H   UNL     1      31.499 -13.767 -28.109  0.00  0.00    +0.295 HD
ENDBRANCH  24  25
ENDBRANCH  21  24
ENDBRANCH  19  20
ENDBRANCH  15  18
ENDBRANCH   2  16
TORSDOF 10
ENDMDL
MODEL 9
REMARK VINA RESULT:      -8.8      4.757      6.583
REMARK  Name = 5281232
REMARK  10 active torsions:
REMARK  status: ('A' for Active; 'I' for Inactive)
REMARK    1  A    between atoms: C_1  and  C_4
REMARK    2  A    between atoms: C_2  and  C_16
REMARK    3  A    between atoms: C_3  and  C_6
REMARK    4  A    between atoms: C_7  and  C_8
REMARK    5  A    between atoms: C_9  and  C_12
REMARK    6  A    between atoms: C_12  and  O_13
REMARK    7  A    between atoms: C_15  and  C_18
REMARK    8  A    between atoms: C_19  and  C_20
REMARK    9  A    between atoms: C_21  and  C_24
REMARK   10  A    between atoms: C_24  and  O_25
REMARK                            x       y       z     vdW  Elec       q    Type
REMARK                         _______ _______ _______ _____ _____    ______ ____
ROOT
ATOM      1  C   UNL     1      35.317 -19.874 -21.210  0.00  0.00    -0.000 C 
ATOM      2  C   UNL     1      35.671 -18.586 -21.059  0.00  0.00    -0.000 C 
ENDROOT
BRANCH   1   4
ATOM      3  C   UNL     1      34.602 -21.517 -19.434  0.00  0.00    -0.022 C 
ATOM      4  C   UNL     1      35.526 -20.868 -20.174  0.00  0.00    -0.004 C 
ATOM      5  C   UNL     1      33.141 -21.208 -19.671  0.00  0.00    +0.031 C 
BRANCH   3   6
ATOM      6  C   UNL     1      34.921 -22.510 -18.408  0.00  0.00    -0.004 C 
ATOM      7  C   UNL     1      34.568 -22.458 -17.113  0.00  0.00    -0.000 C 
BRANCH   7   8
ATOM      8  C   UNL     1      34.880 -23.484 -16.137  0.00  0.00    +0.002 C 
ATOM      9  C   UNL     1      36.064 -23.701 -15.532  0.00  0.00    +0.054 C 
ATOM     10  C   UNL     1      37.307 -22.878 -15.733  0.00  0.00    +0.038 C 
BRANCH   9  12
ATOM     11  O   UNL     1      36.920 -24.754 -13.554  0.00  0.00    -0.245 OA
ATOM     12  C   UNL     1      36.216 -24.819 -14.552  0.00  0.00    +0.334 C 
BRANCH  12  13
ATOM     13  O   UNL     1      35.494 -25.915 -14.878  0.00  0.00    -0.477 OA
ATOM     14  H   UNL     1      35.911 -26.644 -15.295  0.00  0.00    +0.295 HD
ENDBRANCH  12  13
ENDBRANCH   9  12
ENDBRANCH   7   8
ENDBRANCH   3   6
ENDBRANCH   1   4
BRANCH   2  16
ATOM     15  C   UNL     1      34.943 -16.351 -21.933  0.00  0.00    -0.022 C 
ATOM     16  C   UNL     1      35.459 -17.586 -22.089  0.00  0.00    -0.004 C 
ATOM     17  C   UNL     1      34.544 -15.850 -20.570  0.00  0.00    +0.031 C 
BRANCH  15  18
ATOM     18  C   UNL     1      34.745 -15.374 -22.994  0.00  0.00    -0.004 C 
ATOM     19  C   UNL     1      33.544 -14.961 -23.432  0.00  0.00    -0.000 C 
BRANCH  19  20
ATOM     20  C   UNL     1      33.390 -13.965 -24.475  0.00  0.00    +0.002 C 
ATOM     21  C   UNL     1      33.191 -14.196 -25.787  0.00  0.00    +0.054 C 
ATOM     22  C   UNL     1      33.074 -15.539 -26.450  0.00  0.00    +0.038 C 
BRANCH  21  24
ATOM     23  O   UNL     1      32.501 -12.920 -27.723  0.00  0.00    -0.245 OA
ATOM     24  C   UNL     1      33.069 -12.979 -26.643  0.00  0.00    +0.334 C 
BRANCH  24  25
ATOM     25  O   UNL     1      33.678 -11.919 -26.063  0.00  0.00    -0.477 OA
ATOM     26  H   UNL     1      33.226 -11.417 -25.412  0.00  0.00    +0.295 HD
ENDBRANCH  24  25
ENDBRANCH  21  24
ENDBRANCH  19  20
ENDBRANCH  15  18
ENDBRANCH   2  16
TORSDOF 10
ENDMDL
