MODEL 1
REMARK VINA RESULT:      -7.8      0.000      0.000
REMARK  Name = 448669
REMARK  5 active torsions:
REMARK  status: ('A' for Active; 'I' for Inactive)
REMARK    1  A    between atoms: C_3  and  O_11
REMARK    2  A    between atoms: C_4  and  O_13
REMARK    3  A    between atoms: C_5  and  O_15
REMARK    4  A    between atoms: C_7  and  O_17
REMARK    5  A    between atoms: C_9  and  O_19
REMARK                            x       y       z     vdW  Elec       q    Type
REMARK                         _______ _______ _______ _____ _____    ______ ____
ROOT
ATOM      1  C   UNL     1      34.286 -16.182 -23.886  0.00  0.00    +0.071 C 
ATOM      2  C   UNL     1      34.364 -15.570 -22.613  0.00  0.00    +0.046 C 
ATOM      3  C   UNL     1      34.872 -16.302 -21.528  0.00  0.00    +0.168 C 
ATOM      4  C   UNL     1      34.720 -17.510 -24.037  0.00  0.00    +0.140 C 
ATOM      5  C   UNL     1      33.779 -15.450 -24.971  0.00  0.00    +0.140 C 
ATOM      6  C   UNL     1      33.930 -14.242 -22.462  0.00  0.00    +0.040 C 
ATOM      7  C   UNL     1      35.298 -17.621 -21.696  0.00  0.00    +0.171 C 
ATOM      8  C   UNL     1      35.222 -18.223 -22.947  0.00  0.00    +0.076 C 
ATOM      9  C   UNL     1      33.428 -13.529 -23.550  0.00  0.00    +0.137 C 
ATOM     10  C   UNL     1      33.352 -14.132 -24.803  0.00  0.00    +0.073 C 
ENDROOT
BRANCH   3  11
ATOM     11  O   UNL     1      34.960 -15.741 -20.283  0.00  0.00    -0.503 OA
ATOM     12  H   UNL     1      34.182 -15.560 -19.795  0.00  0.00    +0.292 HD
ENDBRANCH   3  11
BRANCH   4  13
ATOM     13  O   UNL     1      34.678 -18.167 -25.234  0.00  0.00    -0.505 OA
ATOM     14  H   UNL     1      35.347 -18.785 -25.452  0.00  0.00    +0.292 HD
ENDBRANCH   4  13
BRANCH   5  15
ATOM     15  O   UNL     1      33.671 -15.972 -26.229  0.00  0.00    -0.505 OA
ATOM     16  H   UNL     1      32.953 -15.727 -26.777  0.00  0.00    +0.292 HD
ENDBRANCH   5  15
BRANCH   7  17
ATOM     17  O   UNL     1      35.790 -18.330 -20.642  0.00  0.00    -0.503 OA
ATOM     18  H   UNL     1      36.711 -18.341 -20.472  0.00  0.00    +0.292 HD
ENDBRANCH   7  17
BRANCH   9  19
ATOM     19  O   UNL     1      33.013 -12.243 -23.389  0.00  0.00    -0.505 OA
ATOM     20  H   UNL     1      32.112 -12.062 -23.203  0.00  0.00    +0.292 HD
ENDBRANCH   9  19
TORSDOF 5
ENDMDL
MODEL 2
REMARK VINA RESULT:      -7.7      1.057      3.509
REMARK  Name = 448669
REMARK  5 active torsions:
REMARK  status: ('A' for Active; 'I' for Inactive)
REMARK    1  A    between atoms: C_3  and  O_11
REMARK    2  A    between atoms: C_4  and  O_13
REMARK    3  A    between atoms: C_5  and  O_15
REMARK    4  A    between atoms: C_7  and  O_17
REMARK    5  A    between atoms: C_9  and  O_19
REMARK                            x       y       z     vdW  Elec       q    Type
REMARK                         _______ _______ _______ _____ _____    ______ ____
ROOT
ATOM      1  C   UNL     1      34.786 -16.913 -22.222  0.00  0.00    +0.071 C 
ATOM      2  C   UNL     1      34.562 -16.635 -23.591  0.00  0.00    +0.046 C 
ATOM      3  C   UNL     1      34.588 -17.687 -24.520  0.00  0.00    +0.168 C 
ATOM      4  C   UNL     1      35.030 -18.238 -21.823  0.00  0.00    +0.140 C 
ATOM      5  C   UNL     1      34.761 -15.861 -21.293  0.00  0.00    +0.140 C 
ATOM      6  C   UNL     1      34.318 -15.310 -23.991  0.00  0.00    +0.040 C 
ATOM      7  C   UNL     1      34.832 -18.997 -24.105  0.00  0.00    +0.171 C 
ATOM      8  C   UNL     1      35.052 -19.271 -22.759  0.00  0.00    +0.076 C 
ATOM      9  C   UNL     1      34.296 -14.276 -23.055  0.00  0.00    +0.137 C 
ATOM     10  C   UNL     1      34.517 -14.551 -21.708  0.00  0.00    +0.073 C 
ENDROOT
BRANCH   3  11
ATOM     11  O   UNL     1      34.375 -17.453 -25.851  0.00  0.00    -0.503 OA
ATOM     12  H   UNL     1      33.833 -18.033 -26.347  0.00  0.00    +0.292 HD
ENDBRANCH   3  11
BRANCH   4  13
ATOM     13  O   UNL     1      35.253 -18.585 -20.520  0.00  0.00    -0.505 OA
ATOM     14  H   UNL     1      35.241 -19.486 -20.267  0.00  0.00    +0.292 HD
ENDBRANCH   4  13
BRANCH   5  15
ATOM     15  O   UNL     1      34.970 -16.050 -19.956  0.00  0.00    -0.505 OA
ATOM     16  H   UNL     1      34.361 -16.555 -19.455  0.00  0.00    +0.292 HD
ENDBRANCH   5  15
BRANCH   7  17
ATOM     17  O   UNL     1      34.857 -20.017 -25.008  0.00  0.00    -0.503 OA
ATOM     18  H   UNL     1      34.446 -19.915 -25.843  0.00  0.00    +0.292 HD
ENDBRANCH   7  17
BRANCH   9  19
ATOM     19  O   UNL     1      34.057 -12.998 -23.457  0.00  0.00    -0.505 OA
ATOM     20  H   UNL     1      33.569 -12.417 -22.906  0.00  0.00    +0.292 HD
ENDBRANCH   9  19
TORSDOF 5
ENDMDL
MODEL 3
REMARK VINA RESULT:      -7.7      1.179      4.851
REMARK  Name = 448669
REMARK  5 active torsions:
REMARK  status: ('A' for Active; 'I' for Inactive)
REMARK    1  A    between atoms: C_3  and  O_11
REMARK    2  A    between atoms: C_4  and  O_13
REMARK    3  A    between atoms: C_5  and  O_15
REMARK    4  A    between atoms: C_7  and  O_17
REMARK    5  A    between atoms: C_9  and  O_19
REMARK                            x       y       z     vdW  Elec       q    Type
REMARK                         _______ _______ _______ _____ _____    ______ ____
ROOT
ATOM      1  C   UNL     1      33.513 -15.049 -22.824  0.00  0.00    +0.071 C 
ATOM      2  C   UNL     1      34.240 -16.025 -23.546  0.00  0.00    +0.046 C 
ATOM      3  C   UNL     1      34.202 -16.011 -24.949  0.00  0.00    +0.168 C 
ATOM      4  C   UNL     1      32.770 -14.086 -23.528  0.00  0.00    +0.140 C 
ATOM      5  C   UNL     1      33.551 -15.062 -21.421  0.00  0.00    +0.140 C 
ATOM      6  C   UNL     1      34.983 -16.987 -22.842  0.00  0.00    +0.040 C 
ATOM      7  C   UNL     1      33.459 -15.048 -25.633  0.00  0.00    +0.171 C 
ATOM      8  C   UNL     1      32.744 -14.088 -24.923  0.00  0.00    +0.076 C 
ATOM      9  C   UNL     1      35.009 -16.987 -21.447  0.00  0.00    +0.137 C 
ATOM     10  C   UNL     1      34.294 -16.026 -20.738  0.00  0.00    +0.073 C 
ENDROOT
BRANCH   3  11
ATOM     11  O   UNL     1      34.893 -16.940 -25.678  0.00  0.00    -0.503 OA
ATOM     12  H   UNL     1      34.450 -17.448 -26.329  0.00  0.00    +0.292 HD
ENDBRANCH   3  11
BRANCH   4  13
ATOM     13  O   UNL     1      32.046 -13.112 -22.901  0.00  0.00    -0.505 OA
ATOM     14  H   UNL     1      31.705 -12.392 -23.394  0.00  0.00    +0.292 HD
ENDBRANCH   4  13
BRANCH   5  15
ATOM     15  O   UNL     1      32.875 -14.155 -20.655  0.00  0.00    -0.505 OA
ATOM     16  H   UNL     1      32.208 -13.623 -21.040  0.00  0.00    +0.292 HD
ENDBRANCH   5  15
BRANCH   7  17
ATOM     17  O   UNL     1      33.422 -15.036 -26.995  0.00  0.00    -0.503 OA
ATOM     18  H   UNL     1      33.996 -15.592 -27.483  0.00  0.00    +0.292 HD
ENDBRANCH   7  17
BRANCH   9  19
ATOM     19  O   UNL     1      35.734 -17.925 -20.780  0.00  0.00    -0.505 OA
ATOM     20  H   UNL     1      35.444 -18.234 -19.943  0.00  0.00    +0.292 HD
ENDBRANCH   9  19
TORSDOF 5
ENDMDL
MODEL 4
REMARK VINA RESULT:      -7.6      9.705     11.975
REMARK  Name = 448669
REMARK  5 active torsions:
REMARK  status: ('A' for Active; 'I' for Inactive)
REMARK    1  A    between atoms: C_3  and  O_11
REMARK    2  A    between atoms: C_4  and  O_13
REMARK    3  A    between atoms: C_5  and  O_15
REMARK    4  A    between atoms: C_7  and  O_17
REMARK    5  A    between atoms: C_9  and  O_19
REMARK                            x       y       z     vdW  Elec       q    Type
REMARK                         _______ _______ _______ _____ _____    ______ ____
ROOT
ATOM      1  C   UNL     1      32.794 -23.808 -14.685  0.00  0.00    +0.071 C 
ATOM      2  C   UNL     1      33.061 -23.329 -15.989  0.00  0.00    +0.046 C 
ATOM      3  C   UNL     1      31.996 -22.897 -16.795  0.00  0.00    +0.168 C 
ATOM      4  C   UNL     1      31.467 -23.841 -14.225  0.00  0.00    +0.140 C 
ATOM      5  C   UNL     1      33.860 -24.241 -13.879  0.00  0.00    +0.140 C 
ATOM      6  C   UNL     1      34.388 -23.296 -16.449  0.00  0.00    +0.040 C 
ATOM      7  C   UNL     1      30.683 -22.937 -16.321  0.00  0.00    +0.171 C 
ATOM      8  C   UNL     1      30.420 -23.408 -15.039  0.00  0.00    +0.076 C 
ATOM      9  C   UNL     1      35.435 -23.729 -15.636  0.00  0.00    +0.137 C 
ATOM     10  C   UNL     1      35.172 -24.201 -14.353  0.00  0.00    +0.073 C 
ENDROOT
BRANCH   3  11
ATOM     11  O   UNL     1      32.218 -22.428 -18.060  0.00  0.00    -0.503 OA
ATOM     12  H   UNL     1      32.190 -23.015 -18.789  0.00  0.00    +0.292 HD
ENDBRANCH   3  11
BRANCH   4  13
ATOM     13  O   UNL     1      31.131 -24.288 -12.978  0.00  0.00    -0.505 OA
ATOM     14  H   UNL     1      30.349 -24.789 -12.855  0.00  0.00    +0.292 HD
ENDBRANCH   4  13
BRANCH   5  15
ATOM     15  O   UNL     1      33.681 -24.718 -12.612  0.00  0.00    -0.505 OA
ATOM     16  H   UNL     1      32.829 -24.706 -12.223  0.00  0.00    +0.292 HD
ENDBRANCH   5  15
BRANCH   7  17
ATOM     17  O   UNL     1      29.650 -22.518 -17.104  0.00  0.00    -0.503 OA
ATOM     18  H   UNL     1      29.192 -21.729 -16.893  0.00  0.00    +0.292 HD
ENDBRANCH   7  17
BRANCH   9  19
ATOM     19  O   UNL     1      36.716 -23.690 -16.096  0.00  0.00    -0.505 OA
ATOM     20  H   UNL     1      36.948 -24.158 -16.874  0.00  0.00    +0.292 HD
ENDBRANCH   9  19
TORSDOF 5
ENDMDL
MODEL 5
REMARK VINA RESULT:      -7.5      1.011      5.032
REMARK  Name = 448669
REMARK  5 active torsions:
REMARK  status: ('A' for Active; 'I' for Inactive)
REMARK    1  A    between atoms: C_3  and  O_11
REMARK    2  A    between atoms: C_4  and  O_13
REMARK    3  A    between atoms: C_5  and  O_15
REMARK    4  A    between atoms: C_7  and  O_17
REMARK    5  A    between atoms: C_9  and  O_19
REMARK                            x       y       z     vdW  Elec       q    Type
REMARK                         _______ _______ _______ _____ _____    ______ ____
ROOT
ATOM      1  C   UNL     1      34.708 -16.621 -22.728  0.00  0.00    +0.071 C 
ATOM      2  C   UNL     1      34.410 -16.673 -24.110  0.00  0.00    +0.046 C 
ATOM      3  C   UNL     1      34.014 -15.501 -24.773  0.00  0.00    +0.168 C 
ATOM      4  C   UNL     1      34.600 -15.396 -22.048  0.00  0.00    +0.140 C 
ATOM      5  C   UNL     1      35.104 -17.794 -22.065  0.00  0.00    +0.140 C 
ATOM      6  C   UNL     1      34.518 -17.898 -24.790  0.00  0.00    +0.040 C 
ATOM      7  C   UNL     1      33.912 -14.292 -24.082  0.00  0.00    +0.171 C 
ATOM      8  C   UNL     1      34.204 -14.241 -22.723  0.00  0.00    +0.076 C 
ATOM      9  C   UNL     1      34.913 -19.054 -24.116  0.00  0.00    +0.137 C 
ATOM     10  C   UNL     1      35.206 -19.002 -22.756  0.00  0.00    +0.073 C 
ENDROOT
BRANCH   3  11
ATOM     11  O   UNL     1      33.719 -15.515 -26.108  0.00  0.00    -0.503 OA
ATOM     12  H   UNL     1      32.954 -15.961 -26.414  0.00  0.00    +0.292 HD
ENDBRANCH   3  11
BRANCH   4  13
ATOM     13  O   UNL     1      34.871 -15.267 -20.716  0.00  0.00    -0.505 OA
ATOM     14  H   UNL     1      34.876 -14.419 -20.319  0.00  0.00    +0.292 HD
ENDBRANCH   4  13
BRANCH   5  15
ATOM     15  O   UNL     1      35.405 -17.824 -20.733  0.00  0.00    -0.505 OA
ATOM     16  H   UNL     1      35.843 -18.567 -20.369  0.00  0.00    +0.292 HD
ENDBRANCH   5  15
BRANCH   7  17
ATOM     17  O   UNL     1      33.526 -13.155 -24.726  0.00  0.00    -0.503 OA
ATOM     18  H   UNL     1      33.126 -12.457 -24.246  0.00  0.00    +0.292 HD
ENDBRANCH   7  17
BRANCH   9  19
ATOM     19  O   UNL     1      35.014 -20.233 -24.789  0.00  0.00    -0.505 OA
ATOM     20  H   UNL     1      34.514 -20.975 -24.510  0.00  0.00    +0.292 HD
ENDBRANCH   9  19
TORSDOF 5
ENDMDL
MODEL 6
REMARK VINA RESULT:      -7.5      1.264      3.183
REMARK  Name = 448669
REMARK  5 active torsions:
REMARK  status: ('A' for Active; 'I' for Inactive)
REMARK    1  A    between atoms: C_3  and  O_11
REMARK    2  A    between atoms: C_4  and  O_13
REMARK    3  A    between atoms: C_5  and  O_15
REMARK    4  A    between atoms: C_7  and  O_17
REMARK    5  A    between atoms: C_9  and  O_19
REMARK                            x       y       z     vdW  Elec       q    Type
REMARK                         _______ _______ _______ _____ _____    ______ ____
ROOT
ATOM      1  C   UNL     1      33.524 -15.072 -22.760  0.00  0.00    +0.071 C 
ATOM      2  C   UNL     1      34.275 -16.044 -23.462  0.00  0.00    +0.046 C 
ATOM      3  C   UNL     1      35.024 -16.987 -22.741  0.00  0.00    +0.168 C 
ATOM      4  C   UNL     1      33.544 -15.073 -21.355  0.00  0.00    +0.140 C 
ATOM      5  C   UNL     1      32.775 -14.129 -23.481  0.00  0.00    +0.140 C 
ATOM      6  C   UNL     1      34.255 -16.043 -24.867  0.00  0.00    +0.040 C 
ATOM      7  C   UNL     1      35.032 -16.974 -21.346  0.00  0.00    +0.171 C 
ATOM      8  C   UNL     1      34.293 -16.018 -20.655  0.00  0.00    +0.076 C 
ATOM      9  C   UNL     1      33.506 -15.099 -25.569  0.00  0.00    +0.137 C 
ATOM     10  C   UNL     1      32.767 -14.143 -24.877  0.00  0.00    +0.073 C 
ENDROOT
BRANCH   3  11
ATOM     11  O   UNL     1      35.762 -17.940 -23.388  0.00  0.00    -0.503 OA
ATOM     12  H   UNL     1      36.558 -17.703 -23.820  0.00  0.00    +0.292 HD
ENDBRANCH   3  11
BRANCH   4  13
ATOM     13  O   UNL     1      32.843 -14.169 -20.609  0.00  0.00    -0.505 OA
ATOM     14  H   UNL     1      32.062 -14.434 -20.164  0.00  0.00    +0.292 HD
ENDBRANCH   4  13
BRANCH   5  15
ATOM     15  O   UNL     1      32.027 -13.160 -22.875  0.00  0.00    -0.505 OA
ATOM     16  H   UNL     1      32.340 -12.746 -22.096  0.00  0.00    +0.292 HD
ENDBRANCH   5  15
BRANCH   7  17
ATOM     17  O   UNL     1      35.760 -17.889 -20.647  0.00  0.00    -0.503 OA
ATOM     18  H   UNL     1      35.654 -17.962 -19.719  0.00  0.00    +0.292 HD
ENDBRANCH   7  17
BRANCH   9  19
ATOM     19  O   UNL     1      33.496 -15.111 -26.929  0.00  0.00    -0.505 OA
ATOM     20  H   UNL     1      33.558 -14.306 -27.405  0.00  0.00    +0.292 HD
ENDBRANCH   9  19
TORSDOF 5
ENDMDL
MODEL 7
REMARK VINA RESULT:      -7.5      1.064      4.158
REMARK  Name = 448669
REMARK  5 active torsions:
REMARK  status: ('A' for Active; 'I' for Inactive)
REMARK    1  A    between atoms: C_3  and  O_11
REMARK    2  A    between atoms: C_4  and  O_13
REMARK    3  A    between atoms: C_5  and  O_15
REMARK    4  A    between atoms: C_7  and  O_17
REMARK    5  A    between atoms: C_9  and  O_19
REMARK                            x       y       z     vdW  Elec       q    Type
REMARK                         _______ _______ _______ _____ _____    ______ ____
ROOT
ATOM      1  C   UNL     1      34.621 -17.307 -23.439  0.00  0.00    +0.071 C 
ATOM      2  C   UNL     1      34.828 -16.733 -22.163  0.00  0.00    +0.046 C 
ATOM      3  C   UNL     1      34.675 -15.347 -22.000  0.00  0.00    +0.168 C 
ATOM      4  C   UNL     1      34.266 -16.478 -24.516  0.00  0.00    +0.140 C 
ATOM      5  C   UNL     1      34.774 -18.693 -23.602  0.00  0.00    +0.140 C 
ATOM      6  C   UNL     1      35.183 -17.562 -21.086  0.00  0.00    +0.040 C 
ATOM      7  C   UNL     1      34.322 -14.537 -23.081  0.00  0.00    +0.171 C 
ATOM      8  C   UNL     1      34.118 -15.102 -24.336  0.00  0.00    +0.076 C 
ATOM      9  C   UNL     1      35.331 -18.938 -21.265  0.00  0.00    +0.137 C 
ATOM     10  C   UNL     1      35.127 -19.503 -22.521  0.00  0.00    +0.073 C 
ENDROOT
BRANCH   3  11
ATOM     11  O   UNL     1      34.867 -14.758 -20.781  0.00  0.00    -0.503 OA
ATOM     12  H   UNL     1      34.226 -14.859 -20.106  0.00  0.00    +0.292 HD
ENDBRANCH   3  11
BRANCH   4  13
ATOM     13  O   UNL     1      34.048 -16.959 -25.776  0.00  0.00    -0.505 OA
ATOM     14  H   UNL     1      33.648 -16.413 -26.424  0.00  0.00    +0.292 HD
ENDBRANCH   4  13
BRANCH   5  15
ATOM     15  O   UNL     1      34.594 -19.321 -24.803  0.00  0.00    -0.505 OA
ATOM     16  H   UNL     1      35.188 -19.991 -25.074  0.00  0.00    +0.292 HD
ENDBRANCH   5  15
BRANCH   7  17
ATOM     17  O   UNL     1      34.174 -13.192 -22.922  0.00  0.00    -0.503 OA
ATOM     18  H   UNL     1      34.710 -12.601 -23.412  0.00  0.00    +0.292 HD
ENDBRANCH   7  17
BRANCH   9  19
ATOM     19  O   UNL     1      35.674 -19.728 -20.212  0.00  0.00    -0.505 OA
ATOM     20  H   UNL     1      35.381 -20.618 -20.180  0.00  0.00    +0.292 HD
ENDBRANCH   9  19
TORSDOF 5
ENDMDL
MODEL 8
REMARK VINA RESULT:      -7.5      1.538      3.655
REMARK  Name = 448669
REMARK  5 active torsions:
REMARK  status: ('A' for Active; 'I' for Inactive)
REMARK    1  A    between atoms: C_3  and  O_11
REMARK    2  A    between atoms: C_4  and  O_13
REMARK    3  A    between atoms: C_5  and  O_15
REMARK    4  A    between atoms: C_7  and  O_17
REMARK    5  A    between atoms: C_9  and  O_19
REMARK                            x       y       z     vdW  Elec       q    Type
REMARK                         _______ _______ _______ _____ _____    ______ ____
ROOT
ATOM      1  C   UNL     1      34.186 -15.836 -22.852  0.00  0.00    +0.071 C 
ATOM      2  C   UNL     1      33.314 -14.813 -23.292  0.00  0.00    +0.046 C 
ATOM      3  C   UNL     1      32.696 -13.981 -22.345  0.00  0.00    +0.168 C 
ATOM      4  C   UNL     1      34.415 -15.997 -21.475  0.00  0.00    +0.140 C 
ATOM      5  C   UNL     1      34.803 -16.669 -23.799  0.00  0.00    +0.140 C 
ATOM      6  C   UNL     1      33.084 -14.653 -24.669  0.00  0.00    +0.040 C 
ATOM      7  C   UNL     1      32.935 -14.155 -20.981  0.00  0.00    +0.171 C 
ATOM      8  C   UNL     1      33.793 -15.160 -20.547  0.00  0.00    +0.076 C 
ATOM      9  C   UNL     1      33.706 -15.488 -25.597  0.00  0.00    +0.137 C 
ATOM     10  C   UNL     1      34.564 -16.495 -25.163  0.00  0.00    +0.073 C 
ENDROOT
BRANCH   3  11
ATOM     11  O   UNL     1      31.847 -12.982 -22.737  0.00  0.00    -0.503 OA
ATOM     12  H   UNL     1      31.678 -12.261 -22.164  0.00  0.00    +0.292 HD
ENDBRANCH   3  11
BRANCH   4  13
ATOM     13  O   UNL     1      35.245 -16.959 -20.974  0.00  0.00    -0.505 OA
ATOM     14  H   UNL     1      35.624 -16.855 -20.124  0.00  0.00    +0.292 HD
ENDBRANCH   4  13
BRANCH   5  15
ATOM     15  O   UNL     1      35.656 -17.678 -23.451  0.00  0.00    -0.505 OA
ATOM     16  H   UNL     1      36.450 -17.484 -22.996  0.00  0.00    +0.292 HD
ENDBRANCH   5  15
BRANCH   7  17
ATOM     17  O   UNL     1      32.335 -13.347 -20.063  0.00  0.00    -0.503 OA
ATOM     18  H   UNL     1      32.113 -13.683 -19.217  0.00  0.00    +0.292 HD
ENDBRANCH   7  17
BRANCH   9  19
ATOM     19  O   UNL     1      33.475 -15.320 -26.928  0.00  0.00    -0.505 OA
ATOM     20  H   UNL     1      33.880 -15.893 -27.549  0.00  0.00    +0.292 HD
ENDBRANCH   9  19
TORSDOF 5
ENDMDL
MODEL 9
REMARK VINA RESULT:      -7.4      1.198      3.708
REMARK  Name = 448669
REMARK  5 active torsions:
REMARK  status: ('A' for Active; 'I' for Inactive)
REMARK    1  A    between atoms: C_3  and  O_11
REMARK    2  A    between atoms: C_4  and  O_13
REMARK    3  A    between atoms: C_5  and  O_15
REMARK    4  A    between atoms: C_7  and  O_17
REMARK    5  A    between atoms: C_9  and  O_19
REMARK                            x       y       z     vdW  Elec       q    Type
REMARK                         _______ _______ _______ _____ _____    ______ ____
ROOT
ATOM      1  C   UNL     1      34.328 -16.189 -23.894  0.00  0.00    +0.071 C 
ATOM      2  C   UNL     1      34.738 -17.108 -22.899  0.00  0.00    +0.046 C 
ATOM      3  C   UNL     1      34.936 -16.655 -21.585  0.00  0.00    +0.168 C 
ATOM      4  C   UNL     1      34.129 -14.843 -23.545  0.00  0.00    +0.140 C 
ATOM      5  C   UNL     1      34.129 -16.642 -25.208  0.00  0.00    +0.140 C 
ATOM      6  C   UNL     1      34.937 -18.454 -23.248  0.00  0.00    +0.040 C 
ATOM      7  C   UNL     1      34.734 -15.314 -21.256  0.00  0.00    +0.171 C 
ATOM      8  C   UNL     1      34.331 -14.410 -22.234  0.00  0.00    +0.076 C 
ATOM      9  C   UNL     1      34.735 -18.887 -24.559  0.00  0.00    +0.137 C 
ATOM     10  C   UNL     1      34.332 -17.983 -25.537  0.00  0.00    +0.073 C 
ENDROOT
BRANCH   3  11
ATOM     11  O   UNL     1      35.332 -17.516 -20.599  0.00  0.00    -0.503 OA
ATOM     12  H   UNL     1      36.242 -17.610 -20.397  0.00  0.00    +0.292 HD
ENDBRANCH   3  11
BRANCH   4  13
ATOM     13  O   UNL     1      33.732 -13.899 -24.449  0.00  0.00    -0.505 OA
ATOM     14  H   UNL     1      32.864 -13.548 -24.409  0.00  0.00    +0.292 HD
ENDBRANCH   4  13
BRANCH   5  15
ATOM     15  O   UNL     1      33.736 -15.816 -26.223  0.00  0.00    -0.505 OA
ATOM     16  H   UNL     1      33.006 -15.243 -26.103  0.00  0.00    +0.292 HD
ENDBRANCH   5  15
BRANCH   7  17
ATOM     17  O   UNL     1      34.928 -14.875 -19.980  0.00  0.00    -0.503 OA
ATOM     18  H   UNL     1      35.721 -14.434 -19.752  0.00  0.00    +0.292 HD
ENDBRANCH   7  17
BRANCH   9  19
ATOM     19  O   UNL     1      34.931 -20.195 -24.881  0.00  0.00    -0.505 OA
ATOM     20  H   UNL     1      35.054 -20.443 -25.777  0.00  0.00    +0.292 HD
ENDBRANCH   9  19
TORSDOF 5
ENDMDL
