MODEL 1
REMARK VINA RESULT:      -5.8      0.000      0.000
REMARK  Name = 17753929
REMARK  8 active torsions:
REMARK  status: ('A' for Active; 'I' for Inactive)
REMARK    1  A    between atoms: C_1  and  N_2
REMARK    2  A    between atoms: C_1  and  C_7
REMARK    3  A    between atoms: C_1  and  C_10
REMARK    4  A    between atoms: C_7  and  O_8
REMARK    5  A    between atoms: C_10  and  S_11
REMARK    6  A    between atoms: S_11  and  C_13
REMARK    7  A    between atoms: C_13  and  C_14
REMARK    8  A    between atoms: C_14  and  C_15
REMARK                            x       y       z     vdW  Elec       q    Type
REMARK                         _______ _______ _______ _____ _____    ______ ____
ROOT
ATOM      1  C   UNK     1      38.663 -24.887 -14.690  0.00  0.00    +0.047 C 
ENDROOT
BRANCH   1   2
ATOM      2  N   UNK     1      37.841 -25.965 -15.243  0.00  0.00    +0.389 N 
ATOM      3  H   UNK     1      37.293 -25.607 -16.024  0.00  0.00    -0.088 HD
ATOM      4  H   UNK     1      37.213 -26.319 -14.521  0.00  0.00    -0.088 HD
ATOM      5  H   UNK     1      38.445 -26.721 -15.569  0.00  0.00    -0.088 HD
ENDBRANCH   1   2
BRANCH   1   7
ATOM      6  O   UNK     1      41.055 -24.854 -14.326  0.00  0.00    -0.253 OA
ATOM      7  C   UNK     1      40.110 -25.197 -15.027  0.00  0.00    +0.294 C 
BRANCH   7   8
ATOM      8  O   UNK     1      40.269 -25.862 -16.200  0.00  0.00    -0.482 OA
ATOM      9  H   UNK     1      39.660 -25.728 -16.900  0.00  0.00    +0.295 HD
ENDBRANCH   7   8
ENDBRANCH   1   7
BRANCH   1  10
ATOM     10  C   UNK     1      38.431 -24.772 -13.182  0.00  0.00    +0.054 C 
BRANCH  10  11
ATOM     11  S   UNK     1      37.208 -25.964 -12.594  0.00  0.00    -0.079 S 
BRANCH  11  13
ATOM     12  O   UNK     1      35.428 -25.132 -10.836  0.00  0.00    -0.285 OA
ATOM     13  C   UNK     1      36.014 -24.875 -11.880  0.00  0.00    +0.199 C 
BRANCH  13  14
ATOM     14  C   UNK     1      35.806 -23.609 -12.687  0.00  0.00    +0.076 C 
BRANCH  14  15
ATOM     15  C   UNK     1      34.919 -23.849 -13.908  0.00  0.00    +0.009 C 
ATOM     16  C   UNK     1      35.384 -23.033 -15.103  0.00  0.00    +0.000 C 
ENDBRANCH  14  15
ENDBRANCH  13  14
ENDBRANCH  11  13
ENDBRANCH  10  11
ENDBRANCH   1  10
TORSDOF 8
ENDMDL
MODEL 2
REMARK VINA RESULT:      -5.6      1.946      2.426
REMARK  Name = 17753929
REMARK  8 active torsions:
REMARK  status: ('A' for Active; 'I' for Inactive)
REMARK    1  A    between atoms: C_1  and  N_2
REMARK    2  A    between atoms: C_1  and  C_7
REMARK    3  A    between atoms: C_1  and  C_10
REMARK    4  A    between atoms: C_7  and  O_8
REMARK    5  A    between atoms: C_10  and  S_11
REMARK    6  A    between atoms: S_11  and  C_13
REMARK    7  A    between atoms: C_13  and  C_14
REMARK    8  A    between atoms: C_14  and  C_15
REMARK                            x       y       z     vdW  Elec       q    Type
REMARK                         _______ _______ _______ _____ _____    ______ ____
ROOT
ATOM      1  C   UNK     1      38.573 -25.417 -14.631  0.00  0.00    +0.047 C 
ENDROOT
BRANCH   1   2
ATOM      2  N   UNK     1      38.218 -26.819 -14.400  0.00  0.00    +0.389 N 
ATOM      3  H   UNK     1      37.759 -27.194 -15.229  0.00  0.00    -0.088 HD
ATOM      4  H   UNK     1      37.585 -26.882 -13.602  0.00  0.00    -0.088 HD
ATOM      5  H   UNK     1      39.064 -27.356 -14.206  0.00  0.00    -0.088 HD
ENDBRANCH   1   2
BRANCH   1   7
ATOM      6  O   UNK     1      40.858 -24.784 -14.150  0.00  0.00    -0.253 OA
ATOM      7  C   UNK     1      40.068 -25.361 -14.888  0.00  0.00    +0.294 C 
BRANCH   7   8
ATOM      8  O   UNK     1      40.451 -25.981 -16.034  0.00  0.00    -0.482 OA
ATOM      9  H   UNK     1      41.295 -25.807 -16.401  0.00  0.00    +0.295 HD
ENDBRANCH   7   8
ENDBRANCH   1   7
BRANCH   1  10
ATOM     10  C   UNK     1      38.160 -24.566 -13.429  0.00  0.00    +0.054 C 
BRANCH  10  11
ATOM     11  S   UNK     1      36.365 -24.417 -13.293  0.00  0.00    -0.079 S 
BRANCH  11  13
ATOM     12  O   UNK     1      35.655 -25.113 -15.736  0.00  0.00    -0.285 OA
ATOM     13  C   UNK     1      35.932 -24.183 -14.990  0.00  0.00    +0.199 C 
BRANCH  13  14
ATOM     14  C   UNK     1      35.937 -22.725 -15.410  0.00  0.00    +0.076 C 
BRANCH  14  15
ATOM     15  C   UNK     1      37.161 -22.379 -16.256  0.00  0.00    +0.009 C 
ATOM     16  C   UNK     1      36.761 -21.799 -17.603  0.00  0.00    +0.000 C 
ENDBRANCH  14  15
ENDBRANCH  13  14
ENDBRANCH  11  13
ENDBRANCH  10  11
ENDBRANCH   1  10
TORSDOF 8
ENDMDL
MODEL 3
REMARK VINA RESULT:      -5.5     11.176     12.638
REMARK  Name = 17753929
REMARK  8 active torsions:
REMARK  status: ('A' for Active; 'I' for Inactive)
REMARK    1  A    between atoms: C_1  and  N_2
REMARK    2  A    between atoms: C_1  and  C_7
REMARK    3  A    between atoms: C_1  and  C_10
REMARK    4  A    between atoms: C_7  and  O_8
REMARK    5  A    between atoms: C_10  and  S_11
REMARK    6  A    between atoms: S_11  and  C_13
REMARK    7  A    between atoms: C_13  and  C_14
REMARK    8  A    between atoms: C_14  and  C_15
REMARK                            x       y       z     vdW  Elec       q    Type
REMARK                         _______ _______ _______ _____ _____    ______ ____
ROOT
ATOM      1  C   UNK     1      34.573 -15.634 -24.039  0.00  0.00    +0.047 C 
ENDROOT
BRANCH   1   2
ATOM      2  N   UNK     1      33.352 -15.244 -23.329  0.00  0.00    +0.389 N 
ATOM      3  H   UNK     1      32.631 -14.995 -24.005  0.00  0.00    -0.088 HD
ATOM      4  H   UNK     1      33.548 -14.443 -22.729  0.00  0.00    -0.088 HD
ATOM      5  H   UNK     1      33.027 -16.025 -22.758  0.00  0.00    -0.088 HD
ENDBRANCH   1   2
BRANCH   1   7
ATOM      6  O   UNK     1      33.616 -15.632 -26.261  0.00  0.00    -0.253 OA
ATOM      7  C   UNK     1      34.154 -16.260 -25.356  0.00  0.00    +0.294 C 
BRANCH   7   8
ATOM      8  O   UNK     1      34.397 -17.594 -25.430  0.00  0.00    -0.482 OA
ATOM      9  H   UNK     1      34.152 -18.072 -26.198  0.00  0.00    +0.295 HD
ENDBRANCH   7   8
ENDBRANCH   1   7
BRANCH   1  10
ATOM     10  C   UNK     1      35.396 -16.593 -23.177  0.00  0.00    +0.054 C 
BRANCH  10  11
ATOM     11  S   UNK     1      34.473 -17.166 -21.734  0.00  0.00    -0.079 S 
BRANCH  11  13
ATOM     12  O   UNK     1      34.451 -19.400 -23.136  0.00  0.00    -0.285 OA
ATOM     13  C   UNK     1      34.488 -18.911 -22.014  0.00  0.00    +0.199 C 
BRANCH  13  14
ATOM     14  C   UNK     1      34.555 -19.718 -20.733  0.00  0.00    +0.076 C 
BRANCH  14  15
ATOM     15  C   UNK     1      33.222 -20.391 -20.410  0.00  0.00    +0.009 C 
ATOM     16  C   UNK     1      33.398 -21.532 -19.421  0.00  0.00    +0.000 C 
ENDBRANCH  14  15
ENDBRANCH  13  14
ENDBRANCH  11  13
ENDBRANCH  10  11
ENDBRANCH   1  10
TORSDOF 8
ENDMDL
MODEL 4
REMARK VINA RESULT:      -5.5      2.389      2.636
REMARK  Name = 17753929
REMARK  8 active torsions:
REMARK  status: ('A' for Active; 'I' for Inactive)
REMARK    1  A    between atoms: C_1  and  N_2
REMARK    2  A    between atoms: C_1  and  C_7
REMARK    3  A    between atoms: C_1  and  C_10
REMARK    4  A    between atoms: C_7  and  O_8
REMARK    5  A    between atoms: C_10  and  S_11
REMARK    6  A    between atoms: S_11  and  C_13
REMARK    7  A    between atoms: C_13  and  C_14
REMARK    8  A    between atoms: C_14  and  C_15
REMARK                            x       y       z     vdW  Elec       q    Type
REMARK                         _______ _______ _______ _____ _____    ______ ____
ROOT
ATOM      1  C   UNK     1      38.942 -25.976 -14.136  0.00  0.00    +0.047 C 
ENDROOT
BRANCH   1   2
ATOM      2  N   UNK     1      38.689 -25.147 -12.955  0.00  0.00    +0.389 N 
ATOM      3  H   UNK     1      37.866 -24.568 -13.116  0.00  0.00    -0.088 HD
ATOM      4  H   UNK     1      39.497 -24.549 -12.780  0.00  0.00    -0.088 HD
ATOM      5  H   UNK     1      38.529 -25.748 -12.146  0.00  0.00    -0.088 HD
ENDBRANCH   1   2
BRANCH   1   7
ATOM      6  O   UNK     1      40.937 -24.616 -14.291  0.00  0.00    -0.253 OA
ATOM      7  C   UNK     1      40.194 -25.442 -14.808  0.00  0.00    +0.294 C 
BRANCH   7   8
ATOM      8  O   UNK     1      40.400 -25.938 -16.055  0.00  0.00    -0.482 OA
ATOM      9  H   UNK     1      39.671 -26.089 -16.625  0.00  0.00    +0.295 HD
ENDBRANCH   7   8
ENDBRANCH   1   7
BRANCH   1  10
ATOM     10  C   UNK     1      37.728 -25.946 -15.066  0.00  0.00    +0.054 C 
BRANCH  10  11
ATOM     11  S   UNK     1      36.380 -24.953 -14.386  0.00  0.00    -0.079 S 
BRANCH  11  13
ATOM     12  O   UNK     1      37.721 -22.729 -14.845  0.00  0.00    -0.285 OA
ATOM     13  C   UNK     1      36.728 -23.388 -15.127  0.00  0.00    +0.199 C 
BRANCH  13  14
ATOM     14  C   UNK     1      35.680 -22.962 -16.137  0.00  0.00    +0.076 C 
BRANCH  14  15
ATOM     15  C   UNK     1      34.313 -23.573 -15.834  0.00  0.00    +0.009 C 
ATOM     16  C   UNK     1      33.315 -23.285 -16.944  0.00  0.00    +0.000 C 
ENDBRANCH  14  15
ENDBRANCH  13  14
ENDBRANCH  11  13
ENDBRANCH  10  11
ENDBRANCH   1  10
TORSDOF 8
ENDMDL
MODEL 5
REMARK VINA RESULT:      -5.5      2.658      4.909
REMARK  Name = 17753929
REMARK  8 active torsions:
REMARK  status: ('A' for Active; 'I' for Inactive)
REMARK    1  A    between atoms: C_1  and  N_2
REMARK    2  A    between atoms: C_1  and  C_7
REMARK    3  A    between atoms: C_1  and  C_10
REMARK    4  A    between atoms: C_7  and  O_8
REMARK    5  A    between atoms: C_10  and  S_11
REMARK    6  A    between atoms: S_11  and  C_13
REMARK    7  A    between atoms: C_13  and  C_14
REMARK    8  A    between atoms: C_14  and  C_15
REMARK                            x       y       z     vdW  Elec       q    Type
REMARK                         _______ _______ _______ _____ _____    ______ ____
ROOT
ATOM      1  C   UNK     1      35.843 -23.569 -12.129  0.00  0.00    +0.047 C 
ENDROOT
BRANCH   1   2
ATOM      2  N   UNK     1      37.176 -22.968 -12.205  0.00  0.00    +0.389 N 
ATOM      3  H   UNK     1      37.135 -22.120 -12.769  0.00  0.00    -0.088 HD
ATOM      4  H   UNK     1      37.824 -23.630 -12.634  0.00  0.00    -0.088 HD
ATOM      5  H   UNK     1      37.499 -22.737 -11.265  0.00  0.00    -0.088 HD
ENDBRANCH   1   2
BRANCH   1   7
ATOM      6  O   UNK     1      36.384 -25.811 -11.399  0.00  0.00    -0.253 OA
ATOM      7  C   UNK     1      35.914 -24.711 -11.132  0.00  0.00    +0.294 C 
BRANCH   7   8
ATOM      8  O   UNK     1      35.374 -24.417  -9.922  0.00  0.00    -0.482 OA
ATOM      9  H   UNK     1      35.219 -23.524  -9.683  0.00  0.00    +0.295 HD
ENDBRANCH   7   8
ENDBRANCH   1   7
BRANCH   1  10
ATOM     10  C   UNK     1      35.399 -24.037 -13.516  0.00  0.00    +0.054 C 
BRANCH  10  11
ATOM     11  S   UNK     1      36.780 -24.105 -14.679  0.00  0.00    -0.079 S 
BRANCH  11  13
ATOM     12  O   UNK     1      36.015 -26.388 -15.757  0.00  0.00    -0.285 OA
ATOM     13  C   UNK     1      36.826 -25.838 -15.023  0.00  0.00    +0.199 C 
BRANCH  13  14
ATOM     14  C   UNK     1      37.965 -26.553 -14.322  0.00  0.00    +0.076 C 
BRANCH  14  15
ATOM     15  C   UNK     1      39.038 -25.580 -13.835  0.00  0.00    +0.009 C 
ATOM     16  C   UNK     1      40.373 -25.839 -14.513  0.00  0.00    +0.000 C 
ENDBRANCH  14  15
ENDBRANCH  13  14
ENDBRANCH  11  13
ENDBRANCH  10  11
ENDBRANCH   1  10
TORSDOF 8
ENDMDL
MODEL 6
REMARK VINA RESULT:      -5.5      3.038      4.540
REMARK  Name = 17753929
REMARK  8 active torsions:
REMARK  status: ('A' for Active; 'I' for Inactive)
REMARK    1  A    between atoms: C_1  and  N_2
REMARK    2  A    between atoms: C_1  and  C_7
REMARK    3  A    between atoms: C_1  and  C_10
REMARK    4  A    between atoms: C_7  and  O_8
REMARK    5  A    between atoms: C_10  and  S_11
REMARK    6  A    between atoms: S_11  and  C_13
REMARK    7  A    between atoms: C_13  and  C_14
REMARK    8  A    between atoms: C_14  and  C_15
REMARK                            x       y       z     vdW  Elec       q    Type
REMARK                         _______ _______ _______ _____ _____    ______ ____
ROOT
ATOM      1  C   UNK     1      36.594 -23.951 -12.287  0.00  0.00    +0.047 C 
ENDROOT
BRANCH   1   2
ATOM      2  N   UNK     1      37.370 -23.351 -11.199  0.00  0.00    +0.389 N 
ATOM      3  H   UNK     1      36.755 -22.786 -10.615  0.00  0.00    -0.088 HD
ATOM      4  H   UNK     1      38.105 -22.761 -11.591  0.00  0.00    -0.088 HD
ATOM      5  H   UNK     1      37.792 -24.090 -10.635  0.00  0.00    -0.088 HD
ENDBRANCH   1   2
BRANCH   1   7
ATOM      6  O   UNK     1      35.329 -24.996 -10.509  0.00  0.00    -0.253 OA
ATOM      7  C   UNK     1      35.371 -24.602 -11.669  0.00  0.00    +0.294 C 
BRANCH   7   8
ATOM      8  O   UNK     1      34.332 -24.745 -12.531  0.00  0.00    -0.482 OA
ATOM      9  H   UNK     1      33.622 -24.133 -12.514  0.00  0.00    +0.295 HD
ENDBRANCH   7   8
ENDBRANCH   1   7
BRANCH   1  10
ATOM     10  C   UNK     1      37.458 -24.952 -13.056  0.00  0.00    +0.054 C 
BRANCH  10  11
ATOM     11  S   UNK     1      37.894 -24.345 -14.701  0.00  0.00    -0.079 S 
BRANCH  11  13
ATOM     12  O   UNK     1      35.465 -24.972 -15.515  0.00  0.00    -0.285 OA
ATOM     13  C   UNK     1      36.286 -24.073 -15.381  0.00  0.00    +0.199 C 
BRANCH  13  14
ATOM     14  C   UNK     1      36.040 -22.628 -15.768  0.00  0.00    +0.076 C 
BRANCH  14  15
ATOM     15  C   UNK     1      37.167 -22.068 -16.633  0.00  0.00    +0.009 C 
ATOM     16  C   UNK     1      36.666 -21.667 -18.011  0.00  0.00    +0.000 C 
ENDBRANCH  14  15
ENDBRANCH  13  14
ENDBRANCH  11  13
ENDBRANCH  10  11
ENDBRANCH   1  10
TORSDOF 8
ENDMDL
MODEL 7
REMARK VINA RESULT:      -5.5     11.518     13.013
REMARK  Name = 17753929
REMARK  8 active torsions:
REMARK  status: ('A' for Active; 'I' for Inactive)
REMARK    1  A    between atoms: C_1  and  N_2
REMARK    2  A    between atoms: C_1  and  C_7
REMARK    3  A    between atoms: C_1  and  C_10
REMARK    4  A    between atoms: C_7  and  O_8
REMARK    5  A    between atoms: C_10  and  S_11
REMARK    6  A    between atoms: S_11  and  C_13
REMARK    7  A    between atoms: C_13  and  C_14
REMARK    8  A    between atoms: C_14  and  C_15
REMARK                            x       y       z     vdW  Elec       q    Type
REMARK                         _______ _______ _______ _____ _____    ______ ____
ROOT
ATOM      1  C   UNK     1      34.181 -16.388 -24.291  0.00  0.00    +0.047 C 
ENDROOT
BRANCH   1   2
ATOM      2  N   UNK     1      35.119 -17.112 -25.152  0.00  0.00    +0.389 N 
ATOM      3  H   UNK     1      34.826 -18.084 -25.232  0.00  0.00    -0.088 HD
ATOM      4  H   UNK     1      36.055 -17.070 -24.747  0.00  0.00    -0.088 HD
ATOM      5  H   UNK     1      35.131 -16.683 -26.078  0.00  0.00    -0.088 HD
ENDBRANCH   1   2
BRANCH   1   7
ATOM      6  O   UNK     1      33.046 -14.279 -24.634  0.00  0.00    -0.253 OA
ATOM      7  C   UNK     1      33.564 -15.277 -25.121  0.00  0.00    +0.294 C 
BRANCH   7   8
ATOM      8  O   UNK     1      33.605 -15.505 -26.459  0.00  0.00    -0.482 OA
ATOM      9  H   UNK     1      33.722 -16.377 -26.782  0.00  0.00    +0.295 HD
ENDBRANCH   7   8
ENDBRANCH   1   7
BRANCH   1  10
ATOM     10  C   UNK     1      34.909 -15.853 -23.057  0.00  0.00    +0.054 C 
BRANCH  10  11
ATOM     11  S   UNK     1      34.490 -16.787 -21.568  0.00  0.00    -0.079 S 
BRANCH  11  13
ATOM     12  O   UNK     1      36.476 -18.226 -22.538  0.00  0.00    -0.285 OA
ATOM     13  C   UNK     1      35.512 -18.212 -21.784  0.00  0.00    +0.199 C 
BRANCH  13  14
ATOM     14  C   UNK     1      35.071 -19.394 -20.942  0.00  0.00    +0.076 C 
BRANCH  14  15
ATOM     15  C   UNK     1      33.556 -19.585 -20.974  0.00  0.00    +0.009 C 
ATOM     16  C   UNK     1      33.108 -20.658 -19.995  0.00  0.00    +0.000 C 
ENDBRANCH  14  15
ENDBRANCH  13  14
ENDBRANCH  11  13
ENDBRANCH  10  11
ENDBRANCH   1  10
TORSDOF 8
ENDMDL
MODEL 8
REMARK VINA RESULT:      -5.4      9.616     10.897
REMARK  Name = 17753929
REMARK  8 active torsions:
REMARK  status: ('A' for Active; 'I' for Inactive)
REMARK    1  A    between atoms: C_1  and  N_2
REMARK    2  A    between atoms: C_1  and  C_7
REMARK    3  A    between atoms: C_1  and  C_10
REMARK    4  A    between atoms: C_7  and  O_8
REMARK    5  A    between atoms: C_10  and  S_11
REMARK    6  A    between atoms: S_11  and  C_13
REMARK    7  A    between atoms: C_13  and  C_14
REMARK    8  A    between atoms: C_14  and  C_15
REMARK                            x       y       z     vdW  Elec       q    Type
REMARK                         _______ _______ _______ _____ _____    ______ ____
ROOT
ATOM      1  C   UNK     1      35.405 -18.669 -23.680  0.00  0.00    +0.047 C 
ENDROOT
BRANCH   1   2
ATOM      2  N   UNK     1      36.523 -18.183 -22.869  0.00  0.00    +0.389 N 
ATOM      3  H   UNK     1      36.678 -18.820 -22.088  0.00  0.00    -0.088 HD
ATOM      4  H   UNK     1      36.306 -17.253 -22.512  0.00  0.00    -0.088 HD
ATOM      5  H   UNK     1      37.366 -18.139 -23.443  0.00  0.00    -0.088 HD
ENDBRANCH   1   2
BRANCH   1   7
ATOM      6  O   UNK     1      34.244 -17.647 -25.541  0.00  0.00    -0.253 OA
ATOM      7  C   UNK     1      34.917 -17.507 -24.526  0.00  0.00    +0.294 C 
BRANCH   7   8
ATOM      8  O   UNK     1      35.324 -16.293 -24.076  0.00  0.00    -0.482 OA
ATOM      9  H   UNK     1      34.962 -15.941 -23.287  0.00  0.00    +0.295 HD
ENDBRANCH   7   8
ENDBRANCH   1   7
BRANCH   1  10
ATOM     10  C   UNK     1      34.306 -19.228 -22.775  0.00  0.00    +0.054 C 
BRANCH  10  11
ATOM     11  S   UNK     1      34.796 -19.226 -21.037  0.00  0.00    -0.079 S 
BRANCH  11  13
ATOM     12  O   UNK     1      32.446 -20.310 -20.530  0.00  0.00    -0.285 OA
ATOM     13  C   UNK     1      33.657 -20.406 -20.379  0.00  0.00    +0.199 C 
BRANCH  13  14
ATOM     14  C   UNK     1      34.336 -21.532 -19.624  0.00  0.00    +0.076 C 
BRANCH  14  15
ATOM     15  C   UNK     1      35.857 -21.472 -19.755  0.00  0.00    +0.009 C 
ATOM     16  C   UNK     1      36.537 -21.520 -18.397  0.00  0.00    +0.000 C 
ENDBRANCH  14  15
ENDBRANCH  13  14
ENDBRANCH  11  13
ENDBRANCH  10  11
ENDBRANCH   1  10
TORSDOF 8
ENDMDL
MODEL 9
REMARK VINA RESULT:      -5.4      1.870      2.358
REMARK  Name = 17753929
REMARK  8 active torsions:
REMARK  status: ('A' for Active; 'I' for Inactive)
REMARK    1  A    between atoms: C_1  and  N_2
REMARK    2  A    between atoms: C_1  and  C_7
REMARK    3  A    between atoms: C_1  and  C_10
REMARK    4  A    between atoms: C_7  and  O_8
REMARK    5  A    between atoms: C_10  and  S_11
REMARK    6  A    between atoms: S_11  and  C_13
REMARK    7  A    between atoms: C_13  and  C_14
REMARK    8  A    between atoms: C_14  and  C_15
REMARK                            x       y       z     vdW  Elec       q    Type
REMARK                         _______ _______ _______ _____ _____    ______ ____
ROOT
ATOM      1  C   UNK     1      38.745 -25.803 -14.518  0.00  0.00    +0.047 C 
ENDROOT
BRANCH   1   2
ATOM      2  N   UNK     1      38.717 -25.984 -13.065  0.00  0.00    +0.389 N 
ATOM      3  H   UNK     1      37.829 -26.404 -12.793  0.00  0.00    -0.088 HD
ATOM      4  H   UNK     1      38.819 -25.077 -12.608  0.00  0.00    -0.088 HD
ATOM      5  H   UNK     1      39.484 -26.595 -12.783  0.00  0.00    -0.088 HD
ENDBRANCH   1   2
BRANCH   1   7
ATOM      6  O   UNK     1      40.906 -24.753 -14.233  0.00  0.00    -0.253 OA
ATOM      7  C   UNK     1      40.173 -25.466 -14.908  0.00  0.00    +0.294 C 
BRANCH   7   8
ATOM      8  O   UNK     1      40.556 -25.999 -16.096  0.00  0.00    -0.482 OA
ATOM      9  H   UNK     1      39.952 -26.511 -16.597  0.00  0.00    +0.295 HD
ENDBRANCH   7   8
ENDBRANCH   1   7
BRANCH   1  10
ATOM     10  C   UNK     1      37.758 -24.709 -14.929  0.00  0.00    +0.054 C 
BRANCH  10  11
ATOM     11  S   UNK     1      36.052 -25.302 -14.924  0.00  0.00    -0.079 S 
BRANCH  11  13
ATOM     12  O   UNK     1      35.183 -22.813 -14.868  0.00  0.00    -0.285 OA
ATOM     13  C   UNK     1      35.220 -23.884 -14.277  0.00  0.00    +0.199 C 
BRANCH  13  14
ATOM     14  C   UNK     1      34.566 -24.141 -12.933  0.00  0.00    +0.076 C 
BRANCH  14  15
ATOM     15  C   UNK     1      35.593 -24.468 -11.850  0.00  0.00    +0.009 C 
ATOM     16  C   UNK     1      36.587 -23.334 -11.663  0.00  0.00    +0.000 C 
ENDBRANCH  14  15
ENDBRANCH  13  14
ENDBRANCH  11  13
ENDBRANCH  10  11
ENDBRANCH   1  10
TORSDOF 8
ENDMDL
