MODEL 1
REMARK VINA RESULT:      -9.3      0.000      0.000
REMARK  Name = 3052778
REMARK  4 active torsions:
REMARK  status: ('A' for Active; 'I' for Inactive)
REMARK    1  A    between atoms: N_2  and  C_7
REMARK    2  A    between atoms: C_3  and  C_16
REMARK    3  A    between atoms: C_17  and  O_25
REMARK    4  A    between atoms: C_21  and  N_22
REMARK                            x       y       z     vdW  Elec       q    Type
REMARK                         _______ _______ _______ _____ _____    ______ ____
ROOT
ATOM      1  O   UNL     1      33.827 -23.954 -19.094  0.00  0.00    -0.270 OA
ATOM      2  N   UNL     1      32.732 -22.648 -17.522  0.00  0.00    -0.303 N 
ATOM      3  C   UNL     1      33.456 -22.858 -18.682  0.00  0.00    +0.249 C 
ATOM      4  H   UNL     1      32.484 -21.728 -17.278  0.00  0.00    +0.150 HD
ENDROOT
BRANCH   2   7
ATOM      5  N   UNL     1      31.413 -22.804 -14.012  0.00  0.00    +0.387 N 
ATOM      6  C   UNL     1      30.840 -23.581 -16.271  0.00  0.00    -0.003 C 
ATOM      7  C   UNL     1      32.329 -23.737 -16.654  0.00  0.00    +0.068 C 
ATOM      8  C   UNL     1      30.675 -22.467 -15.232  0.00  0.00    -0.076 C 
ATOM      9  C   UNL     1      30.221 -24.874 -15.714  0.00  0.00    -0.003 C 
ATOM     10  C   UNL     1      33.264 -23.812 -15.440  0.00  0.00    -0.003 C 
ATOM     11  C   UNL     1      32.852 -22.882 -14.292  0.00  0.00    -0.076 C 
ATOM     12  C   UNL     1      30.701 -25.231 -14.308  0.00  0.00    -0.023 C 
ATOM     13  C   UNL     1      30.851 -24.012 -13.392  0.00  0.00    -0.077 C 
ATOM     14  H   UNL     1      31.305 -22.062 -13.320  0.00  0.00    -0.080 HD
ENDBRANCH   2   7
BRANCH   3  16
ATOM     15 CL   UNL     1      37.115 -19.692 -20.556  0.00  0.00    -0.078 Cl
ATOM     16  C   UNL     1      33.816 -21.636 -19.448  0.00  0.00    +0.088 C 
ATOM     17  C   UNL     1      35.142 -21.292 -19.614  0.00  0.00    +0.155 C 
ATOM     18  C   UNL     1      32.789 -20.880 -19.978  0.00  0.00    +0.009 C 
ATOM     19  C   UNL     1      35.455 -20.142 -20.339  0.00  0.00    +0.104 C 
ATOM     20  C   UNL     1      33.103 -19.731 -20.703  0.00  0.00    +0.015 C 
ATOM     21  C   UNL     1      34.436 -19.362 -20.884  0.00  0.00    +0.055 C 
BRANCH  21  22
ATOM     22  N   UNL     1      34.718 -18.191 -21.623  0.00  0.00    -0.356 N 
ATOM     23  H   UNL     1      33.981 -17.656 -21.998  0.00  0.00    +0.142 HD
ATOM     24  H   UNL     1      35.652 -17.911 -21.764  0.00  0.00    +0.142 HD
ENDBRANCH  21  22
BRANCH  17  25
ATOM     25  O   UNL     1      36.131 -22.064 -19.075  0.00  0.00    -0.470 OA
ATOM     26  C   UNL     1      36.580 -21.717 -17.769  0.00  0.00    +0.253 C 
ENDBRANCH  17  25
ENDBRANCH   3  16
TORSDOF 4
ENDMDL
MODEL 2
REMARK VINA RESULT:      -8.5      4.329      7.074
REMARK  Name = 3052778
REMARK  4 active torsions:
REMARK  status: ('A' for Active; 'I' for Inactive)
REMARK    1  A    between atoms: N_2  and  C_7
REMARK    2  A    between atoms: C_3  and  C_16
REMARK    3  A    between atoms: C_17  and  O_25
REMARK    4  A    between atoms: C_21  and  N_22
REMARK                            x       y       z     vdW  Elec       q    Type
REMARK                         _______ _______ _______ _____ _____    ______ ____
ROOT
ATOM      1  O   UNL     1      34.141 -23.873 -12.232  0.00  0.00    -0.270 OA
ATOM      2  N   UNL     1      34.980 -25.196 -13.941  0.00  0.00    -0.303 N 
ATOM      3  C   UNL     1      34.006 -24.440 -13.313  0.00  0.00    +0.249 C 
ATOM      4  H   UNL     1      34.772 -25.612 -14.809  0.00  0.00    +0.150 HD
ENDROOT
BRANCH   2   7
ATOM      5  N   UNL     1      38.436 -25.386 -15.392  0.00  0.00    +0.387 N 
ATOM      6  C   UNL     1      37.190 -24.171 -13.659  0.00  0.00    -0.003 C 
ATOM      7  C   UNL     1      36.295 -25.397 -13.366  0.00  0.00    +0.068 C 
ATOM      8  C   UNL     1      37.643 -24.185 -15.122  0.00  0.00    -0.076 C 
ATOM      9  C   UNL     1      38.433 -24.102 -12.755  0.00  0.00    -0.003 C 
ATOM     10  C   UNL     1      36.891 -26.718 -13.869  0.00  0.00    -0.003 C 
ATOM     11  C   UNL     1      37.614 -26.590 -15.216  0.00  0.00    -0.076 C 
ATOM     12  C   UNL     1      39.497 -25.148 -13.089  0.00  0.00    -0.023 C 
ATOM     13  C   UNL     1      39.670 -25.374 -14.595  0.00  0.00    -0.077 C 
ATOM     14  H   UNL     1      38.737 -25.397 -16.367  0.00  0.00    -0.080 HD
ENDBRANCH   2   7
BRANCH   3  16
ATOM     15 CL   UNL     1      31.152 -22.467 -17.170  0.00  0.00    -0.078 Cl
ATOM     16  C   UNL     1      32.702 -24.354 -14.019  0.00  0.00    +0.088 C 
ATOM     17  C   UNL     1      32.570 -23.543 -15.129  0.00  0.00    +0.155 C 
ATOM     18  C   UNL     1      31.651 -25.106 -13.532  0.00  0.00    +0.009 C 
ATOM     19  C   UNL     1      31.336 -23.481 -15.777  0.00  0.00    +0.104 C 
ATOM     20  C   UNL     1      30.418 -25.043 -14.180  0.00  0.00    +0.015 C 
ATOM     21  C   UNL     1      30.261 -24.231 -15.303  0.00  0.00    +0.055 C 
BRANCH  21  22
ATOM     22  N   UNL     1      28.997 -24.191 -15.935  0.00  0.00    -0.356 N 
ATOM     23  H   UNL     1      28.573 -23.325 -16.134  0.00  0.00    +0.142 HD
ATOM     24  H   UNL     1      28.541 -25.030 -16.177  0.00  0.00    +0.142 HD
ENDBRANCH  21  22
BRANCH  17  25
ATOM     25  O   UNL     1      33.631 -22.814 -15.583  0.00  0.00    -0.470 OA
ATOM     26  C   UNL     1      34.258 -23.265 -16.780  0.00  0.00    +0.253 C 
ENDBRANCH  17  25
ENDBRANCH   3  16
TORSDOF 4
ENDMDL
MODEL 3
REMARK VINA RESULT:      -8.5      9.383     13.318
REMARK  Name = 3052778
REMARK  4 active torsions:
REMARK  status: ('A' for Active; 'I' for Inactive)
REMARK    1  A    between atoms: N_2  and  C_7
REMARK    2  A    between atoms: C_3  and  C_16
REMARK    3  A    between atoms: C_17  and  O_25
REMARK    4  A    between atoms: C_21  and  N_22
REMARK                            x       y       z     vdW  Elec       q    Type
REMARK                         _______ _______ _______ _____ _____    ______ ____
ROOT
ATOM      1  O   UNL     1      30.453 -11.812 -21.057  0.00  0.00    -0.270 OA
ATOM      2  N   UNL     1      32.136 -10.804 -22.293  0.00  0.00    -0.303 N 
ATOM      3  C   UNL     1      31.535 -11.863 -21.637  0.00  0.00    +0.249 C 
ATOM      4  H   UNL     1      33.007 -10.947 -22.728  0.00  0.00    +0.150 HD
ENDROOT
BRANCH   2   7
ATOM      5  N   UNL     1      33.516  -7.328 -22.609  0.00  0.00    +0.387 N 
ATOM      6  C   UNL     1      31.889  -8.811 -23.700  0.00  0.00    -0.003 C 
ATOM      7  C   UNL     1      31.527  -9.490 -22.360  0.00  0.00    +0.068 C 
ATOM      8  C   UNL     1      33.341  -8.322 -23.670  0.00  0.00    -0.076 C 
ATOM      9  C   UNL     1      30.974  -7.623 -24.042  0.00  0.00    -0.003 C 
ATOM     10  C   UNL     1      31.929  -8.663 -21.132  0.00  0.00    -0.003 C 
ATOM     11  C   UNL     1      33.270  -7.936 -21.295  0.00  0.00    -0.076 C 
ATOM     12  C   UNL     1      31.219  -6.387 -23.176  0.00  0.00    -0.023 C 
ATOM     13  C   UNL     1      32.702  -6.136 -22.886  0.00  0.00    -0.077 C 
ATOM     14  H   UNL     1      34.483  -7.004 -22.587  0.00  0.00    -0.080 HD
ENDBRANCH   2   7
BRANCH   3  16
ATOM     15 CL   UNL     1      34.154 -15.491 -24.263  0.00  0.00    -0.078 Cl
ATOM     16  C   UNL     1      32.299 -13.138 -21.634  0.00  0.00    +0.088 C 
ATOM     17  C   UNL     1      32.801 -13.644 -22.817  0.00  0.00    +0.155 C 
ATOM     18  C   UNL     1      32.486 -13.777 -20.425  0.00  0.00    +0.009 C 
ATOM     19  C   UNL     1      33.518 -14.839 -22.788  0.00  0.00    +0.104 C 
ATOM     20  C   UNL     1      33.203 -14.973 -20.397  0.00  0.00    +0.015 C 
ATOM     21  C   UNL     1      33.720 -15.504 -21.579  0.00  0.00    +0.055 C 
BRANCH  21  22
ATOM     22  N   UNL     1      34.441 -16.717 -21.515  0.00  0.00    -0.356 N 
ATOM     23  H   UNL     1      34.373 -17.290 -20.716  0.00  0.00    +0.142 HD
ATOM     24  H   UNL     1      35.013 -16.991 -22.269  0.00  0.00    +0.142 HD
ENDBRANCH  21  22
BRANCH  17  25
ATOM     25  O   UNL     1      32.597 -12.984 -23.994  0.00  0.00    -0.470 OA
ATOM     26  C   UNL     1      33.727 -12.340 -24.577  0.00  0.00    +0.253 C 
ENDBRANCH  17  25
ENDBRANCH   3  16
TORSDOF 4
ENDMDL
MODEL 4
REMARK VINA RESULT:      -8.3      2.716      7.257
REMARK  Name = 3052778
REMARK  4 active torsions:
REMARK  status: ('A' for Active; 'I' for Inactive)
REMARK    1  A    between atoms: N_2  and  C_7
REMARK    2  A    between atoms: C_3  and  C_16
REMARK    3  A    between atoms: C_17  and  O_25
REMARK    4  A    between atoms: C_21  and  N_22
REMARK                            x       y       z     vdW  Elec       q    Type
REMARK                         _______ _______ _______ _____ _____    ______ ____
ROOT
ATOM      1  O   UNL     1      32.643 -21.771 -20.505  0.00  0.00    -0.270 OA
ATOM      2  N   UNL     1      34.296 -20.155 -20.322  0.00  0.00    -0.303 N 
ATOM      3  C   UNL     1      33.612 -21.290 -19.923  0.00  0.00    +0.249 C 
ATOM      4  H   UNL     1      35.062 -19.850 -19.784  0.00  0.00    +0.150 HD
ENDROOT
BRANCH   2   7
ATOM      5  N   UNL     1      35.704 -17.103 -21.992  0.00  0.00    +0.387 N 
ATOM      6  C   UNL     1      35.081 -19.419 -22.525  0.00  0.00    -0.003 C 
ATOM      7  C   UNL     1      33.923 -19.401 -21.502  0.00  0.00    +0.068 C 
ATOM      8  C   UNL     1      36.202 -18.479 -22.072  0.00  0.00    -0.076 C 
ATOM      9  C   UNL     1      34.639 -19.017 -23.943  0.00  0.00    -0.003 C 
ATOM     10  C   UNL     1      33.487 -17.986 -21.102  0.00  0.00    -0.003 C 
ATOM     11  C   UNL     1      34.655 -17.000 -20.969  0.00  0.00    -0.076 C 
ATOM     12  C   UNL     1      34.329 -17.528 -24.093  0.00  0.00    -0.023 C 
ATOM     13  C   UNL     1      35.300 -16.628 -23.322  0.00  0.00    -0.077 C 
ATOM     14  H   UNL     1      36.449 -16.477 -21.689  0.00  0.00    -0.080 HD
ENDBRANCH   2   7
BRANCH   3  16
ATOM     15 CL   UNL     1      37.467 -22.103 -16.547  0.00  0.00    -0.078 Cl
ATOM     16  C   UNL     1      34.101 -21.934 -18.676  0.00  0.00    +0.088 C 
ATOM     17  C   UNL     1      35.402 -21.732 -18.260  0.00  0.00    +0.155 C 
ATOM     18  C   UNL     1      33.217 -22.722 -17.965  0.00  0.00    +0.009 C 
ATOM     19  C   UNL     1      35.837 -22.344 -17.085  0.00  0.00    +0.104 C 
ATOM     20  C   UNL     1      33.653 -23.333 -16.791  0.00  0.00    +0.015 C 
ATOM     21  C   UNL     1      34.963 -23.144 -16.350  0.00  0.00    +0.055 C 
BRANCH  21  22
ATOM     22  N   UNL     1      35.371 -23.779 -15.155  0.00  0.00    -0.356 N 
ATOM     23  H   UNL     1      35.904 -23.283 -14.491  0.00  0.00    +0.142 HD
ATOM     24  H   UNL     1      35.124 -24.718 -14.987  0.00  0.00    +0.142 HD
ENDBRANCH  21  22
BRANCH  17  25
ATOM     25  O   UNL     1      36.247 -20.946 -18.988  0.00  0.00    -0.470 OA
ATOM     26  C   UNL     1      37.057 -21.599 -19.961  0.00  0.00    +0.253 C 
ENDBRANCH  17  25
ENDBRANCH   3  16
TORSDOF 4
ENDMDL
MODEL 5
REMARK VINA RESULT:      -8.1      2.932      7.481
REMARK  Name = 3052778
REMARK  4 active torsions:
REMARK  status: ('A' for Active; 'I' for Inactive)
REMARK    1  A    between atoms: N_2  and  C_7
REMARK    2  A    between atoms: C_3  and  C_16
REMARK    3  A    between atoms: C_17  and  O_25
REMARK    4  A    between atoms: C_21  and  N_22
REMARK                            x       y       z     vdW  Elec       q    Type
REMARK                         _______ _______ _______ _____ _____    ______ ____
ROOT
ATOM      1  O   UNL     1      33.221 -22.010 -19.970  0.00  0.00    -0.270 OA
ATOM      2  N   UNL     1      34.891 -20.432 -20.278  0.00  0.00    -0.303 N 
ATOM      3  C   UNL     1      34.275 -21.483 -19.623  0.00  0.00    +0.249 C 
ATOM      4  H   UNL     1      35.736 -20.079 -19.919  0.00  0.00    +0.150 HD
ENDROOT
BRANCH   2   7
ATOM      5  N   UNL     1      35.464 -17.170 -22.045  0.00  0.00    +0.387 N 
ATOM      6  C   UNL     1      35.454 -19.583 -22.509  0.00  0.00    -0.003 C 
ATOM      7  C   UNL     1      34.334 -19.833 -21.475  0.00  0.00    +0.068 C 
ATOM      8  C   UNL     1      36.298 -18.374 -22.093  0.00  0.00    -0.076 C 
ATOM      9  C   UNL     1      34.921 -19.349 -23.933  0.00  0.00    -0.003 C 
ATOM     10  C   UNL     1      33.550 -18.565 -21.109  0.00  0.00    -0.003 C 
ATOM     11  C   UNL     1      34.427 -17.310 -21.015  0.00  0.00    -0.076 C 
ATOM     12  C   UNL     1      34.239 -17.994 -24.120  0.00  0.00    -0.023 C 
ATOM     13  C   UNL     1      34.948 -16.853 -23.384  0.00  0.00    -0.077 C 
ATOM     14  H   UNL     1      36.025 -16.366 -21.766  0.00  0.00    -0.080 HD
ENDBRANCH   2   7
BRANCH   3  16
ATOM     15 CL   UNL     1      34.129 -24.269 -15.249  0.00  0.00    -0.078 Cl
ATOM     16  C   UNL     1      34.958 -21.967 -18.396  0.00  0.00    +0.088 C 
ATOM     17  C   UNL     1      34.289 -22.792 -17.513  0.00  0.00    +0.155 C 
ATOM     18  C   UNL     1      36.264 -21.570 -18.182  0.00  0.00    +0.009 C 
ATOM     19  C   UNL     1      34.953 -23.235 -16.369  0.00  0.00    +0.104 C 
ATOM     20  C   UNL     1      36.926 -22.014 -17.039  0.00  0.00    +0.015 C 
ATOM     21  C   UNL     1      36.271 -22.847 -16.132  0.00  0.00    +0.055 C 
BRANCH  21  22
ATOM     22  N   UNL     1      36.972 -23.278 -14.983  0.00  0.00    -0.356 N 
ATOM     23  H   UNL     1      36.786 -24.165 -14.597  0.00  0.00    +0.142 HD
ATOM     24  H   UNL     1      37.646 -22.692 -14.569  0.00  0.00    +0.142 HD
ENDBRANCH  21  22
BRANCH  17  25
ATOM     25  O   UNL     1      32.999 -23.164 -17.756  0.00  0.00    -0.470 OA
ATOM     26  C   UNL     1      32.018 -22.750 -16.810  0.00  0.00    +0.253 C 
ENDBRANCH  17  25
ENDBRANCH   3  16
TORSDOF 4
ENDMDL
MODEL 6
REMARK VINA RESULT:      -7.9      3.127      3.995
REMARK  Name = 3052778
REMARK  4 active torsions:
REMARK  status: ('A' for Active; 'I' for Inactive)
REMARK    1  A    between atoms: N_2  and  C_7
REMARK    2  A    between atoms: C_3  and  C_16
REMARK    3  A    between atoms: C_17  and  O_25
REMARK    4  A    between atoms: C_21  and  N_22
REMARK                            x       y       z     vdW  Elec       q    Type
REMARK                         _______ _______ _______ _____ _____    ______ ____
ROOT
ATOM      1  O   UNL     1      32.968 -23.603 -16.338  0.00  0.00    -0.270 OA
ATOM      2  N   UNL     1      35.267 -23.540 -16.049  0.00  0.00    -0.303 N 
ATOM      3  C   UNL     1      34.083 -23.229 -16.692  0.00  0.00    +0.249 C 
ATOM      4  H   UNL     1      36.112 -23.190 -16.414  0.00  0.00    +0.150 HD
ENDROOT
BRANCH   2   7
ATOM      5  N   UNL     1      37.995 -24.487 -13.650  0.00  0.00    +0.387 N 
ATOM      6  C   UNL     1      35.740 -23.511 -13.643  0.00  0.00    -0.003 C 
ATOM      7  C   UNL     1      35.307 -24.363 -14.857  0.00  0.00    +0.068 C 
ATOM      8  C   UNL     1      37.245 -23.229 -13.703  0.00  0.00    -0.076 C 
ATOM      9  C   UNL     1      35.413 -24.173 -12.293  0.00  0.00    -0.003 C 
ATOM     10  C   UNL     1      36.207 -25.584 -15.094  0.00  0.00    -0.003 C 
ATOM     11  C   UNL     1      37.692 -25.310 -14.828  0.00  0.00    -0.076 C 
ATOM     12  C   UNL     1      36.305 -25.370 -11.962  0.00  0.00    -0.023 C 
ATOM     13  C   UNL     1      37.769 -25.163 -12.366  0.00  0.00    -0.077 C 
ATOM     14  H   UNL     1      38.996 -24.300 -13.692  0.00  0.00    -0.080 HD
ENDBRANCH   2   7
BRANCH   3  16
ATOM     15 CL   UNL     1      37.114 -20.677 -20.041  0.00  0.00    -0.078 Cl
ATOM     16  C   UNL     1      34.213 -22.397 -17.917  0.00  0.00    +0.088 C 
ATOM     17  C   UNL     1      35.460 -21.984 -18.341  0.00  0.00    +0.155 C 
ATOM     18  C   UNL     1      33.059 -22.067 -18.601  0.00  0.00    +0.009 C 
ATOM     19  C   UNL     1      35.557 -21.207 -19.495  0.00  0.00    +0.104 C 
ATOM     20  C   UNL     1      33.157 -21.290 -19.754  0.00  0.00    +0.015 C 
ATOM     21  C   UNL     1      34.406 -20.860 -20.202  0.00  0.00    +0.055 C 
BRANCH  21  22
ATOM     22  N   UNL     1      34.469 -20.074 -21.375  0.00  0.00    -0.356 N 
ATOM     23  H   UNL     1      34.729 -20.487 -22.231  0.00  0.00    +0.142 HD
ATOM     24  H   UNL     1      34.253 -19.114 -21.336  0.00  0.00    +0.142 HD
ENDBRANCH  21  22
BRANCH  17  25
ATOM     25  O   UNL     1      36.579 -22.330 -17.640  0.00  0.00    -0.470 OA
ATOM     26  C   UNL     1      37.224 -21.295 -16.903  0.00  0.00    +0.253 C 
ENDBRANCH  17  25
ENDBRANCH   3  16
TORSDOF 4
ENDMDL
MODEL 7
REMARK VINA RESULT:      -7.8      8.338     11.422
REMARK  Name = 3052778
REMARK  4 active torsions:
REMARK  status: ('A' for Active; 'I' for Inactive)
REMARK    1  A    between atoms: N_2  and  C_7
REMARK    2  A    between atoms: C_3  and  C_16
REMARK    3  A    between atoms: C_17  and  O_25
REMARK    4  A    between atoms: C_21  and  N_22
REMARK                            x       y       z     vdW  Elec       q    Type
REMARK                         _______ _______ _______ _____ _____    ______ ____
ROOT
ATOM      1  O   UNL     1      33.029 -13.105 -24.939  0.00  0.00    -0.270 OA
ATOM      2  N   UNL     1      33.092 -13.091 -22.621  0.00  0.00    -0.303 N 
ATOM      3  C   UNL     1      33.196 -12.514 -23.875  0.00  0.00    +0.249 C 
ATOM      4  H   UNL     1      33.245 -12.530 -21.827  0.00  0.00    +0.150 HD
ENDROOT
BRANCH   2   7
ATOM      5  N   UNL     1      35.051 -16.073 -21.459  0.00  0.00    +0.387 N 
ATOM      6  C   UNL     1      32.959 -14.887 -20.957  0.00  0.00    -0.003 C 
ATOM      7  C   UNL     1      32.765 -14.490 -22.438  0.00  0.00    +0.068 C 
ATOM      8  C   UNL     1      34.451 -15.019 -20.636  0.00  0.00    -0.076 C 
ATOM      9  C   UNL     1      32.253 -16.203 -20.586  0.00  0.00    -0.003 C 
ATOM     10  C   UNL     1      33.583 -15.351 -23.410  0.00  0.00    -0.003 C 
ATOM     11  C   UNL     1      34.976 -15.715 -22.880  0.00  0.00    -0.076 C 
ATOM     12  C   UNL     1      32.927 -17.447 -21.164  0.00  0.00    -0.023 C 
ATOM     13  C   UNL     1      34.457 -17.377 -21.131  0.00  0.00    -0.077 C 
ATOM     14  H   UNL     1      36.045 -16.161 -21.247  0.00  0.00    -0.080 HD
ENDBRANCH   2   7
BRANCH   3  16
ATOM     15 CL   UNL     1      32.133  -7.624 -22.507  0.00  0.00    -0.078 Cl
ATOM     16  C   UNL     1      33.566 -11.075 -23.894  0.00  0.00    +0.088 C 
ATOM     17  C   UNL     1      32.762 -10.148 -23.263  0.00  0.00    +0.155 C 
ATOM     18  C   UNL     1      34.725 -10.714 -24.552  0.00  0.00    +0.009 C 
ATOM     19  C   UNL     1      33.131  -8.803 -23.292  0.00  0.00    +0.104 C 
ATOM     20  C   UNL     1      35.094  -9.370 -24.581  0.00  0.00    +0.015 C 
ATOM     21  C   UNL     1      34.297  -8.414 -23.951  0.00  0.00    +0.055 C 
BRANCH  21  22
ATOM     22  N   UNL     1      34.700  -7.060 -24.000  0.00  0.00    -0.356 N 
ATOM     23  H   UNL     1      34.580  -6.482 -23.212  0.00  0.00    +0.142 HD
ATOM     24  H   UNL     1      35.100  -6.696 -24.823  0.00  0.00    +0.142 HD
ENDBRANCH  21  22
BRANCH  17  25
ATOM     25  O   UNL     1      31.623 -10.542 -22.621  0.00  0.00    -0.470 OA
ATOM     26  C   UNL     1      31.605 -10.412 -21.202  0.00  0.00    +0.253 C 
ENDBRANCH  17  25
ENDBRANCH   3  16
TORSDOF 4
ENDMDL
MODEL 8
REMARK VINA RESULT:      -7.7      9.199     12.174
REMARK  Name = 3052778
REMARK  4 active torsions:
REMARK  status: ('A' for Active; 'I' for Inactive)
REMARK    1  A    between atoms: N_2  and  C_7
REMARK    2  A    between atoms: C_3  and  C_16
REMARK    3  A    between atoms: C_17  and  O_25
REMARK    4  A    between atoms: C_21  and  N_22
REMARK                            x       y       z     vdW  Elec       q    Type
REMARK                         _______ _______ _______ _____ _____    ______ ____
ROOT
ATOM      1  O   UNL     1      30.232 -11.660 -20.990  0.00  0.00    -0.270 OA
ATOM      2  N   UNL     1      32.417 -12.120 -21.612  0.00  0.00    -0.303 N 
ATOM      3  C   UNL     1      31.380 -11.291 -21.224  0.00  0.00    +0.249 C 
ATOM      4  H   UNL     1      33.304 -11.725 -21.777  0.00  0.00    +0.150 HD
ENDROOT
BRANCH   2   7
ATOM      5  N   UNL     1      34.806 -14.983 -22.041  0.00  0.00    +0.387 N 
ATOM      6  C   UNL     1      32.918 -14.306 -20.622  0.00  0.00    -0.003 C 
ATOM      7  C   UNL     1      32.243 -13.548 -21.787  0.00  0.00    +0.068 C 
ATOM      8  C   UNL     1      34.440 -14.300 -20.798  0.00  0.00    -0.076 C 
ATOM      9  C   UNL     1      32.440 -15.763 -20.492  0.00  0.00    -0.003 C 
ATOM     10  C   UNL     1      32.757 -13.973 -23.168  0.00  0.00    -0.003 C 
ATOM     11  C   UNL     1      34.264 -14.259 -23.198  0.00  0.00    -0.076 C 
ATOM     12  C   UNL     1      32.963 -16.684 -21.594  0.00  0.00    -0.023 C 
ATOM     13  C   UNL     1      34.419 -16.399 -21.979  0.00  0.00    -0.077 C 
ATOM     14  H   UNL     1      35.818 -14.978 -22.160  0.00  0.00    -0.080 HD
ENDBRANCH   2   7
BRANCH   3  16
ATOM     15 CL   UNL     1      32.743  -6.851 -23.536  0.00  0.00    -0.078 Cl
ATOM     16  C   UNL     1      31.714  -9.847 -21.116  0.00  0.00    +0.088 C 
ATOM     17  C   UNL     1      32.032  -9.126 -22.250  0.00  0.00    +0.155 C 
ATOM     18  C   UNL     1      31.688  -9.268 -19.862  0.00  0.00    +0.009 C 
ATOM     19  C   UNL     1      32.339  -7.771 -22.124  0.00  0.00    +0.104 C 
ATOM     20  C   UNL     1      31.994  -7.914 -19.738  0.00  0.00    +0.015 C 
ATOM     21  C   UNL     1      32.320  -7.165 -20.869  0.00  0.00    +0.055 C 
BRANCH  21  22
ATOM     22  N   UNL     1      32.625  -5.795 -20.706  0.00  0.00    -0.356 N 
ATOM     23  H   UNL     1      32.097  -5.112 -21.181  0.00  0.00    +0.142 HD
ATOM     24  H   UNL     1      33.367  -5.522 -20.118  0.00  0.00    +0.142 HD
ENDBRANCH  21  22
BRANCH  17  25
ATOM     25  O   UNL     1      32.047  -9.731 -23.473  0.00  0.00    -0.470 OA
ATOM     26  C   UNL     1      33.324 -10.062 -24.014  0.00  0.00    +0.253 C 
ENDBRANCH  17  25
ENDBRANCH   3  16
TORSDOF 4
ENDMDL
MODEL 9
REMARK VINA RESULT:      -7.7     11.124     14.650
REMARK  Name = 3052778
REMARK  4 active torsions:
REMARK  status: ('A' for Active; 'I' for Inactive)
REMARK    1  A    between atoms: N_2  and  C_7
REMARK    2  A    between atoms: C_3  and  C_16
REMARK    3  A    between atoms: C_17  and  O_25
REMARK    4  A    between atoms: C_21  and  N_22
REMARK                            x       y       z     vdW  Elec       q    Type
REMARK                         _______ _______ _______ _____ _____    ______ ____
ROOT
ATOM      1  O   UNL     1      35.228  -9.732 -24.001  0.00  0.00    -0.270 OA
ATOM      2  N   UNL     1      32.964  -9.509 -23.552  0.00  0.00    -0.303 N 
ATOM      3  C   UNL     1      34.081 -10.168 -24.035  0.00  0.00    +0.249 C 
ATOM      4  H   UNL     1      32.085  -9.945 -23.628  0.00  0.00    +0.150 HD
ENDROOT
BRANCH   2   7
ATOM      5  N   UNL     1      31.132  -6.279 -24.103  0.00  0.00    +0.387 N 
ATOM      6  C   UNL     1      31.691  -7.838 -22.287  0.00  0.00    -0.003 C 
ATOM      7  C   UNL     1      33.045  -8.198 -22.940  0.00  0.00    +0.068 C 
ATOM      8  C   UNL     1      30.670  -7.457 -23.364  0.00  0.00    -0.076 C 
ATOM      9  C   UNL     1      31.797  -6.684 -21.274  0.00  0.00    -0.003 C 
ATOM     10  C   UNL     1      33.516  -7.165 -23.972  0.00  0.00    -0.003 C 
ATOM     11  C   UNL     1      32.377  -6.584 -24.820  0.00  0.00    -0.076 C 
ATOM     12  C   UNL     1      32.022  -5.317 -21.919  0.00  0.00    -0.023 C 
ATOM     13  C   UNL     1      31.218  -5.117 -23.209  0.00  0.00    -0.077 C 
ATOM     14  H   UNL     1      30.454  -6.027 -24.821  0.00  0.00    -0.080 HD
ENDBRANCH   2   7
BRANCH   3  16
ATOM     15 CL   UNL     1      33.048 -15.224 -23.494  0.00  0.00    -0.078 Cl
ATOM     16  C   UNL     1      33.827 -11.493 -24.660  0.00  0.00    +0.088 C 
ATOM     17  C   UNL     1      33.587 -12.596 -23.865  0.00  0.00    +0.155 C 
ATOM     18  C   UNL     1      33.836 -11.570 -26.039  0.00  0.00    +0.009 C 
ATOM     19  C   UNL     1      33.349 -13.827 -24.475  0.00  0.00    +0.104 C 
ATOM     20  C   UNL     1      33.598 -12.802 -26.647  0.00  0.00    +0.015 C 
ATOM     21  C   UNL     1      33.354 -13.931 -25.865  0.00  0.00    +0.055 C 
BRANCH  21  22
ATOM     22  N   UNL     1      33.116 -15.163 -26.515  0.00  0.00    -0.356 N 
ATOM     23  H   UNL     1      33.794 -15.538 -27.122  0.00  0.00    +0.142 HD
ATOM     24  H   UNL     1      32.272 -15.646 -26.360  0.00  0.00    +0.142 HD
ENDBRANCH  21  22
BRANCH  17  25
ATOM     25  O   UNL     1      33.585 -12.482 -22.505  0.00  0.00    -0.470 OA
ATOM     26  C   UNL     1      32.319 -12.542 -21.855  0.00  0.00    +0.253 C 
ENDBRANCH  17  25
ENDBRANCH   3  16
TORSDOF 4
ENDMDL
