MODEL 1
REMARK VINA RESULT:     -10.6      0.000      0.000
REMARK  Name = 5289470
REMARK  14 active torsions:
REMARK  status: ('A' for Active; 'I' for Inactive)
REMARK    1  A    between atoms: CA_1  and  C_4
REMARK    2  A    between atoms: CA_1  and  N_21
REMARK    3  A    between atoms: CA_1  and  CB_34
REMARK    4  A    between atoms: N_3  and  CA_6
REMARK    5  A    between atoms: CA_6  and  C_8
REMARK    6  A    between atoms: CA_6  and  CB_11
REMARK    7  A    between atoms: C_8  and  O_9
REMARK    8  A    between atoms: CB_11  and  CG_12
REMARK    9  A    between atoms: CZ_17  and  OH_18
REMARK   10  A    between atoms: C_22  and  C_24
REMARK   11  A    between atoms: C_24  and  S_25
REMARK   12  A    between atoms: C_24  and  C_27
REMARK   13  A    between atoms: C_27  and  C_28
REMARK   14  A    between atoms: CB_34  and  CG_35
REMARK                            x       y       z     vdW  Elec       q    Type
REMARK                         _______ _______ _______ _____ _____    ______ ____
ROOT
ATOM      1  CA  UNL     1      33.872 -23.136 -17.202  0.00  0.00    +0.153 C 
ENDROOT
BRANCH   1   4
ATOM      2  O   UNL     1      31.545 -22.466 -17.296  0.00  0.00    -0.273 OA
ATOM      3  N   UNL     1      32.283 -23.700 -15.473  0.00  0.00    -0.295 N 
ATOM      4  C   UNL     1      32.444 -23.036 -16.681  0.00  0.00    +0.241 C 
ATOM      5  H   UNL     1      33.072 -24.124 -15.064  0.00  0.00    +0.150 HD
BRANCH   3   6
ATOM      6  CA  UNL     1      31.016 -23.802 -14.785  0.00  0.00    +0.176 C 
BRANCH   6   8
ATOM      7  OXT UNL     1      30.373 -24.366 -12.522  0.00  0.00    -0.248 OA
ATOM      8  C   UNL     1      31.176 -24.496 -13.441  0.00  0.00    +0.332 C 
BRANCH   8   9
ATOM      9  O   UNL     1      32.276 -25.279 -13.332  0.00  0.00    -0.479 OA
ATOM     10  H   UNL     1      32.375 -26.027 -13.887  0.00  0.00    +0.295 HD
ENDBRANCH   8   9
ENDBRANCH   6   8
BRANCH   6  11
ATOM     11  CB  UNL     1      29.981 -24.546 -15.639  0.00  0.00    +0.057 C 
BRANCH  11  12
ATOM     12  CG  UNL     1      28.807 -23.682 -16.028  0.00  0.00    -0.020 C 
ATOM     13  CD1 UNL     1      28.341 -23.686 -17.343  0.00  0.00    -0.001 C 
ATOM     14  CD2 UNL     1      28.188 -22.875 -15.072  0.00  0.00    -0.001 C 
ATOM     15  CE1 UNL     1      27.256 -22.886 -17.702  0.00  0.00    +0.036 C 
ATOM     16  CE2 UNL     1      27.104 -22.075 -15.431  0.00  0.00    +0.036 C 
ATOM     17  CZ  UNL     1      26.639 -22.080 -16.746  0.00  0.00    +0.134 C 
BRANCH  17  18
ATOM     18  OH  UNL     1      25.580 -21.300 -17.096  0.00  0.00    -0.506 OA
ATOM     19  HH  UNL     1      24.759 -21.399 -16.655  0.00  0.00    +0.292 HD
ENDBRANCH  17  18
ENDBRANCH  11  12
ENDBRANCH   6  11
ENDBRANCH   3   6
ENDBRANCH   1   4
BRANCH   1  21
ATOM     20  O   UNL     1      36.229 -22.111 -18.482  0.00  0.00    -0.274 OA
ATOM     21  N   UNL     1      33.928 -22.395 -18.438  0.00  0.00    -0.297 N 
ATOM     22  C   ACE A   0      35.120 -21.938 -18.982  0.00  0.00    +0.232 C 
ATOM     23  H   UNL     1      33.087 -22.207 -18.915  0.00  0.00    +0.150 HD
BRANCH  22  24
ATOM     24  C   UNL     1      34.916 -21.160 -20.279  0.00  0.00    +0.124 C 
BRANCH  24  25
ATOM     25  S   UNL     1      33.224 -20.470 -20.219  0.00  0.00    -0.159 S 
ATOM     26  H   UNL     1      32.944 -20.065 -18.951  0.00  0.00    +0.103 HD
ENDBRANCH  24  25
BRANCH  24  27
ATOM     27  C   UNL     1      35.930 -20.019 -20.437  0.00  0.00    +0.046 C 
BRANCH  27  28
ATOM     28  C   UNL     1      35.512 -19.026 -21.498  0.00  0.00    -0.021 C 
ATOM     29  C   UNL     1      35.358 -17.680 -21.172  0.00  0.00    -0.004 C 
ATOM     30  C   UNL     1      35.282 -19.459 -22.804  0.00  0.00    -0.004 C 
ATOM     31  C   UNL     1      34.972 -16.764 -22.152  0.00  0.00    -0.000 C 
ATOM     32  C   UNL     1      34.896 -18.544 -23.784  0.00  0.00    -0.000 C 
ATOM     33  C   UNL     1      34.742 -17.196 -23.458  0.00  0.00    -0.000 C 
ENDBRANCH  27  28
ENDBRANCH  24  27
ENDBRANCH  22  24
ENDBRANCH   1  21
BRANCH   1  34
ATOM     34  CB  UNL     1      34.859 -22.598 -16.161  0.00  0.00    +0.055 C 
BRANCH  34  35
ATOM     35  CG  UNL     1      35.816 -23.653 -15.663  0.00  0.00    -0.020 C 
ATOM     36  CD1 UNL     1      35.365 -24.952 -15.433  0.00  0.00    -0.004 C 
ATOM     37  CD2 UNL     1      37.153 -23.327 -15.431  0.00  0.00    -0.004 C 
ATOM     38  CE1 UNL     1      36.250 -25.926 -14.972  0.00  0.00    -0.000 C 
ATOM     39  CE2 UNL     1      38.038 -24.302 -14.970  0.00  0.00    -0.000 C 
ATOM     40  CZ  UNL     1      37.586 -25.602 -14.741  0.00  0.00    -0.000 C 
ENDBRANCH  34  35
ENDBRANCH   1  34
TORSDOF 14
ENDMDL
MODEL 2
REMARK VINA RESULT:     -10.6      5.585     10.614
REMARK  Name = 5289470
REMARK  14 active torsions:
REMARK  status: ('A' for Active; 'I' for Inactive)
REMARK    1  A    between atoms: CA_1  and  C_4
REMARK    2  A    between atoms: CA_1  and  N_21
REMARK    3  A    between atoms: CA_1  and  CB_34
REMARK    4  A    between atoms: N_3  and  CA_6
REMARK    5  A    between atoms: CA_6  and  C_8
REMARK    6  A    between atoms: CA_6  and  CB_11
REMARK    7  A    between atoms: C_8  and  O_9
REMARK    8  A    between atoms: CB_11  and  CG_12
REMARK    9  A    between atoms: CZ_17  and  OH_18
REMARK   10  A    between atoms: C_22  and  C_24
REMARK   11  A    between atoms: C_24  and  S_25
REMARK   12  A    between atoms: C_24  and  C_27
REMARK   13  A    between atoms: C_27  and  C_28
REMARK   14  A    between atoms: CB_34  and  CG_35
REMARK                            x       y       z     vdW  Elec       q    Type
REMARK                         _______ _______ _______ _____ _____    ______ ____
ROOT
ATOM      1  CA  UNL     1      33.981 -14.119 -21.492  0.00  0.00    +0.153 C 
ENDROOT
BRANCH   1   4
ATOM      2  O   UNL     1      34.961 -15.649 -19.887  0.00  0.00    -0.273 OA
ATOM      3  N   UNL     1      34.498 -16.417 -22.029  0.00  0.00    -0.295 N 
ATOM      4  C   UNL     1      34.550 -15.455 -21.029  0.00  0.00    +0.241 C 
ATOM      5  H   UNL     1      34.149 -16.155 -22.912  0.00  0.00    +0.150 HD
BRANCH   3   6
ATOM      6  CA  UNL     1      34.928 -17.784 -21.839  0.00  0.00    +0.176 C 
BRANCH   6   8
ATOM      7  OXT UNL     1      35.259 -18.609 -24.089  0.00  0.00    -0.248 OA
ATOM      8  C   UNL     1      35.757 -18.266 -23.021  0.00  0.00    +0.332 C 
BRANCH   8   9
ATOM      9  O   UNL     1      37.094 -18.282 -22.811  0.00  0.00    -0.479 OA
ATOM     10  H   UNL     1      37.606 -17.517 -22.987  0.00  0.00    +0.295 HD
ENDBRANCH   8   9
ENDBRANCH   6   8
BRANCH   6  11
ATOM     11  CB  UNL     1      33.730 -18.716 -21.625  0.00  0.00    +0.057 C 
BRANCH  11  12
ATOM     12  CG  UNL     1      34.035 -19.863 -20.692  0.00  0.00    -0.020 C 
ATOM     13  CD1 UNL     1      32.995 -20.564 -20.082  0.00  0.00    -0.001 C 
ATOM     14  CD2 UNL     1      35.360 -20.220 -20.438  0.00  0.00    -0.001 C 
ATOM     15  CE1 UNL     1      33.278 -21.622 -19.218  0.00  0.00    +0.036 C 
ATOM     16  CE2 UNL     1      35.643 -21.279 -19.574  0.00  0.00    +0.036 C 
ATOM     17  CZ  UNL     1      34.602 -21.979 -18.965  0.00  0.00    +0.134 C 
BRANCH  17  18
ATOM     18  OH  UNL     1      34.879 -23.012 -18.123  0.00  0.00    -0.506 OA
ATOM     19  HH  UNL     1      34.435 -23.077 -17.300  0.00  0.00    +0.292 HD
ENDBRANCH  17  18
ENDBRANCH  11  12
ENDBRANCH   6  11
ENDBRANCH   3   6
ENDBRANCH   1   4
BRANCH   1  21
ATOM     20  O   UNL     1      32.117 -14.546 -23.633  0.00  0.00    -0.274 OA
ATOM     21  N   UNL     1      34.251 -14.006 -22.903  0.00  0.00    -0.297 N 
ATOM     22  C   ACE A   0      33.281 -14.232 -23.870  0.00  0.00    +0.232 C 
ATOM     23  H   UNL     1      35.160 -13.758 -23.192  0.00  0.00    +0.150 HD
BRANCH  22  24
ATOM     24  C   UNL     1      33.817 -14.077 -25.291  0.00  0.00    +0.124 C 
BRANCH  24  25
ATOM     25  S   UNL     1      33.284 -15.559 -26.220  0.00  0.00    -0.159 S 
ATOM     26  H   UNL     1      34.350 -16.383 -26.410  0.00  0.00    +0.103 HD
ENDBRANCH  24  25
BRANCH  24  27
ATOM     27  C   UNL     1      33.278 -12.817 -25.980  0.00  0.00    +0.046 C 
BRANCH  27  28
ATOM     28  C   UNL     1      33.928 -11.556 -25.455  0.00  0.00    -0.021 C 
ATOM     29  C   UNL     1      33.390 -10.902 -24.347  0.00  0.00    -0.004 C 
ATOM     30  C   UNL     1      35.068 -11.048 -26.078  0.00  0.00    -0.004 C 
ATOM     31  C   UNL     1      33.991  -9.740 -23.863  0.00  0.00    -0.000 C 
ATOM     32  C   UNL     1      35.669  -9.886 -25.594  0.00  0.00    -0.000 C 
ATOM     33  C   UNL     1      35.130  -9.232 -24.486  0.00  0.00    -0.000 C 
ENDBRANCH  27  28
ENDBRANCH  24  27
ENDBRANCH  22  24
ENDBRANCH   1  21
BRANCH   1  34
ATOM     34  CB  UNL     1      32.482 -14.042 -21.182  0.00  0.00    +0.055 C 
BRANCH  34  35
ATOM     35  CG  UNL     1      32.035 -12.652 -20.801  0.00  0.00    -0.020 C 
ATOM     36  CD1 UNL     1      31.640 -11.751 -21.789  0.00  0.00    -0.004 C 
ATOM     37  CD2 UNL     1      32.018 -12.268 -19.459  0.00  0.00    -0.004 C 
ATOM     38  CE1 UNL     1      31.227 -10.466 -21.436  0.00  0.00    -0.000 C 
ATOM     39  CE2 UNL     1      31.606 -10.983 -19.107  0.00  0.00    -0.000 C 
ATOM     40  CZ  UNL     1      31.210 -10.082 -20.096  0.00  0.00    -0.000 C 
ENDBRANCH  34  35
ENDBRANCH   1  34
TORSDOF 14
ENDMDL
MODEL 3
REMARK VINA RESULT:     -10.4      2.667      7.236
REMARK  Name = 5289470
REMARK  14 active torsions:
REMARK  status: ('A' for Active; 'I' for Inactive)
REMARK    1  A    between atoms: CA_1  and  C_4
REMARK    2  A    between atoms: CA_1  and  N_21
REMARK    3  A    between atoms: CA_1  and  CB_34
REMARK    4  A    between atoms: N_3  and  CA_6
REMARK    5  A    between atoms: CA_6  and  C_8
REMARK    6  A    between atoms: CA_6  and  CB_11
REMARK    7  A    between atoms: C_8  and  O_9
REMARK    8  A    between atoms: CB_11  and  CG_12
REMARK    9  A    between atoms: CZ_17  and  OH_18
REMARK   10  A    between atoms: C_22  and  C_24
REMARK   11  A    between atoms: C_24  and  S_25
REMARK   12  A    between atoms: C_24  and  C_27
REMARK   13  A    between atoms: C_27  and  C_28
REMARK   14  A    between atoms: CB_34  and  CG_35
REMARK                            x       y       z     vdW  Elec       q    Type
REMARK                         _______ _______ _______ _____ _____    ______ ____
ROOT
ATOM      1  CA  UNL     1      33.341 -23.704 -14.478  0.00  0.00    +0.153 C 
ENDROOT
BRANCH   1   4
ATOM      2  O   UNL     1      35.066 -25.405 -14.426  0.00  0.00    -0.273 OA
ATOM      3  N   UNL     1      34.940 -23.884 -12.677  0.00  0.00    -0.295 N 
ATOM      4  C   UNL     1      34.526 -24.448 -13.875  0.00  0.00    +0.241 C 
ATOM      5  H   UNL     1      34.435 -23.116 -12.322  0.00  0.00    +0.150 HD
BRANCH   3   6
ATOM      6  CA  UNL     1      36.074 -24.366 -11.922  0.00  0.00    +0.176 C 
BRANCH   6   8
ATOM      7  OXT UNL     1      35.021 -25.101  -9.872  0.00  0.00    -0.248 OA
ATOM      8  C   UNL     1      35.794 -24.327 -10.427  0.00  0.00    +0.332 C 
BRANCH   8   9
ATOM      9  O   UNL     1      36.470 -23.372  -9.745  0.00  0.00    -0.479 OA
ATOM     10  H   UNL     1      36.542 -22.507 -10.098  0.00  0.00    +0.295 HD
ENDBRANCH   8   9
ENDBRANCH   6   8
BRANCH   6  11
ATOM     11  CB  UNL     1      37.336 -23.553 -12.240  0.00  0.00    +0.057 C 
BRANCH  11  12
ATOM     12  CG  UNL     1      38.218 -24.214 -13.271  0.00  0.00    -0.020 C 
ATOM     13  CD1 UNL     1      38.170 -23.798 -14.602  0.00  0.00    -0.001 C 
ATOM     14  CD2 UNL     1      39.080 -25.244 -12.894  0.00  0.00    -0.001 C 
ATOM     15  CE1 UNL     1      38.984 -24.410 -15.555  0.00  0.00    +0.036 C 
ATOM     16  CE2 UNL     1      39.894 -25.856 -13.847  0.00  0.00    +0.036 C 
ATOM     17  CZ  UNL     1      39.846 -25.440 -15.176  0.00  0.00    +0.134 C 
BRANCH  17  18
ATOM     18  OH  UNL     1      40.641 -26.037 -16.106  0.00  0.00    -0.506 OA
ATOM     19  HH  UNL     1      41.477 -25.667 -16.314  0.00  0.00    +0.292 HD
ENDBRANCH  17  18
ENDBRANCH  11  12
ENDBRANCH   6  11
ENDBRANCH   3   6
ENDBRANCH   1   4
BRANCH   1  21
ATOM     20  O   UNL     1      34.023 -24.388 -17.181  0.00  0.00    -0.274 OA
ATOM     21  N   UNL     1      33.863 -22.814 -15.485  0.00  0.00    -0.297 N 
ATOM     22  C   ACE A   0      34.165 -23.238 -16.772  0.00  0.00    +0.232 C 
ATOM     23  H   UNL     1      34.011 -21.869 -15.250  0.00  0.00    +0.150 HD
BRANCH  22  24
ATOM     24  C   UNL     1      34.727 -22.119 -17.644  0.00  0.00    +0.124 C 
BRANCH  24  25
ATOM     25  S   UNL     1      36.513 -22.004 -17.267  0.00  0.00    -0.159 S 
ATOM     26  H   UNL     1      36.850 -22.971 -16.373  0.00  0.00    +0.103 HD
ENDBRANCH  24  25
BRANCH  24  27
ATOM     27  C   UNL     1      34.535 -22.397 -19.141  0.00  0.00    +0.046 C 
BRANCH  27  28
ATOM     28  C   UNL     1      34.428 -21.123 -19.949  0.00  0.00    -0.021 C 
ATOM     29  C   UNL     1      35.579 -20.515 -20.449  0.00  0.00    -0.004 C 
ATOM     30  C   UNL     1      33.177 -20.557 -20.195  0.00  0.00    -0.004 C 
ATOM     31  C   UNL     1      35.480 -19.340 -21.194  0.00  0.00    -0.000 C 
ATOM     32  C   UNL     1      33.078 -19.382 -20.941  0.00  0.00    -0.000 C 
ATOM     33  C   UNL     1      34.230 -18.774 -21.441  0.00  0.00    -0.000 C 
ENDBRANCH  27  28
ENDBRANCH  24  27
ENDBRANCH  22  24
ENDBRANCH   1  21
BRANCH   1  34
ATOM     34  CB  UNL     1      32.324 -24.696 -15.053  0.00  0.00    +0.055 C 
BRANCH  34  35
ATOM     35  CG  UNL     1      30.969 -24.075 -15.287  0.00  0.00    -0.020 C 
ATOM     36  CD1 UNL     1      30.680 -22.815 -14.766  0.00  0.00    -0.004 C 
ATOM     37  CD2 UNL     1      30.005 -24.763 -16.025  0.00  0.00    -0.004 C 
ATOM     38  CE1 UNL     1      29.426 -22.242 -14.982  0.00  0.00    -0.000 C 
ATOM     39  CE2 UNL     1      28.752 -24.190 -16.241  0.00  0.00    -0.000 C 
ATOM     40  CZ  UNL     1      28.463 -22.929 -15.719  0.00  0.00    -0.000 C 
ENDBRANCH  34  35
ENDBRANCH   1  34
TORSDOF 14
ENDMDL
MODEL 4
REMARK VINA RESULT:     -10.3     10.419     15.346
REMARK  Name = 5289470
REMARK  14 active torsions:
REMARK  status: ('A' for Active; 'I' for Inactive)
REMARK    1  A    between atoms: CA_1  and  C_4
REMARK    2  A    between atoms: CA_1  and  N_21
REMARK    3  A    between atoms: CA_1  and  CB_34
REMARK    4  A    between atoms: N_3  and  CA_6
REMARK    5  A    between atoms: CA_6  and  C_8
REMARK    6  A    between atoms: CA_6  and  CB_11
REMARK    7  A    between atoms: C_8  and  O_9
REMARK    8  A    between atoms: CB_11  and  CG_12
REMARK    9  A    between atoms: CZ_17  and  OH_18
REMARK   10  A    between atoms: C_22  and  C_24
REMARK   11  A    between atoms: C_24  and  S_25
REMARK   12  A    between atoms: C_24  and  C_27
REMARK   13  A    between atoms: C_27  and  C_28
REMARK   14  A    between atoms: CB_34  and  CG_35
REMARK                            x       y       z     vdW  Elec       q    Type
REMARK                         _______ _______ _______ _____ _____    ______ ____
ROOT
ATOM      1  CA  UNL     1      33.121  -8.672 -23.298  0.00  0.00    +0.153 C 
ENDROOT
BRANCH   1   4
ATOM      2  O   UNL     1      35.216  -9.672 -23.996  0.00  0.00    -0.273 OA
ATOM      3  N   UNL     1      33.267 -10.922 -24.163  0.00  0.00    -0.295 N 
ATOM      4  C   UNL     1      33.999  -9.781 -23.866  0.00  0.00    +0.241 C 
ATOM      5  H   UNL     1      32.293 -10.903 -24.021  0.00  0.00    +0.150 HD
BRANCH   3   6
ATOM      6  CA  UNL     1      33.863 -12.139 -24.668  0.00  0.00    +0.176 C 
BRANCH   6   8
ATOM      7  OXT UNL     1      33.463 -12.716 -26.983  0.00  0.00    -0.248 OA
ATOM      8  C   UNL     1      34.097 -12.051 -26.169  0.00  0.00    +0.332 C 
BRANCH   8   9
ATOM      9  O   UNL     1      35.058 -11.176 -26.546  0.00  0.00    -0.479 OA
ATOM     10  H   UNL     1      35.329 -10.496 -25.960  0.00  0.00    +0.295 HD
ENDBRANCH   8   9
ENDBRANCH   6   8
BRANCH   6  11
ATOM     11  CB  UNL     1      32.990 -13.358 -24.345  0.00  0.00    +0.057 C 
BRANCH  11  12
ATOM     12  CG  UNL     1      33.589 -14.245 -23.281  0.00  0.00    -0.020 C 
ATOM     13  CD1 UNL     1      33.279 -14.033 -21.937  0.00  0.00    -0.001 C 
ATOM     14  CD2 UNL     1      34.456 -15.277 -23.641  0.00  0.00    -0.001 C 
ATOM     15  CE1 UNL     1      33.834 -14.852 -20.954  0.00  0.00    +0.036 C 
ATOM     16  CE2 UNL     1      35.011 -16.097 -22.658  0.00  0.00    +0.036 C 
ATOM     17  CZ  UNL     1      34.701 -15.883 -21.315  0.00  0.00    +0.134 C 
BRANCH  17  18
ATOM     18  OH  UNL     1      35.242 -16.683 -20.356  0.00  0.00    -0.506 OA
ATOM     19  HH  UNL     1      34.760 -16.869 -19.574  0.00  0.00    +0.292 HD
ENDBRANCH  17  18
ENDBRANCH  11  12
ENDBRANCH   6  11
ENDBRANCH   3   6
ENDBRANCH   1   4
BRANCH   1  21
ATOM     20  O   UNL     1      32.087  -6.018 -22.938  0.00  0.00    -0.274 OA
ATOM     21  N   UNL     1      33.048  -7.634 -24.296  0.00  0.00    -0.297 N 
ATOM     22  C   ACE A   0      32.528  -6.375 -24.028  0.00  0.00    +0.232 C 
ATOM     23  H   UNL     1      33.379  -7.826 -25.204  0.00  0.00    +0.150 HD
BRANCH  22  24
ATOM     24  C   UNL     1      32.534  -5.462 -25.251  0.00  0.00    +0.124 C 
BRANCH  24  25
ATOM     25  S   UNL     1      31.800  -3.871 -24.724  0.00  0.00    -0.159 S 
ATOM     26  H   UNL     1      32.784  -3.043 -24.280  0.00  0.00    +0.103 HD
ENDBRANCH  24  25
BRANCH  24  27
ATOM     27  C   UNL     1      33.951  -5.220 -25.788  0.00  0.00    +0.046 C 
BRANCH  27  28
ATOM     28  C   UNL     1      33.947  -4.816 -27.245  0.00  0.00    -0.021 C 
ATOM     29  C   UNL     1      32.747  -4.764 -27.952  0.00  0.00    -0.004 C 
ATOM     30  C   UNL     1      35.146  -4.494 -27.882  0.00  0.00    -0.004 C 
ATOM     31  C   UNL     1      32.744  -4.391 -29.297  0.00  0.00    -0.000 C 
ATOM     32  C   UNL     1      35.144  -4.121 -29.227  0.00  0.00    -0.000 C 
ATOM     33  C   UNL     1      33.942  -4.069 -29.934  0.00  0.00    -0.000 C 
ENDBRANCH  27  28
ENDBRANCH  24  27
ENDBRANCH  22  24
ENDBRANCH   1  21
BRANCH   1  34
ATOM     34  CB  UNL     1      31.739  -9.220 -22.931  0.00  0.00    +0.055 C 
BRANCH  34  35
ATOM     35  CG  UNL     1      31.685  -9.778 -21.530  0.00  0.00    -0.020 C 
ATOM     36  CD1 UNL     1      31.232 -11.079 -21.314  0.00  0.00    -0.004 C 
ATOM     37  CD2 UNL     1      32.087  -8.991 -20.450  0.00  0.00    -0.004 C 
ATOM     38  CE1 UNL     1      31.181 -11.594 -20.018  0.00  0.00    -0.000 C 
ATOM     39  CE2 UNL     1      32.036  -9.507 -19.155  0.00  0.00    -0.000 C 
ATOM     40  CZ  UNL     1      31.583 -10.808 -18.939  0.00  0.00    -0.000 C 
ENDBRANCH  34  35
ENDBRANCH   1  34
TORSDOF 14
ENDMDL
MODEL 5
REMARK VINA RESULT:     -10.1      2.488      6.703
REMARK  Name = 5289470
REMARK  14 active torsions:
REMARK  status: ('A' for Active; 'I' for Inactive)
REMARK    1  A    between atoms: CA_1  and  C_4
REMARK    2  A    between atoms: CA_1  and  N_21
REMARK    3  A    between atoms: CA_1  and  CB_34
REMARK    4  A    between atoms: N_3  and  CA_6
REMARK    5  A    between atoms: CA_6  and  C_8
REMARK    6  A    between atoms: CA_6  and  CB_11
REMARK    7  A    between atoms: C_8  and  O_9
REMARK    8  A    between atoms: CB_11  and  CG_12
REMARK    9  A    between atoms: CZ_17  and  OH_18
REMARK   10  A    between atoms: C_22  and  C_24
REMARK   11  A    between atoms: C_24  and  S_25
REMARK   12  A    between atoms: C_24  and  C_27
REMARK   13  A    between atoms: C_27  and  C_28
REMARK   14  A    between atoms: CB_34  and  CG_35
REMARK                            x       y       z     vdW  Elec       q    Type
REMARK                         _______ _______ _______ _____ _____    ______ ____
ROOT
ATOM      1  CA  UNL     1      32.756 -22.264 -17.458  0.00  0.00    +0.153 C 
ENDROOT
BRANCH   1   4
ATOM      2  O   UNL     1      33.798 -24.379 -18.020  0.00  0.00    -0.273 OA
ATOM      3  N   UNL     1      34.671 -23.131 -16.268  0.00  0.00    -0.295 N 
ATOM      4  C   UNL     1      33.771 -23.389 -17.292  0.00  0.00    +0.241 C 
ATOM      5  H   UNL     1      34.559 -22.304 -15.744  0.00  0.00    +0.150 HD
BRANCH   3   6
ATOM      6  CA  UNL     1      35.767 -24.012 -15.932  0.00  0.00    +0.176 C 
BRANCH   6   8
ATOM      7  OXT UNL     1      35.660 -26.401 -15.564  0.00  0.00    -0.248 OA
ATOM      8  C   UNL     1      35.262 -25.280 -15.260  0.00  0.00    +0.332 C 
BRANCH   8   9
ATOM      9  O   UNL     1      34.340 -25.082 -14.288  0.00  0.00    -0.479 OA
ATOM     10  H   UNL     1      34.488 -24.436 -13.626  0.00  0.00    +0.295 HD
ENDBRANCH   8   9
ENDBRANCH   6   8
BRANCH   6  11
ATOM     11  CB  UNL     1      36.785 -23.308 -15.026  0.00  0.00    +0.057 C 
BRANCH  11  12
ATOM     12  CG  UNL     1      37.968 -24.179 -14.683  0.00  0.00    -0.020 C 
ATOM     13  CD1 UNL     1      39.006 -24.342 -15.601  0.00  0.00    -0.001 C 
ATOM     14  CD2 UNL     1      38.024 -24.825 -13.447  0.00  0.00    -0.001 C 
ATOM     15  CE1 UNL     1      40.099 -25.148 -15.284  0.00  0.00    +0.036 C 
ATOM     16  CE2 UNL     1      39.117 -25.631 -13.130  0.00  0.00    +0.036 C 
ATOM     17  CZ  UNL     1      40.154 -25.793 -14.048  0.00  0.00    +0.134 C 
BRANCH  17  18
ATOM     18  OH  UNL     1      41.221 -26.579 -13.738  0.00  0.00    -0.506 OA
ATOM     19  HH  UNL     1      41.883 -26.262 -13.156  0.00  0.00    +0.292 HD
ENDBRANCH  17  18
ENDBRANCH  11  12
ENDBRANCH   6  11
ENDBRANCH   3   6
ENDBRANCH   1   4
BRANCH   1  21
ATOM     20  O   UNL     1      35.272 -21.540 -18.636  0.00  0.00    -0.274 OA
ATOM     21  N   UNL     1      32.961 -21.695 -18.766  0.00  0.00    -0.297 N 
ATOM     22  C   ACE A   0      34.222 -21.376 -19.253  0.00  0.00    +0.232 C 
ATOM     23  H   UNL     1      32.177 -21.526 -19.337  0.00  0.00    +0.150 HD
BRANCH  22  24
ATOM     24  C   UNL     1      34.177 -20.763 -20.650  0.00  0.00    +0.124 C 
BRANCH  24  25
ATOM     25  S   UNL     1      32.683 -19.709 -20.715  0.00  0.00    -0.159 S 
ATOM     26  H   UNL     1      31.865 -20.017 -19.673  0.00  0.00    +0.103 HD
ENDBRANCH  24  25
BRANCH  24  27
ATOM     27  C   UNL     1      35.418 -19.913 -20.951  0.00  0.00    +0.046 C 
BRANCH  27  28
ATOM     28  C   UNL     1      35.187 -18.952 -22.096  0.00  0.00    -0.021 C 
ATOM     29  C   UNL     1      34.897 -19.439 -23.369  0.00  0.00    -0.004 C 
ATOM     30  C   UNL     1      35.264 -17.576 -21.877  0.00  0.00    -0.004 C 
ATOM     31  C   UNL     1      34.684 -18.552 -24.425  0.00  0.00    -0.000 C 
ATOM     32  C   UNL     1      35.052 -16.688 -22.933  0.00  0.00    -0.000 C 
ATOM     33  C   UNL     1      34.761 -17.177 -24.207  0.00  0.00    -0.000 C 
ENDBRANCH  27  28
ENDBRANCH  24  27
ENDBRANCH  22  24
ENDBRANCH   1  21
BRANCH   1  34
ATOM     34  CB  UNL     1      31.332 -22.800 -17.277  0.00  0.00    +0.055 C 
BRANCH  34  35
ATOM     35  CG  UNL     1      31.103 -23.400 -15.912  0.00  0.00    -0.020 C 
ATOM     36  CD1 UNL     1      31.498 -22.706 -14.768  0.00  0.00    -0.004 C 
ATOM     37  CD2 UNL     1      30.497 -24.652 -15.793  0.00  0.00    -0.004 C 
ATOM     38  CE1 UNL     1      31.287 -23.263 -13.507  0.00  0.00    -0.000 C 
ATOM     39  CE2 UNL     1      30.286 -25.207 -14.531  0.00  0.00    -0.000 C 
ATOM     40  CZ  UNL     1      30.681 -24.512 -13.388  0.00  0.00    -0.000 C 
ENDBRANCH  34  35
ENDBRANCH   1  34
TORSDOF 14
ENDMDL
MODEL 6
REMARK VINA RESULT:     -10.0      9.931     14.917
REMARK  Name = 5289470
REMARK  14 active torsions:
REMARK  status: ('A' for Active; 'I' for Inactive)
REMARK    1  A    between atoms: CA_1  and  C_4
REMARK    2  A    between atoms: CA_1  and  N_21
REMARK    3  A    between atoms: CA_1  and  CB_34
REMARK    4  A    between atoms: N_3  and  CA_6
REMARK    5  A    between atoms: CA_6  and  C_8
REMARK    6  A    between atoms: CA_6  and  CB_11
REMARK    7  A    between atoms: C_8  and  O_9
REMARK    8  A    between atoms: CB_11  and  CG_12
REMARK    9  A    between atoms: CZ_17  and  OH_18
REMARK   10  A    between atoms: C_22  and  C_24
REMARK   11  A    between atoms: C_24  and  S_25
REMARK   12  A    between atoms: C_24  and  C_27
REMARK   13  A    between atoms: C_27  and  C_28
REMARK   14  A    between atoms: CB_34  and  CG_35
REMARK                            x       y       z     vdW  Elec       q    Type
REMARK                         _______ _______ _______ _____ _____    ______ ____
ROOT
ATOM      1  CA  UNL     1      33.396 -10.090 -23.602  0.00  0.00    +0.153 C 
ENDROOT
BRANCH   1   4
ATOM      2  O   UNL     1      34.840 -10.641 -25.468  0.00  0.00    -0.273 OA
ATOM      3  N   UNL     1      33.369 -12.253 -24.675  0.00  0.00    -0.295 N 
ATOM      4  C   UNL     1      33.951 -10.994 -24.696  0.00  0.00    +0.241 C 
ATOM      5  H   UNL     1      32.662 -12.431 -24.013  0.00  0.00    +0.150 HD
BRANCH   3   6
ATOM      6  CA  UNL     1      33.750 -13.319 -25.575  0.00  0.00    +0.176 C 
BRANCH   6   8
ATOM      7  OXT UNL     1      32.218 -12.974 -27.416  0.00  0.00    -0.248 OA
ATOM      8  C   UNL     1      33.377 -12.982 -27.011  0.00  0.00    +0.332 C 
BRANCH   8   9
ATOM      9  O   UNL     1      34.423 -12.682 -27.817  0.00  0.00    -0.479 OA
ATOM     10  H   UNL     1      34.312 -12.078 -28.524  0.00  0.00    +0.295 HD
ENDBRANCH   8   9
ENDBRANCH   6   8
BRANCH   6  11
ATOM     11  CB  UNL     1      33.103 -14.648 -25.164  0.00  0.00    +0.057 C 
BRANCH  11  12
ATOM     12  CG  UNL     1      33.674 -15.209 -23.885  0.00  0.00    -0.020 C 
ATOM     13  CD1 UNL     1      33.143 -14.823 -22.654  0.00  0.00    -0.001 C 
ATOM     14  CD2 UNL     1      34.735 -16.114 -23.933  0.00  0.00    -0.001 C 
ATOM     15  CE1 UNL     1      33.672 -15.342 -21.472  0.00  0.00    +0.036 C 
ATOM     16  CE2 UNL     1      35.264 -16.632 -22.751  0.00  0.00    +0.036 C 
ATOM     17  CZ  UNL     1      34.733 -16.246 -21.521  0.00  0.00    +0.134 C 
BRANCH  17  18
ATOM     18  OH  UNL     1      35.249 -16.752 -20.368  0.00  0.00    -0.506 OA
ATOM     19  HH  UNL     1      35.048 -17.631 -20.111  0.00  0.00    +0.292 HD
ENDBRANCH  17  18
ENDBRANCH  11  12
ENDBRANCH   6  11
ENDBRANCH   3   6
ENDBRANCH   1   4
BRANCH   1  21
ATOM     20  O   UNL     1      34.799  -7.769 -22.659  0.00  0.00    -0.274 OA
ATOM     21  N   UNL     1      33.319  -8.758 -24.147  0.00  0.00    -0.297 N 
ATOM     22  C   ACE A   0      34.038  -7.693 -23.622  0.00  0.00    +0.232 C 
ATOM     23  H   UNL     1      32.733  -8.597 -24.923  0.00  0.00    +0.150 HD
BRANCH  22  24
ATOM     24  C   UNL     1      33.769  -6.381 -24.354  0.00  0.00    +0.124 C 
BRANCH  24  25
ATOM     25  S   UNL     1      34.818  -6.389 -25.852  0.00  0.00    -0.159 S 
ATOM     26  H   UNL     1      35.622  -5.292 -25.848  0.00  0.00    +0.103 HD
ENDBRANCH  24  25
BRANCH  24  27
ATOM     27  C   UNL     1      32.296  -6.234 -24.759  0.00  0.00    +0.046 C 
BRANCH  27  28
ATOM     28  C   UNL     1      31.812  -4.806 -24.644  0.00  0.00    -0.021 C 
ATOM     29  C   UNL     1      31.758  -3.994 -25.777  0.00  0.00    -0.004 C 
ATOM     30  C   UNL     1      31.419  -4.301 -23.405  0.00  0.00    -0.004 C 
ATOM     31  C   UNL     1      31.311  -2.677 -25.670  0.00  0.00    -0.000 C 
ATOM     32  C   UNL     1      30.972  -2.984 -23.298  0.00  0.00    -0.000 C 
ATOM     33  C   UNL     1      30.918  -2.172 -24.431  0.00  0.00    -0.000 C 
ENDBRANCH  27  28
ENDBRANCH  24  27
ENDBRANCH  22  24
ENDBRANCH   1  21
BRANCH   1  34
ATOM     34  CB  UNL     1      32.031 -10.601 -23.129  0.00  0.00    +0.055 C 
BRANCH  34  35
ATOM     35  CG  UNL     1      31.875 -10.551 -21.629  0.00  0.00    -0.020 C 
ATOM     36  CD1 UNL     1      31.667 -11.727 -20.909  0.00  0.00    -0.004 C 
ATOM     37  CD2 UNL     1      31.939  -9.327 -20.962  0.00  0.00    -0.004 C 
ATOM     38  CE1 UNL     1      31.522 -11.680 -19.522  0.00  0.00    -0.000 C 
ATOM     39  CE2 UNL     1      31.794  -9.280 -19.575  0.00  0.00    -0.000 C 
ATOM     40  CZ  UNL     1      31.586 -10.457 -18.856  0.00  0.00    -0.000 C 
ENDBRANCH  34  35
ENDBRANCH   1  34
TORSDOF 14
ENDMDL
MODEL 7
REMARK VINA RESULT:      -9.8      6.845     12.802
REMARK  Name = 5289470
REMARK  14 active torsions:
REMARK  status: ('A' for Active; 'I' for Inactive)
REMARK    1  A    between atoms: CA_1  and  C_4
REMARK    2  A    between atoms: CA_1  and  N_21
REMARK    3  A    between atoms: CA_1  and  CB_34
REMARK    4  A    between atoms: N_3  and  CA_6
REMARK    5  A    between atoms: CA_6  and  C_8
REMARK    6  A    between atoms: CA_6  and  CB_11
REMARK    7  A    between atoms: C_8  and  O_9
REMARK    8  A    between atoms: CB_11  and  CG_12
REMARK    9  A    between atoms: CZ_17  and  OH_18
REMARK   10  A    between atoms: C_22  and  C_24
REMARK   11  A    between atoms: C_24  and  S_25
REMARK   12  A    between atoms: C_24  and  C_27
REMARK   13  A    between atoms: C_27  and  C_28
REMARK   14  A    between atoms: CB_34  and  CG_35
REMARK                            x       y       z     vdW  Elec       q    Type
REMARK                         _______ _______ _______ _____ _____    ______ ____
ROOT
ATOM      1  CA  UNL     1      32.766 -14.746 -22.366  0.00  0.00    +0.153 C 
ENDROOT
BRANCH   1   4
ATOM      2  O   UNL     1      34.743 -13.833 -23.430  0.00  0.00    -0.273 OA
ATOM      3  N   UNL     1      32.671 -13.459 -24.408  0.00  0.00    -0.295 N 
ATOM      4  C   UNL     1      33.521 -13.960 -23.432  0.00  0.00    +0.241 C 
ATOM      5  H   UNL     1      31.704 -13.617 -24.312  0.00  0.00    +0.150 HD
BRANCH   3   6
ATOM      6  CA  UNL     1      33.134 -12.718 -25.559  0.00  0.00    +0.176 C 
BRANCH   6   8
ATOM      7  OXT UNL     1      33.983 -13.283 -27.753  0.00  0.00    -0.248 OA
ATOM      8  C   UNL     1      33.392 -13.643 -26.739  0.00  0.00    +0.332 C 
BRANCH   8   9
ATOM      9  O   UNL     1      32.926 -14.905 -26.587  0.00  0.00    -0.479 OA
ATOM     10  H   UNL     1      32.149 -15.060 -26.086  0.00  0.00    +0.295 HD
ENDBRANCH   8   9
ENDBRANCH   6   8
BRANCH   6  11
ATOM     11  CB  UNL     1      34.403 -11.921 -25.230  0.00  0.00    +0.057 C 
BRANCH  11  12
ATOM     12  CG  UNL     1      34.110 -10.581 -24.601  0.00  0.00    -0.020 C 
ATOM     13  CD1 UNL     1      35.104  -9.603 -24.545  0.00  0.00    -0.001 C 
ATOM     14  CD2 UNL     1      32.846 -10.320 -24.073  0.00  0.00    -0.001 C 
ATOM     15  CE1 UNL     1      34.833  -8.365 -23.962  0.00  0.00    +0.036 C 
ATOM     16  CE2 UNL     1      32.575  -9.082 -23.490  0.00  0.00    +0.036 C 
ATOM     17  CZ  UNL     1      33.569  -8.105 -23.434  0.00  0.00    +0.134 C 
BRANCH  17  18
ATOM     18  OH  UNL     1      33.304  -6.897 -22.866  0.00  0.00    -0.506 OA
ATOM     19  HH  UNL     1      34.010  -6.331 -22.619  0.00  0.00    +0.292 HD
ENDBRANCH  17  18
ENDBRANCH  11  12
ENDBRANCH   6  11
ENDBRANCH   3   6
ENDBRANCH   1   4
BRANCH   1  21
ATOM     20  O   UNL     1      34.934 -15.999 -20.961  0.00  0.00    -0.274 OA
ATOM     21  N   UNL     1      33.182 -16.121 -22.477  0.00  0.00    -0.297 N 
ATOM     22  C   ACE A   0      34.247 -16.641 -21.754  0.00  0.00    +0.232 C 
ATOM     23  H   UNL     1      32.691 -16.716 -23.090  0.00  0.00    +0.150 HD
BRANCH  22  24
ATOM     24  C   UNL     1      34.509 -18.112 -22.064  0.00  0.00    +0.124 C 
BRANCH  24  25
ATOM     25  S   UNL     1      34.990 -18.203 -23.826  0.00  0.00    -0.159 S 
ATOM     26  H   UNL     1      34.643 -19.418 -24.328  0.00  0.00    +0.103 HD
ENDBRANCH  24  25
BRANCH  24  27
ATOM     27  C   UNL     1      35.629 -18.698 -21.195  0.00  0.00    +0.046 C 
BRANCH  27  28
ATOM     28  C   UNL     1      35.184 -19.935 -20.448  0.00  0.00    -0.021 C 
ATOM     29  C   UNL     1      36.128 -20.751 -19.825  0.00  0.00    -0.004 C 
ATOM     30  C   UNL     1      33.829 -20.260 -20.381  0.00  0.00    -0.004 C 
ATOM     31  C   UNL     1      35.716 -21.893 -19.135  0.00  0.00    -0.000 C 
ATOM     32  C   UNL     1      33.418 -21.401 -19.692  0.00  0.00    -0.000 C 
ATOM     33  C   UNL     1      34.362 -22.217 -19.069  0.00  0.00    -0.000 C 
ENDBRANCH  27  28
ENDBRANCH  24  27
ENDBRANCH  22  24
ENDBRANCH   1  21
BRANCH   1  34
ATOM     34  CB  UNL     1      33.048 -14.167 -20.976  0.00  0.00    +0.055 C 
BRANCH  34  35
ATOM     35  CG  UNL     1      32.230 -12.934 -20.679  0.00  0.00    -0.020 C 
ATOM     36  CD1 UNL     1      31.407 -12.389 -21.665  0.00  0.00    -0.004 C 
ATOM     37  CD2 UNL     1      32.300 -12.337 -19.420  0.00  0.00    -0.004 C 
ATOM     38  CE1 UNL     1      30.652 -11.248 -21.390  0.00  0.00    -0.000 C 
ATOM     39  CE2 UNL     1      31.545 -11.196 -19.146  0.00  0.00    -0.000 C 
ATOM     40  CZ  UNL     1      30.721 -10.652 -20.132  0.00  0.00    -0.000 C 
ENDBRANCH  34  35
ENDBRANCH   1  34
TORSDOF 14
ENDMDL
MODEL 8
REMARK VINA RESULT:      -9.7      7.196     12.608
REMARK  Name = 5289470
REMARK  14 active torsions:
REMARK  status: ('A' for Active; 'I' for Inactive)
REMARK    1  A    between atoms: CA_1  and  C_4
REMARK    2  A    between atoms: CA_1  and  N_21
REMARK    3  A    between atoms: CA_1  and  CB_34
REMARK    4  A    between atoms: N_3  and  CA_6
REMARK    5  A    between atoms: CA_6  and  C_8
REMARK    6  A    between atoms: CA_6  and  CB_11
REMARK    7  A    between atoms: C_8  and  O_9
REMARK    8  A    between atoms: CB_11  and  CG_12
REMARK    9  A    between atoms: CZ_17  and  OH_18
REMARK   10  A    between atoms: C_22  and  C_24
REMARK   11  A    between atoms: C_24  and  S_25
REMARK   12  A    between atoms: C_24  and  C_27
REMARK   13  A    between atoms: C_27  and  C_28
REMARK   14  A    between atoms: CB_34  and  CG_35
REMARK                            x       y       z     vdW  Elec       q    Type
REMARK                         _______ _______ _______ _____ _____    ______ ____
ROOT
ATOM      1  CA  UNL     1      33.281 -14.113 -22.309  0.00  0.00    +0.153 C 
ENDROOT
BRANCH   1   4
ATOM      2  O   UNL     1      32.514 -14.351 -20.022  0.00  0.00    -0.273 OA
ATOM      3  N   UNL     1      32.413 -12.260 -21.025  0.00  0.00    -0.295 N 
ATOM      4  C   UNL     1      32.685 -13.621 -20.995  0.00  0.00    +0.241 C 
ATOM      5  H   UNL     1      32.587 -11.767 -21.860  0.00  0.00    +0.150 HD
BRANCH   3   6
ATOM      6  CA  UNL     1      31.889 -11.530 -19.894  0.00  0.00    +0.176 C 
BRANCH   6   8
ATOM      7  OXT UNL     1      29.745 -10.611 -19.250  0.00  0.00    -0.248 OA
ATOM      8  C   UNL     1      30.427 -11.166 -20.107  0.00  0.00    +0.332 C 
BRANCH   8   9
ATOM      9  O   UNL     1      29.929 -11.495 -21.322  0.00  0.00    -0.479 OA
ATOM     10  H   UNL     1      29.141 -11.998 -21.385  0.00  0.00    +0.295 HD
ENDBRANCH   8   9
ENDBRANCH   6   8
BRANCH   6  11
ATOM     11  CB  UNL     1      32.710 -10.262 -19.625  0.00  0.00    +0.057 C 
BRANCH  11  12
ATOM     12  CG  UNL     1      32.404  -9.146 -20.593  0.00  0.00    -0.020 C 
ATOM     13  CD1 UNL     1      32.406  -9.392 -21.966  0.00  0.00    -0.001 C 
ATOM     14  CD2 UNL     1      32.120  -7.866 -20.115  0.00  0.00    -0.001 C 
ATOM     15  CE1 UNL     1      32.124  -8.359 -22.861  0.00  0.00    +0.036 C 
ATOM     16  CE2 UNL     1      31.838  -6.834 -21.009  0.00  0.00    +0.036 C 
ATOM     17  CZ  UNL     1      31.841  -7.080 -22.382  0.00  0.00    +0.134 C 
BRANCH  17  18
ATOM     18  OH  UNL     1      31.565  -6.073 -23.255  0.00  0.00    -0.506 OA
ATOM     19  HH  UNL     1      32.156  -5.350 -23.338  0.00  0.00    +0.292 HD
ENDBRANCH  17  18
ENDBRANCH  11  12
ENDBRANCH   6  11
ENDBRANCH   3   6
ENDBRANCH   1   4
BRANCH   1  21
ATOM     20  O   UNL     1      35.327 -15.699 -23.550  0.00  0.00    -0.274 OA
ATOM     21  N   UNL     1      33.456 -15.539 -22.189  0.00  0.00    -0.297 N 
ATOM     22  C   ACE A   0      34.480 -16.223 -22.830  0.00  0.00    +0.232 C 
ATOM     23  H   UNL     1      32.823 -16.048 -21.631  0.00  0.00    +0.150 HD
BRANCH  22  24
ATOM     24  C   UNL     1      34.438 -17.726 -22.570  0.00  0.00    +0.124 C 
BRANCH  24  25
ATOM     25  S   UNL     1      34.842 -18.546 -24.154  0.00  0.00    -0.159 S 
ATOM     26  H   UNL     1      35.872 -17.891 -24.753  0.00  0.00    +0.103 HD
ENDBRANCH  24  25
BRANCH  24  27
ATOM     27  C   UNL     1      35.445 -18.158 -21.496  0.00  0.00    +0.046 C 
BRANCH  27  28
ATOM     28  C   UNL     1      35.024 -19.431 -20.797  0.00  0.00    -0.021 C 
ATOM     29  C   UNL     1      35.989 -20.316 -20.317  0.00  0.00    -0.004 C 
ATOM     30  C   UNL     1      33.669 -19.720 -20.632  0.00  0.00    -0.004 C 
ATOM     31  C   UNL     1      35.599 -21.490 -19.673  0.00  0.00    -0.000 C 
ATOM     32  C   UNL     1      33.279 -20.894 -19.987  0.00  0.00    -0.000 C 
ATOM     33  C   UNL     1      34.245 -21.779 -19.507  0.00  0.00    -0.000 C 
ENDBRANCH  27  28
ENDBRANCH  24  27
ENDBRANCH  22  24
ENDBRANCH   1  21
BRANCH   1  34
ATOM     34  CB  UNL     1      32.370 -13.738 -23.482  0.00  0.00    +0.055 C 
BRANCH  34  35
ATOM     35  CG  UNL     1      33.108 -13.029 -24.591  0.00  0.00    -0.020 C 
ATOM     36  CD1 UNL     1      33.809 -11.853 -24.323  0.00  0.00    -0.004 C 
ATOM     37  CD2 UNL     1      33.088 -13.549 -25.886  0.00  0.00    -0.004 C 
ATOM     38  CE1 UNL     1      34.489 -11.198 -25.349  0.00  0.00    -0.000 C 
ATOM     39  CE2 UNL     1      33.769 -12.893 -26.911  0.00  0.00    -0.000 C 
ATOM     40  CZ  UNL     1      34.470 -11.717 -26.643  0.00  0.00    -0.000 C 
ENDBRANCH  34  35
ENDBRANCH   1  34
TORSDOF 14
ENDMDL
MODEL 9
REMARK VINA RESULT:      -9.6      7.781     13.216
REMARK  Name = 5289470
REMARK  14 active torsions:
REMARK  status: ('A' for Active; 'I' for Inactive)
REMARK    1  A    between atoms: CA_1  and  C_4
REMARK    2  A    between atoms: CA_1  and  N_21
REMARK    3  A    between atoms: CA_1  and  CB_34
REMARK    4  A    between atoms: N_3  and  CA_6
REMARK    5  A    between atoms: CA_6  and  C_8
REMARK    6  A    between atoms: CA_6  and  CB_11
REMARK    7  A    between atoms: C_8  and  O_9
REMARK    8  A    between atoms: CB_11  and  CG_12
REMARK    9  A    between atoms: CZ_17  and  OH_18
REMARK   10  A    between atoms: C_22  and  C_24
REMARK   11  A    between atoms: C_24  and  S_25
REMARK   12  A    between atoms: C_24  and  C_27
REMARK   13  A    between atoms: C_27  and  C_28
REMARK   14  A    between atoms: CB_34  and  CG_35
REMARK                            x       y       z     vdW  Elec       q    Type
REMARK                         _______ _______ _______ _____ _____    ______ ____
ROOT
ATOM      1  CA  UNL     1      32.519 -13.988 -22.473  0.00  0.00    +0.153 C 
ENDROOT
BRANCH   1   4
ATOM      2  O   UNL     1      34.587 -13.029 -23.296  0.00  0.00    -0.273 OA
ATOM      3  N   UNL     1      32.605 -11.863 -23.617  0.00  0.00    -0.295 N 
ATOM      4  C   UNL     1      33.371 -12.922 -23.151  0.00  0.00    +0.241 C 
ATOM      5  H   UNL     1      31.636 -11.876 -23.446  0.00  0.00    +0.150 HD
BRANCH   3   6
ATOM      6  CA  UNL     1      33.159 -10.741 -24.341  0.00  0.00    +0.176 C 
BRANCH   6   8
ATOM      7  OXT UNL     1      33.936 -11.939 -26.294  0.00  0.00    -0.248 OA
ATOM      8  C   UNL     1      34.200 -11.200 -25.350  0.00  0.00    +0.332 C 
BRANCH   8   9
ATOM      9  O   UNL     1      35.450 -10.726 -25.135  0.00  0.00    -0.479 OA
ATOM     10  H   UNL     1      35.961 -11.057 -24.423  0.00  0.00    +0.295 HD
ENDBRANCH   8   9
ENDBRANCH   6   8
BRANCH   6  11
ATOM     11  CB  UNL     1      33.775  -9.713 -23.383  0.00  0.00    +0.057 C 
BRANCH  11  12
ATOM     12  CG  UNL     1      32.834  -8.582 -23.048  0.00  0.00    -0.020 C 
ATOM     13  CD1 UNL     1      31.713  -8.346 -23.845  0.00  0.00    -0.001 C 
ATOM     14  CD2 UNL     1      33.085  -7.771 -21.941  0.00  0.00    -0.001 C 
ATOM     15  CE1 UNL     1      30.844  -7.300 -23.535  0.00  0.00    +0.036 C 
ATOM     16  CE2 UNL     1      32.217  -6.724 -21.632  0.00  0.00    +0.036 C 
ATOM     17  CZ  UNL     1      31.097  -6.489 -22.429  0.00  0.00    +0.134 C 
BRANCH  17  18
ATOM     18  OH  UNL     1      30.249  -5.468 -22.126  0.00  0.00    -0.506 OA
ATOM     19  HH  UNL     1      30.022  -4.838 -22.782  0.00  0.00    +0.292 HD
ENDBRANCH  17  18
ENDBRANCH  11  12
ENDBRANCH   6  11
ENDBRANCH   3   6
ENDBRANCH   1   4
BRANCH   1  21
ATOM     20  O   UNL     1      34.465 -15.536 -21.037  0.00  0.00    -0.274 OA
ATOM     21  N   UNL     1      33.054 -15.270 -22.859  0.00  0.00    -0.297 N 
ATOM     22  C   ACE A   0      33.997 -15.947 -22.097  0.00  0.00    +0.232 C 
ATOM     23  H   UNL     1      32.738 -15.682 -23.696  0.00  0.00    +0.150 HD
BRANCH  22  24
ATOM     24  C   UNL     1      34.426 -17.269 -22.727  0.00  0.00    +0.124 C 
BRANCH  24  25
ATOM     25  S   UNL     1      34.956 -16.890 -24.436  0.00  0.00    -0.159 S 
ATOM     26  H   UNL     1      35.004 -15.541 -24.607  0.00  0.00    +0.103 HD
ENDBRANCH  24  25
BRANCH  24  27
ATOM     27  C   UNL     1      35.582 -17.927 -21.964  0.00  0.00    +0.046 C 
BRANCH  27  28
ATOM     28  C   UNL     1      35.127 -19.123 -21.157  0.00  0.00    -0.021 C 
ATOM     29  C   UNL     1      33.767 -19.391 -21.014  0.00  0.00    -0.004 C 
ATOM     30  C   UNL     1      36.070 -19.958 -20.557  0.00  0.00    -0.004 C 
ATOM     31  C   UNL     1      33.347 -20.494 -20.270  0.00  0.00    -0.000 C 
ATOM     32  C   UNL     1      35.650 -21.061 -19.813  0.00  0.00    -0.000 C 
ATOM     33  C   UNL     1      34.289 -21.329 -19.670  0.00  0.00    -0.000 C 
ENDBRANCH  27  28
ENDBRANCH  24  27
ENDBRANCH  22  24
ENDBRANCH   1  21
BRANCH   1  34
ATOM     34  CB  UNL     1      32.528 -13.792 -20.953  0.00  0.00    +0.055 C 
BRANCH  34  35
ATOM     35  CG  UNL     1      31.930 -12.472 -20.531  0.00  0.00    -0.020 C 
ATOM     36  CD1 UNL     1      31.036 -11.810 -21.372  0.00  0.00    -0.004 C 
ATOM     37  CD2 UNL     1      32.272 -11.914 -19.299  0.00  0.00    -0.004 C 
ATOM     38  CE1 UNL     1      30.484 -10.590 -20.982  0.00  0.00    -0.000 C 
ATOM     39  CE2 UNL     1      31.719 -10.694 -18.909  0.00  0.00    -0.000 C 
ATOM     40  CZ  UNL     1      30.825 -10.032 -19.751  0.00  0.00    -0.000 C 
ENDBRANCH  34  35
ENDBRANCH   1  34
TORSDOF 14
ENDMDL
