MODEL 1
REMARK VINA RESULT:      -4.4      0.000      0.000
REMARK  Name = 490
REMARK  4 active torsions:
REMARK  status: ('A' for Active; 'I' for Inactive)
REMARK    1  A    between atoms: P_1  and  O_3
REMARK    2  A    between atoms: P_1  and  O_5
REMARK    3  A    between atoms: P_1  and  C_7
REMARK    4  A    between atoms: C_7  and  C_9
REMARK                            x       y       z     vdW  Elec       q    Type
REMARK                         _______ _______ _______ _____ _____    ______ ____
ROOT
ATOM      1  P   UNL     1      35.925 -24.598 -11.319  0.00  0.00    +0.345 P 
ATOM      2  O   UNL     1      35.990 -24.252  -9.870  0.00  0.00    -0.258 OA
ENDROOT
BRANCH   1   3
ATOM      3  O   UNL     1      36.830 -25.845 -11.788  0.00  0.00    -0.323 OA
ATOM      4  H   UNL     1      37.413 -26.114 -11.060  0.00  0.00    +0.220 HD
ENDBRANCH   1   3
BRANCH   1   5
ATOM      5  O   UNL     1      34.461 -24.946 -11.895  0.00  0.00    -0.323 OA
ATOM      6  H   UNL     1      34.240 -25.866 -11.683  0.00  0.00    +0.220 HD
ENDBRANCH   1   5
BRANCH   1   7
ATOM      7  C   UNL     1      36.476 -23.277 -12.410  0.00  0.00    +0.187 C 
BRANCH   7   9
ATOM      8  O   UNL     1      38.750 -23.355 -11.619  0.00  0.00    -0.288 OA
ATOM      9  C   UNL     1      37.810 -22.695 -12.049  0.00  0.00    +0.220 C 
ENDBRANCH   7   9
ENDBRANCH   1   7
TORSDOF 4
ENDMDL
MODEL 2
REMARK VINA RESULT:      -4.4      3.670      4.783
REMARK  Name = 490
REMARK  4 active torsions:
REMARK  status: ('A' for Active; 'I' for Inactive)
REMARK    1  A    between atoms: P_1  and  O_3
REMARK    2  A    between atoms: P_1  and  O_5
REMARK    3  A    between atoms: P_1  and  C_7
REMARK    4  A    between atoms: C_7  and  C_9
REMARK                            x       y       z     vdW  Elec       q    Type
REMARK                         _______ _______ _______ _____ _____    ______ ____
ROOT
ATOM      1  P   UNL     1      39.470 -25.426 -14.728  0.00  0.00    +0.345 P 
ATOM      2  O   UNL     1      40.892 -25.869 -14.674  0.00  0.00    -0.258 OA
ENDROOT
BRANCH   1   3
ATOM      3  O   UNL     1      39.200 -24.008 -15.444  0.00  0.00    -0.323 OA
ATOM      4  H   UNL     1      38.570 -23.493 -14.914  0.00  0.00    +0.220 HD
ENDBRANCH   1   3
BRANCH   1   5
ATOM      5  O   UNL     1      38.445 -26.430 -15.460  0.00  0.00    -0.323 OA
ATOM      6  H   UNL     1      38.453 -26.260 -16.415  0.00  0.00    +0.220 HD
ENDBRANCH   1   5
BRANCH   1   7
ATOM      7  C   UNL     1      38.714 -25.201 -13.109  0.00  0.00    +0.187 C 
BRANCH   7   9
ATOM      8  O   UNL     1      36.917 -26.120 -11.793  0.00  0.00    -0.288 OA
ATOM      9  C   UNL     1      37.525 -26.080 -12.857  0.00  0.00    +0.220 C 
ENDBRANCH   7   9
ENDBRANCH   1   7
TORSDOF 4
ENDMDL
MODEL 3
REMARK VINA RESULT:      -4.4      4.046      4.517
REMARK  Name = 490
REMARK  4 active torsions:
REMARK  status: ('A' for Active; 'I' for Inactive)
REMARK    1  A    between atoms: P_1  and  O_3
REMARK    2  A    between atoms: P_1  and  O_5
REMARK    3  A    between atoms: P_1  and  C_7
REMARK    4  A    between atoms: C_7  and  C_9
REMARK                            x       y       z     vdW  Elec       q    Type
REMARK                         _______ _______ _______ _____ _____    ______ ____
ROOT
ATOM      1  P   UNL     1      37.886 -24.973 -14.669  0.00  0.00    +0.345 P 
ATOM      2  O   UNL     1      36.688 -24.498 -13.921  0.00  0.00    -0.258 OA
ENDROOT
BRANCH   1   3
ATOM      3  O   UNL     1      37.643 -26.204 -15.680  0.00  0.00    -0.323 OA
ATOM      4  H   UNL     1      37.618 -25.874 -16.592  0.00  0.00    +0.220 HD
ENDBRANCH   1   3
BRANCH   1   5
ATOM      5  O   UNL     1      38.635 -23.872 -15.575  0.00  0.00    -0.323 OA
ATOM      6  H   UNL     1      39.478 -23.631 -15.160  0.00  0.00    +0.220 HD
ENDBRANCH   1   5
BRANCH   1   7
ATOM      7  C   UNL     1      39.210 -25.584 -13.614  0.00  0.00    +0.187 C 
BRANCH   7   9
ATOM      8  O   UNL     1      40.587 -26.077 -15.529  0.00  0.00    -0.288 OA
ATOM      9  C   UNL     1      40.505 -25.832 -14.330  0.00  0.00    +0.220 C 
ENDBRANCH   7   9
ENDBRANCH   1   7
TORSDOF 4
ENDMDL
MODEL 4
REMARK VINA RESULT:      -4.4      4.038      5.117
REMARK  Name = 490
REMARK  4 active torsions:
REMARK  status: ('A' for Active; 'I' for Inactive)
REMARK    1  A    between atoms: P_1  and  O_3
REMARK    2  A    between atoms: P_1  and  O_5
REMARK    3  A    between atoms: P_1  and  C_7
REMARK    4  A    between atoms: C_7  and  C_9
REMARK                            x       y       z     vdW  Elec       q    Type
REMARK                         _______ _______ _______ _____ _____    ______ ____
ROOT
ATOM      1  P   UNL     1      38.659 -24.905 -14.699  0.00  0.00    +0.345 P 
ATOM      2  O   UNL     1      39.049 -24.623 -13.288  0.00  0.00    -0.258 OA
ENDROOT
BRANCH   1   3
ATOM      3  O   UNL     1      38.813 -23.678 -15.732  0.00  0.00    -0.323 OA
ATOM      4  H   UNL     1      38.290 -22.923 -15.417  0.00  0.00    +0.220 HD
ENDBRANCH   1   3
BRANCH   1   5
ATOM      5  O   UNL     1      39.442 -26.115 -15.419  0.00  0.00    -0.323 OA
ATOM      6  H   UNL     1      40.353 -25.842 -15.611  0.00  0.00    +0.220 HD
ENDBRANCH   1   5
BRANCH   1   7
ATOM      7  C   UNL     1      36.934 -25.376 -14.900  0.00  0.00    +0.187 C 
BRANCH   7   9
ATOM      8  O   UNL     1      36.786 -27.343 -16.282  0.00  0.00    -0.288 OA
ATOM      9  C   UNL     1      36.720 -26.836 -15.168  0.00  0.00    +0.220 C 
ENDBRANCH   7   9
ENDBRANCH   1   7
TORSDOF 4
ENDMDL
MODEL 5
REMARK VINA RESULT:      -4.4      3.107      3.989
REMARK  Name = 490
REMARK  4 active torsions:
REMARK  status: ('A' for Active; 'I' for Inactive)
REMARK    1  A    between atoms: P_1  and  O_3
REMARK    2  A    between atoms: P_1  and  O_5
REMARK    3  A    between atoms: P_1  and  C_7
REMARK    4  A    between atoms: C_7  and  C_9
REMARK                            x       y       z     vdW  Elec       q    Type
REMARK                         _______ _______ _______ _____ _____    ______ ____
ROOT
ATOM      1  P   UNL     1      37.214 -26.501 -14.794  0.00  0.00    +0.345 P 
ATOM      2  O   UNL     1      36.448 -27.145 -15.898  0.00  0.00    -0.258 OA
ENDROOT
BRANCH   1   3
ATOM      3  O   UNL     1      36.732 -26.857 -13.298  0.00  0.00    -0.323 OA
ATOM      4  H   UNL     1      36.139 -27.624 -13.324  0.00  0.00    +0.220 HD
ENDBRANCH   1   3
BRANCH   1   5
ATOM      5  O   UNL     1      38.798 -26.795 -14.768  0.00  0.00    -0.323 OA
ATOM      6  H   UNL     1      39.081 -27.116 -15.639  0.00  0.00    +0.220 HD
ENDBRANCH   1   5
BRANCH   1   7
ATOM      7  C   UNL     1      37.147 -24.702 -14.812  0.00  0.00    +0.187 C 
BRANCH   7   9
ATOM      8  O   UNL     1      38.667 -24.413 -12.965  0.00  0.00    -0.288 OA
ATOM      9  C   UNL     1      37.657 -24.053 -13.559  0.00  0.00    +0.220 C 
ENDBRANCH   7   9
ENDBRANCH   1   7
TORSDOF 4
ENDMDL
MODEL 6
REMARK VINA RESULT:      -4.4      1.788      2.283
REMARK  Name = 490
REMARK  4 active torsions:
REMARK  status: ('A' for Active; 'I' for Inactive)
REMARK    1  A    between atoms: P_1  and  O_3
REMARK    2  A    between atoms: P_1  and  O_5
REMARK    3  A    between atoms: P_1  and  C_7
REMARK    4  A    between atoms: C_7  and  C_9
REMARK                            x       y       z     vdW  Elec       q    Type
REMARK                         _______ _______ _______ _____ _____    ______ ____
ROOT
ATOM      1  P   UNL     1      36.039 -24.237 -11.363  0.00  0.00    +0.345 P 
ATOM      2  O   UNL     1      35.307 -24.979 -10.297  0.00  0.00    -0.258 OA
ENDROOT
BRANCH   1   3
ATOM      3  O   UNL     1      35.125 -23.414 -12.404  0.00  0.00    -0.323 OA
ATOM      4  H   UNL     1      34.222 -23.769 -12.393  0.00  0.00    +0.220 HD
ENDBRANCH   1   3
BRANCH   1   5
ATOM      5  O   UNL     1      37.116 -23.152 -10.855  0.00  0.00    -0.323 OA
ATOM      6  H   UNL     1      37.947 -23.601 -10.635  0.00  0.00    +0.220 HD
ENDBRANCH   1   5
BRANCH   1   7
ATOM      7  C   UNL     1      37.019 -25.290 -12.444  0.00  0.00    +0.187 C 
BRANCH   7   9
ATOM      8  O   UNL     1      37.813 -23.390 -13.695  0.00  0.00    -0.288 OA
ATOM      9  C   UNL     1      37.979 -24.547 -13.325  0.00  0.00    +0.220 C 
ENDBRANCH   7   9
ENDBRANCH   1   7
TORSDOF 4
ENDMDL
MODEL 7
REMARK VINA RESULT:      -4.3      2.832      3.573
REMARK  Name = 490
REMARK  4 active torsions:
REMARK  status: ('A' for Active; 'I' for Inactive)
REMARK    1  A    between atoms: P_1  and  O_3
REMARK    2  A    between atoms: P_1  and  O_5
REMARK    3  A    between atoms: P_1  and  C_7
REMARK    4  A    between atoms: C_7  and  C_9
REMARK                            x       y       z     vdW  Elec       q    Type
REMARK                         _______ _______ _______ _____ _____    ______ ____
ROOT
ATOM      1  P   UNL     1      37.714 -26.162 -14.329  0.00  0.00    +0.345 P 
ATOM      2  O   UNL     1      39.058 -26.761 -14.574  0.00  0.00    -0.258 OA
ENDROOT
BRANCH   1   3
ATOM      3  O   UNL     1      36.754 -26.035 -15.617  0.00  0.00    -0.323 OA
ATOM      4  H   UNL     1      37.044 -26.660 -16.300  0.00  0.00    +0.220 HD
ENDBRANCH   1   3
BRANCH   1   5
ATOM      5  O   UNL     1      36.797 -26.909 -13.236  0.00  0.00    -0.323 OA
ATOM      6  H   UNL     1      36.329 -27.647 -13.657  0.00  0.00    +0.220 HD
ENDBRANCH   1   5
BRANCH   1   7
ATOM      7  C   UNL     1      37.770 -24.473 -13.710  0.00  0.00    +0.187 C 
BRANCH   7   9
ATOM      8  O   UNL     1      37.704 -24.772 -11.320  0.00  0.00    -0.288 OA
ATOM      9  C   UNL     1      38.290 -24.346 -12.309  0.00  0.00    +0.220 C 
ENDBRANCH   7   9
ENDBRANCH   1   7
TORSDOF 4
ENDMDL
MODEL 8
REMARK VINA RESULT:      -4.3     10.637     11.361
REMARK  Name = 490
REMARK  4 active torsions:
REMARK  status: ('A' for Active; 'I' for Inactive)
REMARK    1  A    between atoms: P_1  and  O_3
REMARK    2  A    between atoms: P_1  and  O_5
REMARK    3  A    between atoms: P_1  and  C_7
REMARK    4  A    between atoms: C_7  and  C_9
REMARK                            x       y       z     vdW  Elec       q    Type
REMARK                         _______ _______ _______ _____ _____    ______ ____
ROOT
ATOM      1  P   UNL     1      41.676 -15.500 -16.261  0.00  0.00    +0.345 P 
ATOM      2  O   UNL     1      42.951 -16.233 -16.018  0.00  0.00    -0.258 OA
ENDROOT
BRANCH   1   3
ATOM      3  O   UNL     1      41.244 -15.330 -17.804  0.00  0.00    -0.323 OA
ATOM      4  H   UNL     1      41.115 -16.205 -18.202  0.00  0.00    +0.220 HD
ENDBRANCH   1   3
BRANCH   1   5
ATOM      5  O   UNL     1      40.364 -16.115 -15.559  0.00  0.00    -0.323 OA
ATOM      6  H   UNL     1      40.014 -16.838 -16.103  0.00  0.00    +0.220 HD
ENDBRANCH   1   5
BRANCH   1   7
ATOM      7  C   UNL     1      41.685 -13.802 -15.664  0.00  0.00    +0.187 C 
BRANCH   7   9
ATOM      8  O   UNL     1      40.896 -14.053 -13.401  0.00  0.00    -0.288 OA
ATOM      9  C   UNL     1      40.760 -13.549 -14.510  0.00  0.00    +0.220 C 
ENDBRANCH   7   9
ENDBRANCH   1   7
TORSDOF 4
ENDMDL
MODEL 9
REMARK VINA RESULT:      -4.2      7.946      9.225
REMARK  Name = 490
REMARK  4 active torsions:
REMARK  status: ('A' for Active; 'I' for Inactive)
REMARK    1  A    between atoms: P_1  and  O_3
REMARK    2  A    between atoms: P_1  and  O_5
REMARK    3  A    between atoms: P_1  and  C_7
REMARK    4  A    between atoms: C_7  and  C_9
REMARK                            x       y       z     vdW  Elec       q    Type
REMARK                         _______ _______ _______ _____ _____    ______ ____
ROOT
ATOM      1  P   UNL     1      28.289 -22.941 -16.492  0.00  0.00    +0.345 P 
ATOM      2  O   UNL     1      27.462 -21.941 -15.759  0.00  0.00    -0.258 OA
ENDROOT
BRANCH   1   3
ATOM      3  O   UNL     1      27.560 -23.700 -17.713  0.00  0.00    -0.323 OA
ATOM      4  H   UNL     1      27.420 -23.077 -18.443  0.00  0.00    +0.220 HD
ENDBRANCH   1   3
BRANCH   1   5
ATOM      5  O   UNL     1      29.654 -22.387 -17.143  0.00  0.00    -0.323 OA
ATOM      6  H   UNL     1      30.064 -23.085 -17.677  0.00  0.00    +0.220 HD
ENDBRANCH   1   5
BRANCH   1   7
ATOM      7  C   UNL     1      28.865 -24.304 -15.468  0.00  0.00    +0.187 C 
BRANCH   7   9
ATOM      8  O   UNL     1      30.518 -22.874 -14.454  0.00  0.00    -0.288 OA
ATOM      9  C   UNL     1      30.114 -24.007 -14.692  0.00  0.00    +0.220 C 
ENDBRANCH   7   9
ENDBRANCH   1   7
TORSDOF 4
ENDMDL
