MODEL 1
REMARK VINA RESULT:      -5.1      0.000      0.000
REMARK  Name = 10026
REMARK  5 active torsions:
REMARK  status: ('A' for Active; 'I' for Inactive)
REMARK    1  A    between atoms: C_1  and  C_2
REMARK    2  A    between atoms: C_1  and  C_5
REMARK    3  A    between atoms: C_2  and  C_3
REMARK    4  A    between atoms: C_5  and  O_6
REMARK    5  A    between atoms: O_6  and  N_8
REMARK                            x       y       z     vdW  Elec       q    Type
REMARK                         _______ _______ _______ _____ _____    ______ ____
ROOT
ATOM      1  C   UNL     1      29.315 -23.240 -16.140  0.00  0.00    +0.034 C 
ENDROOT
BRANCH   1   2
ATOM      2  C   UNL     1      30.064 -23.008 -14.829  0.00  0.00    +0.003 C 
BRANCH   2   3
ATOM      3  C   UNL     1      31.571 -22.899 -15.061  0.00  0.00    +0.000 C 
ATOM      4  C   UNL     1      31.940 -23.240 -16.495  0.00  0.00    +0.000 C 
ENDBRANCH   2   3
ENDBRANCH   1   2
BRANCH   1   5
ATOM      5  C   UNL     1      27.892 -22.703 -16.076  0.00  0.00    +0.171 C 
BRANCH   5   6
ATOM      6  O   UNL     1      27.771 -21.613 -16.979  0.00  0.00    -0.240 OA
BRANCH   6   8
ATOM      7  O   UNL     1      26.211 -20.328 -18.021  0.00  0.00    -0.070 OA
ATOM      8  N   UNL     1      26.399 -21.448 -17.317  0.00  0.00    +0.101 NA
ENDBRANCH   6   8
ENDBRANCH   5   6
ENDBRANCH   1   5
TORSDOF 5
ENDMDL
MODEL 2
REMARK VINA RESULT:      -5.1      1.411      1.761
REMARK  Name = 10026
REMARK  5 active torsions:
REMARK  status: ('A' for Active; 'I' for Inactive)
REMARK    1  A    between atoms: C_1  and  C_2
REMARK    2  A    between atoms: C_1  and  C_5
REMARK    3  A    between atoms: C_2  and  C_3
REMARK    4  A    between atoms: C_5  and  O_6
REMARK    5  A    between atoms: O_6  and  N_8
REMARK                            x       y       z     vdW  Elec       q    Type
REMARK                         _______ _______ _______ _____ _____    ______ ____
ROOT
ATOM      1  C   UNL     1      29.141 -23.077 -15.590  0.00  0.00    +0.034 C 
ENDROOT
BRANCH   1   2
ATOM      2  C   UNL     1      29.206 -24.558 -15.958  0.00  0.00    +0.003 C 
BRANCH   2   3
ATOM      3  C   UNL     1      29.897 -25.373 -14.865  0.00  0.00    +0.000 C 
ATOM      4  C   UNL     1      30.503 -24.475 -13.799  0.00  0.00    +0.000 C 
ENDBRANCH   2   3
ENDBRANCH   1   2
BRANCH   1   5
ATOM      5  C   UNL     1      27.758 -22.495 -15.843  0.00  0.00    +0.171 C 
BRANCH   5   6
ATOM      6  O   UNL     1      27.815 -21.654 -16.987  0.00  0.00    -0.240 OA
BRANCH   6   8
ATOM      7  O   UNL     1      26.215 -20.331 -17.915  0.00  0.00    -0.070 OA
ATOM      8  N   UNL     1      26.519 -21.586 -17.570  0.00  0.00    +0.101 NA
ENDBRANCH   6   8
ENDBRANCH   5   6
ENDBRANCH   1   5
TORSDOF 5
ENDMDL
MODEL 3
REMARK VINA RESULT:      -5.0      6.819      7.726
REMARK  Name = 10026
REMARK  5 active torsions:
REMARK  status: ('A' for Active; 'I' for Inactive)
REMARK    1  A    between atoms: C_1  and  C_2
REMARK    2  A    between atoms: C_1  and  C_5
REMARK    3  A    between atoms: C_2  and  C_3
REMARK    4  A    between atoms: C_5  and  O_6
REMARK    5  A    between atoms: O_6  and  N_8
REMARK                            x       y       z     vdW  Elec       q    Type
REMARK                         _______ _______ _______ _____ _____    ______ ____
ROOT
ATOM      1  C   UNL     1      33.423 -21.115 -19.808  0.00  0.00    +0.034 C 
ENDROOT
BRANCH   1   2
ATOM      2  C   UNL     1      33.268 -19.879 -20.693  0.00  0.00    +0.003 C 
BRANCH   2   3
ATOM      3  C   UNL     1      34.614 -19.427 -21.258  0.00  0.00    +0.000 C 
ATOM      4  C   UNL     1      34.533 -19.174 -22.754  0.00  0.00    +0.000 C 
ENDBRANCH   2   3
ENDBRANCH   1   2
BRANCH   1   5
ATOM      5  C   UNL     1      34.887 -21.429 -19.532  0.00  0.00    +0.171 C 
BRANCH   5   6
ATOM      6  O   UNL     1      34.984 -22.749 -19.017  0.00  0.00    -0.240 OA
BRANCH   6   8
ATOM      7  O   UNL     1      34.054 -24.535 -20.073  0.00  0.00    -0.070 OA
ATOM      8  N   UNL     1      33.790 -23.453 -19.334  0.00  0.00    +0.101 NA
ENDBRANCH   6   8
ENDBRANCH   5   6
ENDBRANCH   1   5
TORSDOF 5
ENDMDL
MODEL 4
REMARK VINA RESULT:      -4.9      6.664      7.696
REMARK  Name = 10026
REMARK  5 active torsions:
REMARK  status: ('A' for Active; 'I' for Inactive)
REMARK    1  A    between atoms: C_1  and  C_2
REMARK    2  A    between atoms: C_1  and  C_5
REMARK    3  A    between atoms: C_2  and  C_3
REMARK    4  A    between atoms: C_5  and  O_6
REMARK    5  A    between atoms: O_6  and  N_8
REMARK                            x       y       z     vdW  Elec       q    Type
REMARK                         _______ _______ _______ _____ _____    ______ ____
ROOT
ATOM      1  C   UNL     1      32.927 -20.134 -20.592  0.00  0.00    +0.034 C 
ENDROOT
BRANCH   1   2
ATOM      2  C   UNL     1      33.794 -18.993 -21.119  0.00  0.00    +0.003 C 
BRANCH   2   3
ATOM      3  C   UNL     1      34.968 -19.520 -21.943  0.00  0.00    +0.000 C 
ATOM      4  C   UNL     1      34.836 -19.140 -23.409  0.00  0.00    +0.000 C 
ENDBRANCH   2   3
ENDBRANCH   1   2
BRANCH   1   5
ATOM      5  C   UNL     1      33.737 -21.118 -19.760  0.00  0.00    +0.171 C 
BRANCH   5   6
ATOM      6  O   UNL     1      32.998 -22.323 -19.625  0.00  0.00    -0.240 OA
BRANCH   6   8
ATOM      7  O   UNL     1      33.784 -23.776 -18.062  0.00  0.00    -0.070 OA
ATOM      8  N   UNL     1      33.901 -23.383 -19.334  0.00  0.00    +0.101 NA
ENDBRANCH   6   8
ENDBRANCH   5   6
ENDBRANCH   1   5
TORSDOF 5
ENDMDL
MODEL 5
REMARK VINA RESULT:      -4.8      9.318     10.056
REMARK  Name = 10026
REMARK  5 active torsions:
REMARK  status: ('A' for Active; 'I' for Inactive)
REMARK    1  A    between atoms: C_1  and  C_2
REMARK    2  A    between atoms: C_1  and  C_5
REMARK    3  A    between atoms: C_2  and  C_3
REMARK    4  A    between atoms: C_5  and  O_6
REMARK    5  A    between atoms: O_6  and  N_8
REMARK                            x       y       z     vdW  Elec       q    Type
REMARK                         _______ _______ _______ _____ _____    ______ ____
ROOT
ATOM      1  C   UNL     1      34.794 -19.063 -22.927  0.00  0.00    +0.034 C 
ENDROOT
BRANCH   1   2
ATOM      2  C   UNL     1      34.798 -18.827 -21.418  0.00  0.00    +0.003 C 
BRANCH   2   3
ATOM      3  C   UNL     1      34.373 -20.081 -20.657  0.00  0.00    +0.000 C 
ATOM      4  C   UNL     1      32.865 -20.141 -20.478  0.00  0.00    +0.000 C 
ENDBRANCH   2   3
ENDBRANCH   1   2
BRANCH   1   5
ATOM      5  C   UNL     1      35.011 -17.770 -23.700  0.00  0.00    +0.171 C 
BRANCH   5   6
ATOM      6  O   UNL     1      34.301 -17.844 -24.928  0.00  0.00    -0.240 OA
BRANCH   6   8
ATOM      7  O   UNL     1      33.764 -16.032 -26.193  0.00  0.00    -0.070 OA
ATOM      8  N   UNL     1      34.770 -16.814 -25.790  0.00  0.00    +0.101 NA
ENDBRANCH   6   8
ENDBRANCH   5   6
ENDBRANCH   1   5
TORSDOF 5
ENDMDL
MODEL 6
REMARK VINA RESULT:      -4.8     11.013     11.485
REMARK  Name = 10026
REMARK  5 active torsions:
REMARK  status: ('A' for Active; 'I' for Inactive)
REMARK    1  A    between atoms: C_1  and  C_2
REMARK    2  A    between atoms: C_1  and  C_5
REMARK    3  A    between atoms: C_2  and  C_3
REMARK    4  A    between atoms: C_5  and  O_6
REMARK    5  A    between atoms: O_6  and  N_8
REMARK                            x       y       z     vdW  Elec       q    Type
REMARK                         _______ _______ _______ _____ _____    ______ ____
ROOT
ATOM      1  C   UNL     1      37.539 -25.948 -13.895  0.00  0.00    +0.034 C 
ENDROOT
BRANCH   1   2
ATOM      2  C   UNL     1      37.776 -25.718 -12.404  0.00  0.00    +0.003 C 
BRANCH   2   3
ATOM      3  C   UNL     1      38.268 -24.297 -12.130  0.00  0.00    +0.000 C 
ATOM      4  C   UNL     1      37.138 -23.286 -12.235  0.00  0.00    +0.000 C 
ENDBRANCH   2   3
ENDBRANCH   1   2
BRANCH   1   5
ATOM      5  C   UNL     1      38.785 -25.646 -14.715  0.00  0.00    +0.171 C 
BRANCH   5   6
ATOM      6  O   UNL     1      39.668 -26.756 -14.635  0.00  0.00    -0.240 OA
BRANCH   6   8
ATOM      7  O   UNL     1      41.074 -24.972 -14.537  0.00  0.00    -0.070 OA
ATOM      8  N   UNL     1      40.968 -26.283 -14.304  0.00  0.00    +0.101 NA
ENDBRANCH   6   8
ENDBRANCH   5   6
ENDBRANCH   1   5
TORSDOF 5
ENDMDL
MODEL 7
REMARK VINA RESULT:      -4.7     10.451     11.194
REMARK  Name = 10026
REMARK  5 active torsions:
REMARK  status: ('A' for Active; 'I' for Inactive)
REMARK    1  A    between atoms: C_1  and  C_2
REMARK    2  A    between atoms: C_1  and  C_5
REMARK    3  A    between atoms: C_2  and  C_3
REMARK    4  A    between atoms: C_5  and  O_6
REMARK    5  A    between atoms: O_6  and  N_8
REMARK                            x       y       z     vdW  Elec       q    Type
REMARK                         _______ _______ _______ _____ _____    ______ ____
ROOT
ATOM      1  C   UNL     1      34.602 -18.630 -24.858  0.00  0.00    +0.034 C 
ENDROOT
BRANCH   1   2
ATOM      2  C   UNL     1      34.774 -19.378 -23.538  0.00  0.00    +0.003 C 
BRANCH   2   3
ATOM      3  C   UNL     1      35.189 -18.433 -22.412  0.00  0.00    +0.000 C 
ATOM      4  C   UNL     1      34.956 -19.056 -21.046  0.00  0.00    +0.000 C 
ENDBRANCH   2   3
ENDBRANCH   1   2
BRANCH   1   5
ATOM      5  C   UNL     1      34.746 -17.126 -24.675  0.00  0.00    +0.171 C 
BRANCH   5   6
ATOM      6  O   UNL     1      34.773 -16.508 -25.954  0.00  0.00    -0.240 OA
BRANCH   6   8
ATOM      7  O   UNL     1      33.579 -14.865 -26.977  0.00  0.00    -0.070 OA
ATOM      8  N   UNL     1      33.485 -15.967 -26.227  0.00  0.00    +0.101 NA
ENDBRANCH   6   8
ENDBRANCH   5   6
ENDBRANCH   1   5
TORSDOF 5
ENDMDL
MODEL 8
REMARK VINA RESULT:      -4.7      9.670     10.263
REMARK  Name = 10026
REMARK  5 active torsions:
REMARK  status: ('A' for Active; 'I' for Inactive)
REMARK    1  A    between atoms: C_1  and  C_2
REMARK    2  A    between atoms: C_1  and  C_5
REMARK    3  A    between atoms: C_2  and  C_3
REMARK    4  A    between atoms: C_5  and  O_6
REMARK    5  A    between atoms: O_6  and  N_8
REMARK                            x       y       z     vdW  Elec       q    Type
REMARK                         _______ _______ _______ _____ _____    ______ ____
ROOT
ATOM      1  C   UNL     1      37.923 -25.884 -13.235  0.00  0.00    +0.034 C 
ENDROOT
BRANCH   1   2
ATOM      2  C   UNL     1      38.110 -25.374 -14.662  0.00  0.00    +0.003 C 
BRANCH   2   3
ATOM      3  C   UNL     1      39.573 -25.034 -14.945  0.00  0.00    +0.000 C 
ATOM      4  C   UNL     1      40.512 -26.051 -14.319  0.00  0.00    +0.000 C 
ENDBRANCH   2   3
ENDBRANCH   1   2
BRANCH   1   5
ATOM      5  C   UNL     1      37.041 -24.951 -12.416  0.00  0.00    +0.171 C 
BRANCH   5   6
ATOM      6  O   UNL     1      36.384 -25.708 -11.408  0.00  0.00    -0.240 OA
BRANCH   6   8
ATOM      7  O   UNL     1      35.414 -24.594  -9.680  0.00  0.00    -0.070 OA
ATOM      8  N   UNL     1      35.254 -24.975 -10.951  0.00  0.00    +0.101 NA
ENDBRANCH   6   8
ENDBRANCH   5   6
ENDBRANCH   1   5
TORSDOF 5
ENDMDL
MODEL 9
REMARK VINA RESULT:      -4.6      7.068      8.092
REMARK  Name = 10026
REMARK  5 active torsions:
REMARK  status: ('A' for Active; 'I' for Inactive)
REMARK    1  A    between atoms: C_1  and  C_2
REMARK    2  A    between atoms: C_1  and  C_5
REMARK    3  A    between atoms: C_2  and  C_3
REMARK    4  A    between atoms: C_5  and  O_6
REMARK    5  A    between atoms: O_6  and  N_8
REMARK                            x       y       z     vdW  Elec       q    Type
REMARK                         _______ _______ _______ _____ _____    ______ ____
ROOT
ATOM      1  C   UNL     1      33.400 -21.330 -19.621  0.00  0.00    +0.034 C 
ENDROOT
BRANCH   1   2
ATOM      2  C   UNL     1      33.102 -20.135 -20.524  0.00  0.00    +0.003 C 
BRANCH   2   3
ATOM      3  C   UNL     1      34.384 -19.404 -20.922  0.00  0.00    +0.000 C 
ATOM      4  C   UNL     1      34.508 -19.276 -22.431  0.00  0.00    +0.000 C 
ENDBRANCH   2   3
ENDBRANCH   1   2
BRANCH   1   5
ATOM      5  C   UNL     1      34.893 -21.610 -19.533  0.00  0.00    +0.171 C 
BRANCH   5   6
ATOM      6  O   UNL     1      35.127 -22.525 -18.472  0.00  0.00    -0.240 OA
BRANCH   6   8
ATOM      7  O   UNL     1      36.746 -20.947 -18.221  0.00  0.00    -0.070 OA
ATOM      8  N   UNL     1      36.302 -22.126 -17.775  0.00  0.00    +0.101 NA
ENDBRANCH   6   8
ENDBRANCH   5   6
ENDBRANCH   1   5
TORSDOF 5
ENDMDL
