MODEL 1
REMARK VINA RESULT:      -8.2      0.000      0.000
REMARK  Name = 4926
REMARK  4 active torsions:
REMARK  status: ('A' for Active; 'I' for Inactive)
REMARK    1  A    between atoms: N_2  and  C_15
REMARK    2  A    between atoms: C_15  and  C_16
REMARK    3  A    between atoms: C_16  and  C_17
REMARK    4  A    between atoms: C_17  and  N_18
REMARK                            x       y       z     vdW  Elec       q    Type
REMARK                         _______ _______ _______ _____ _____    ______ ____
ROOT
ATOM      1  S   UNL     1      32.301  -7.338 -20.210  0.00  0.00    -0.084 S 
ATOM      2  N   UNL     1      32.127  -9.024 -22.818  0.00  0.00    -0.286 N 
ATOM      3  C   UNL     1      31.927  -7.628 -22.973  0.00  0.00    +0.058 C 
ATOM      4  C   UNL     1      31.951  -9.742 -21.608  0.00  0.00    +0.058 C 
ATOM      5  C   UNL     1      31.959  -6.763 -21.862  0.00  0.00    +0.043 C 
ATOM      6  C   UNL     1      31.984  -9.085 -20.362  0.00  0.00    +0.043 C 
ATOM      7  C   UNL     1      31.654  -7.048 -24.231  0.00  0.00    +0.015 C 
ATOM      8  C   UNL     1      31.698 -11.131 -21.592  0.00  0.00    +0.015 C 
ATOM      9  C   UNL     1      31.753  -5.380 -22.021  0.00  0.00    +0.008 C 
ATOM     10  C   UNL     1      31.801  -9.801 -19.165  0.00  0.00    +0.008 C 
ATOM     11  C   UNL     1      31.445  -5.674 -24.383  0.00  0.00    +0.001 C 
ATOM     12  C   UNL     1      31.512 -11.837 -20.402  0.00  0.00    +0.001 C 
ATOM     13  C   UNL     1      31.497  -4.839 -23.277  0.00  0.00    +0.001 C 
ATOM     14  C   UNL     1      31.566 -11.171 -19.186  0.00  0.00    +0.001 C 
ENDROOT
BRANCH   2  15
ATOM     15  C   UNL     1      32.472  -9.795 -24.018  0.00  0.00    +0.093 C 
BRANCH  15  16
ATOM     16  C   UNL     1      33.979 -10.050 -24.081  0.00  0.00    -0.001 C 
BRANCH  16  17
ATOM     17  C   UNL     1      34.402 -11.123 -25.088  0.00  0.00    -0.076 C 
BRANCH  17  18
ATOM     18  N   UNL     1      33.493 -12.263 -25.087  0.00  0.00    +0.384 N 
ATOM     19  C   UNL     1      33.857 -13.211 -24.031  0.00  0.00    -0.101 C 
ATOM     20  C   UNL     1      33.500 -12.929 -26.390  0.00  0.00    -0.101 C 
ATOM     21  H   UNL     1      32.552 -11.918 -24.903  0.00  0.00    -0.080 HD
ENDBRANCH  17  18
ENDBRANCH  16  17
ENDBRANCH  15  16
ENDBRANCH   2  15
TORSDOF 4
ENDMDL
MODEL 2
REMARK VINA RESULT:      -8.1      2.978      5.845
REMARK  Name = 4926
REMARK  4 active torsions:
REMARK  status: ('A' for Active; 'I' for Inactive)
REMARK    1  A    between atoms: N_2  and  C_15
REMARK    2  A    between atoms: C_15  and  C_16
REMARK    3  A    between atoms: C_16  and  C_17
REMARK    4  A    between atoms: C_17  and  N_18
REMARK                            x       y       z     vdW  Elec       q    Type
REMARK                         _______ _______ _______ _____ _____    ______ ____
ROOT
ATOM      1  S   UNL     1      33.598 -10.644 -24.296  0.00  0.00    -0.084 S 
ATOM      2  N   UNL     1      32.742 -13.357 -23.041  0.00  0.00    -0.286 N 
ATOM      3  C   UNL     1      33.043 -13.388 -24.427  0.00  0.00    +0.058 C 
ATOM      4  C   UNL     1      32.370 -12.197 -22.314  0.00  0.00    +0.058 C 
ATOM      5  C   UNL     1      33.420 -12.217 -25.114  0.00  0.00    +0.043 C 
ATOM      6  C   UNL     1      32.680 -10.909 -22.792  0.00  0.00    +0.043 C 
ATOM      7  C   UNL     1      32.944 -14.574 -25.186  0.00  0.00    +0.015 C 
ATOM      8  C   UNL     1      31.644 -12.274 -21.105  0.00  0.00    +0.015 C 
ATOM      9  C   UNL     1      33.709 -12.252 -26.490  0.00  0.00    +0.008 C 
ATOM     10  C   UNL     1      32.301  -9.762 -22.072  0.00  0.00    +0.008 C 
ATOM     11  C   UNL     1      33.228 -14.603 -26.555  0.00  0.00    +0.001 C 
ATOM     12  C   UNL     1      31.266 -11.132 -20.395  0.00  0.00    +0.001 C 
ATOM     13  C   UNL     1      33.613 -13.441 -27.206  0.00  0.00    +0.001 C 
ATOM     14  C   UNL     1      31.597  -9.874 -20.877  0.00  0.00    +0.001 C 
ENDROOT
BRANCH   2  15
ATOM     15  C   UNL     1      32.748 -14.635 -22.319  0.00  0.00    +0.093 C 
BRANCH  15  16
ATOM     16  C   UNL     1      34.145 -14.945 -21.780  0.00  0.00    -0.001 C 
BRANCH  16  17
ATOM     17  C   UNL     1      34.339 -16.386 -21.302  0.00  0.00    -0.076 C 
BRANCH  17  18
ATOM     18  N   UNL     1      35.410 -17.062 -22.023  0.00  0.00    +0.384 N 
ATOM     19  C   UNL     1      35.001 -17.349 -23.400  0.00  0.00    -0.101 C 
ATOM     20  C   UNL     1      35.792 -18.299 -21.340  0.00  0.00    -0.101 C 
ATOM     21  H   UNL     1      36.218 -16.442 -22.047  0.00  0.00    -0.080 HD
ENDBRANCH  17  18
ENDBRANCH  16  17
ENDBRANCH  15  16
ENDBRANCH   2  15
TORSDOF 4
ENDMDL
MODEL 3
REMARK VINA RESULT:      -8.0     14.496     16.944
REMARK  Name = 4926
REMARK  4 active torsions:
REMARK  status: ('A' for Active; 'I' for Inactive)
REMARK    1  A    between atoms: N_2  and  C_15
REMARK    2  A    between atoms: C_15  and  C_16
REMARK    3  A    between atoms: C_16  and  C_17
REMARK    4  A    between atoms: C_17  and  N_18
REMARK                            x       y       z     vdW  Elec       q    Type
REMARK                         _______ _______ _______ _____ _____    ______ ____
ROOT
ATOM      1  S   UNL     1      33.045 -23.078 -17.777  0.00  0.00    -0.084 S 
ATOM      2  N   UNL     1      34.458 -23.423 -15.028  0.00  0.00    -0.286 N 
ATOM      3  C   UNL     1      33.040 -23.446 -14.998  0.00  0.00    +0.058 C 
ATOM      4  C   UNL     1      35.242 -22.835 -16.053  0.00  0.00    +0.058 C 
ATOM      5  C   UNL     1      32.287 -23.276 -16.177  0.00  0.00    +0.043 C 
ATOM      6  C   UNL     1      34.706 -22.604 -17.336  0.00  0.00    +0.043 C 
ATOM      7  C   UNL     1      32.321 -23.602 -13.794  0.00  0.00    +0.015 C 
ATOM      8  C   UNL     1      36.573 -22.420 -15.832  0.00  0.00    +0.015 C 
ATOM      9  C   UNL     1      30.880 -23.292 -16.140  0.00  0.00    +0.008 C 
ATOM     10  C   UNL     1      35.485 -22.013 -18.347  0.00  0.00    +0.008 C 
ATOM     11  C   UNL     1      30.923 -23.612 -13.762  0.00  0.00    +0.001 C 
ATOM     12  C   UNL     1      37.342 -21.829 -16.838  0.00  0.00    +0.001 C 
ATOM     13  C   UNL     1      30.203 -23.459 -14.937  0.00  0.00    +0.001 C 
ATOM     14  C   UNL     1      36.798 -21.628 -18.098  0.00  0.00    +0.001 C 
ENDROOT
BRANCH   2  15
ATOM     15  C   UNL     1      35.168 -23.989 -13.874  0.00  0.00    +0.093 C 
BRANCH  15  16
ATOM     16  C   UNL     1      35.872 -25.291 -14.259  0.00  0.00    -0.001 C 
BRANCH  16  17
ATOM     17  C   UNL     1      37.006 -25.705 -13.317  0.00  0.00    -0.076 C 
BRANCH  17  18
ATOM     18  N   UNL     1      38.101 -24.743 -13.324  0.00  0.00    +0.384 N 
ATOM     19  C   UNL     1      39.352 -25.392 -13.722  0.00  0.00    -0.101 C 
ATOM     20  C   UNL     1      38.249 -24.121 -12.007  0.00  0.00    -0.101 C 
ATOM     21  H   UNL     1      37.881 -24.017 -14.004  0.00  0.00    -0.080 HD
ENDBRANCH  17  18
ENDBRANCH  16  17
ENDBRANCH  15  16
ENDBRANCH   2  15
TORSDOF 4
ENDMDL
MODEL 4
REMARK VINA RESULT:      -7.8     13.480     16.619
REMARK  Name = 4926
REMARK  4 active torsions:
REMARK  status: ('A' for Active; 'I' for Inactive)
REMARK    1  A    between atoms: N_2  and  C_15
REMARK    2  A    between atoms: C_15  and  C_16
REMARK    3  A    between atoms: C_16  and  C_17
REMARK    4  A    between atoms: C_17  and  N_18
REMARK                            x       y       z     vdW  Elec       q    Type
REMARK                         _______ _______ _______ _____ _____    ______ ____
ROOT
ATOM      1  S   UNL     1      37.235 -22.073 -16.583  0.00  0.00    -0.084 S 
ATOM      2  N   UNL     1      34.524 -23.539 -16.171  0.00  0.00    -0.286 N 
ATOM      3  C   UNL     1      35.615 -24.041 -15.417  0.00  0.00    +0.058 C 
ATOM      4  C   UNL     1      34.638 -22.780 -17.363  0.00  0.00    +0.058 C 
ATOM      5  C   UNL     1      36.900 -23.475 -15.535  0.00  0.00    +0.043 C 
ATOM      6  C   UNL     1      35.826 -22.090 -17.674  0.00  0.00    +0.043 C 
ATOM      7  C   UNL     1      35.478 -25.144 -14.547  0.00  0.00    +0.015 C 
ATOM      8  C   UNL     1      33.590 -22.709 -18.308  0.00  0.00    +0.015 C 
ATOM      9  C   UNL     1      37.981 -23.982 -14.791  0.00  0.00    +0.008 C 
ATOM     10  C   UNL     1      35.937 -21.345 -18.862  0.00  0.00    +0.008 C 
ATOM     11  C   UNL     1      36.557 -25.648 -13.813  0.00  0.00    +0.001 C 
ATOM     12  C   UNL     1      33.706 -21.972 -19.488  0.00  0.00    +0.001 C 
ATOM     13  C   UNL     1      37.808 -25.064 -13.934  0.00  0.00    +0.001 C 
ATOM     14  C   UNL     1      34.880 -21.287 -19.765  0.00  0.00    +0.001 C 
ENDROOT
BRANCH   2  15
ATOM     15  C   UNL     1      33.171 -23.893 -15.721  0.00  0.00    +0.093 C 
BRANCH  15  16
ATOM     16  C   UNL     1      32.621 -22.826 -14.774  0.00  0.00    -0.001 C 
BRANCH  16  17
ATOM     17  C   UNL     1      31.110 -22.904 -14.536  0.00  0.00    -0.076 C 
BRANCH  17  18
ATOM     18  N   UNL     1      30.443 -23.740 -15.526  0.00  0.00    +0.384 N 
ATOM     19  C   UNL     1      29.597 -22.926 -16.401  0.00  0.00    -0.101 C 
ATOM     20  C   UNL     1      29.645 -24.778 -14.871  0.00  0.00    -0.101 C 
ATOM     21  H   UNL     1      31.159 -24.191 -16.094  0.00  0.00    -0.080 HD
ENDBRANCH  17  18
ENDBRANCH  16  17
ENDBRANCH  15  16
ENDBRANCH   2  15
TORSDOF 4
ENDMDL
MODEL 5
REMARK VINA RESULT:      -7.8     11.737     14.653
REMARK  Name = 4926
REMARK  4 active torsions:
REMARK  status: ('A' for Active; 'I' for Inactive)
REMARK    1  A    between atoms: N_2  and  C_15
REMARK    2  A    between atoms: C_15  and  C_16
REMARK    3  A    between atoms: C_16  and  C_17
REMARK    4  A    between atoms: C_17  and  N_18
REMARK                            x       y       z     vdW  Elec       q    Type
REMARK                         _______ _______ _______ _____ _____    ______ ____
ROOT
ATOM      1  S   UNL     1      36.853 -21.357 -18.988  0.00  0.00    -0.084 S 
ATOM      2  N   UNL     1      34.130 -22.519 -18.035  0.00  0.00    -0.286 N 
ATOM      3  C   UNL     1      34.062 -21.588 -19.103  0.00  0.00    +0.058 C 
ATOM      4  C   UNL     1      35.200 -22.620 -17.110  0.00  0.00    +0.058 C 
ATOM      5  C   UNL     1      35.226 -20.975 -19.607  0.00  0.00    +0.043 C 
ATOM      6  C   UNL     1      36.476 -22.109 -17.416  0.00  0.00    +0.043 C 
ATOM      7  C   UNL     1      32.833 -21.206 -19.684  0.00  0.00    +0.015 C 
ATOM      8  C   UNL     1      35.032 -23.198 -15.833  0.00  0.00    +0.015 C 
ATOM      9  C   UNL     1      35.152 -20.046 -20.661  0.00  0.00    +0.008 C 
ATOM     10  C   UNL     1      37.532 -22.204 -16.492  0.00  0.00    +0.008 C 
ATOM     11  C   UNL     1      32.764 -20.278 -20.728  0.00  0.00    +0.001 C 
ATOM     12  C   UNL     1      36.082 -23.287 -14.916  0.00  0.00    +0.001 C 
ATOM     13  C   UNL     1      33.925 -19.700 -21.218  0.00  0.00    +0.001 C 
ATOM     14  C   UNL     1      37.334 -22.792 -15.247  0.00  0.00    +0.001 C 
ENDROOT
BRANCH   2  15
ATOM     15  C   UNL     1      32.972 -23.398 -17.829  0.00  0.00    +0.093 C 
BRANCH  15  16
ATOM     16  C   UNL     1      31.952 -22.738 -16.901  0.00  0.00    -0.001 C 
BRANCH  16  17
ATOM     17  C   UNL     1      31.357 -23.671 -15.842  0.00  0.00    -0.076 C 
BRANCH  17  18
ATOM     18  N   UNL     1      29.963 -23.993 -16.119  0.00  0.00    +0.384 N 
ATOM     19  C   UNL     1      29.207 -22.780 -16.439  0.00  0.00    -0.101 C 
ATOM     20  C   UNL     1      29.356 -24.683 -14.980  0.00  0.00    -0.101 C 
ATOM     21  H   UNL     1      29.935 -24.615 -16.927  0.00  0.00    -0.080 HD
ENDBRANCH  17  18
ENDBRANCH  16  17
ENDBRANCH  15  16
ENDBRANCH   2  15
TORSDOF 4
ENDMDL
MODEL 6
REMARK VINA RESULT:      -7.8      1.821      5.298
REMARK  Name = 4926
REMARK  4 active torsions:
REMARK  status: ('A' for Active; 'I' for Inactive)
REMARK    1  A    between atoms: N_2  and  C_15
REMARK    2  A    between atoms: C_15  and  C_16
REMARK    3  A    between atoms: C_16  and  C_17
REMARK    4  A    between atoms: C_17  and  N_18
REMARK                            x       y       z     vdW  Elec       q    Type
REMARK                         _______ _______ _______ _____ _____    ______ ____
ROOT
ATOM      1  S   UNL     1      32.078 -11.747 -22.936  0.00  0.00    -0.084 S 
ATOM      2  N   UNL     1      33.020  -8.823 -22.452  0.00  0.00    -0.286 N 
ATOM      3  C   UNL     1      33.663  -9.509 -23.514  0.00  0.00    +0.058 C 
ATOM      4  C   UNL     1      32.359  -9.445 -21.362  0.00  0.00    +0.058 C 
ATOM      5  C   UNL     1      33.339 -10.847 -23.815  0.00  0.00    +0.043 C 
ATOM      6  C   UNL     1      31.907 -10.776 -21.451  0.00  0.00    +0.043 C 
ATOM      7  C   UNL     1      34.676  -8.904 -24.289  0.00  0.00    +0.015 C 
ATOM      8  C   UNL     1      32.157  -8.781 -20.132  0.00  0.00    +0.015 C 
ATOM      9  C   UNL     1      33.987 -11.525 -24.865  0.00  0.00    +0.008 C 
ATOM     10  C   UNL     1      31.259 -11.391 -20.365  0.00  0.00    +0.008 C 
ATOM     11  C   UNL     1      35.320  -9.583 -25.328  0.00  0.00    +0.001 C 
ATOM     12  C   UNL     1      31.518  -9.397 -19.054  0.00  0.00    +0.001 C 
ATOM     13  C   UNL     1      34.972 -10.894 -25.617  0.00  0.00    +0.001 C 
ATOM     14  C   UNL     1      31.066 -10.704 -19.171  0.00  0.00    +0.001 C 
ENDROOT
BRANCH   2  15
ATOM     15  C   UNL     1      33.105  -7.357 -22.444  0.00  0.00    +0.093 C 
BRANCH  15  16
ATOM     16  C   UNL     1      31.863  -6.740 -23.089  0.00  0.00    -0.001 C 
BRANCH  16  17
ATOM     17  C   UNL     1      31.380  -5.445 -22.430  0.00  0.00    -0.076 C 
BRANCH  17  18
ATOM     18  N   UNL     1      30.740  -4.552 -23.387  0.00  0.00    +0.384 N 
ATOM     19  C   UNL     1      31.019  -4.982 -24.759  0.00  0.00    -0.101 C 
ATOM     20  C   UNL     1      31.191  -3.173 -23.187  0.00  0.00    -0.101 C 
ATOM     21  H   UNL     1      29.733  -4.589 -23.234  0.00  0.00    -0.080 HD
ENDBRANCH  17  18
ENDBRANCH  16  17
ENDBRANCH  15  16
ENDBRANCH   2  15
TORSDOF 4
ENDMDL
MODEL 7
REMARK VINA RESULT:      -7.7     12.299     15.262
REMARK  Name = 4926
REMARK  4 active torsions:
REMARK  status: ('A' for Active; 'I' for Inactive)
REMARK    1  A    between atoms: N_2  and  C_15
REMARK    2  A    between atoms: C_15  and  C_16
REMARK    3  A    between atoms: C_16  and  C_17
REMARK    4  A    between atoms: C_17  and  N_18
REMARK                            x       y       z     vdW  Elec       q    Type
REMARK                         _______ _______ _______ _____ _____    ______ ____
ROOT
ATOM      1  S   UNL     1      33.510 -24.117 -13.705  0.00  0.00    -0.084 S 
ATOM      2  N   UNL     1      33.601 -23.277 -16.698  0.00  0.00    -0.286 N 
ATOM      3  C   UNL     1      34.831 -23.187 -15.996  0.00  0.00    +0.058 C 
ATOM      4  C   UNL     1      32.317 -23.271 -16.095  0.00  0.00    +0.058 C 
ATOM      5  C   UNL     1      34.912 -23.519 -14.629  0.00  0.00    +0.043 C 
ATOM      6  C   UNL     1      32.150 -23.610 -14.738  0.00  0.00    +0.043 C 
ATOM      7  C   UNL     1      36.014 -22.732 -16.617  0.00  0.00    +0.015 C 
ATOM      8  C   UNL     1      31.158 -22.892 -16.808  0.00  0.00    +0.015 C 
ATOM      9  C   UNL     1      36.132 -23.420 -13.936  0.00  0.00    +0.008 C 
ATOM     10  C   UNL     1      30.876 -23.595 -14.144  0.00  0.00    +0.008 C 
ATOM     11  C   UNL     1      37.223 -22.632 -15.923  0.00  0.00    +0.001 C 
ATOM     12  C   UNL     1      29.895 -22.874 -16.212  0.00  0.00    +0.001 C 
ATOM     13  C   UNL     1      37.282 -22.979 -14.582  0.00  0.00    +0.001 C 
ATOM     14  C   UNL     1      29.753 -23.228 -14.879  0.00  0.00    +0.001 C 
ENDROOT
BRANCH   2  15
ATOM     15  C   UNL     1      33.660 -23.306 -18.165  0.00  0.00    +0.093 C 
BRANCH  15  16
ATOM     16  C   UNL     1      33.426 -21.910 -18.742  0.00  0.00    -0.001 C 
BRANCH  16  17
ATOM     17  C   UNL     1      34.557 -21.391 -19.634  0.00  0.00    -0.076 C 
BRANCH  17  18
ATOM     18  N   UNL     1      34.255 -20.079 -20.191  0.00  0.00    +0.384 N 
ATOM     19  C   UNL     1      32.880 -20.036 -20.693  0.00  0.00    -0.101 C 
ATOM     20  C   UNL     1      35.196 -19.744 -21.262  0.00  0.00    -0.101 C 
ATOM     21  H   UNL     1      34.351 -19.388 -19.448  0.00  0.00    -0.080 HD
ENDBRANCH  17  18
ENDBRANCH  16  17
ENDBRANCH  15  16
ENDBRANCH   2  15
TORSDOF 4
ENDMDL
MODEL 8
REMARK VINA RESULT:      -7.7      3.576      6.677
REMARK  Name = 4926
REMARK  4 active torsions:
REMARK  status: ('A' for Active; 'I' for Inactive)
REMARK    1  A    between atoms: N_2  and  C_15
REMARK    2  A    between atoms: C_15  and  C_16
REMARK    3  A    between atoms: C_16  and  C_17
REMARK    4  A    between atoms: C_17  and  N_18
REMARK                            x       y       z     vdW  Elec       q    Type
REMARK                         _______ _______ _______ _____ _____    ______ ____
ROOT
ATOM      1  S   UNL     1      34.516 -15.591 -21.271  0.00  0.00    -0.084 S 
ATOM      2  N   UNL     1      33.325 -14.365 -23.868  0.00  0.00    -0.286 N 
ATOM      3  C   UNL     1      32.866 -13.796 -22.653  0.00  0.00    +0.058 C 
ATOM      4  C   UNL     1      33.886 -15.661 -24.000  0.00  0.00    +0.058 C 
ATOM      5  C   UNL     1      33.315 -14.282 -21.409  0.00  0.00    +0.043 C 
ATOM      6  C   UNL     1      34.435 -16.331 -22.890  0.00  0.00    +0.043 C 
ATOM      7  C   UNL     1      31.919 -12.750 -22.629  0.00  0.00    +0.015 C 
ATOM      8  C   UNL     1      33.888 -16.354 -25.231  0.00  0.00    +0.015 C 
ATOM      9  C   UNL     1      32.850 -13.719 -20.206  0.00  0.00    +0.008 C 
ATOM     10  C   UNL     1      34.983 -17.620 -23.024  0.00  0.00    +0.008 C 
ATOM     11  C   UNL     1      31.456 -12.197 -21.431  0.00  0.00    +0.001 C 
ATOM     12  C   UNL     1      34.429 -17.635 -25.359  0.00  0.00    +0.001 C 
ATOM     13  C   UNL     1      31.925 -12.681 -20.219  0.00  0.00    +0.001 C 
ATOM     14  C   UNL     1      34.980 -18.268 -24.255  0.00  0.00    +0.001 C 
ENDROOT
BRANCH   2  15
ATOM     15  C   UNL     1      33.140 -13.580 -25.095  0.00  0.00    +0.093 C 
BRANCH  15  16
ATOM     16  C   UNL     1      34.261 -12.553 -25.253  0.00  0.00    -0.001 C 
BRANCH  16  17
ATOM     17  C   UNL     1      33.932 -11.161 -24.705  0.00  0.00    -0.076 C 
BRANCH  17  18
ATOM     18  N   UNL     1      35.109 -10.304 -24.648  0.00  0.00    +0.384 N 
ATOM     19  C   UNL     1      34.751  -8.969 -24.164  0.00  0.00    -0.101 C 
ATOM     20  C   UNL     1      35.745 -10.212 -25.963  0.00  0.00    -0.101 C 
ATOM     21  H   UNL     1      35.773 -10.718 -23.995  0.00  0.00    -0.080 HD
ENDBRANCH  17  18
ENDBRANCH  16  17
ENDBRANCH  15  16
ENDBRANCH   2  15
TORSDOF 4
ENDMDL
MODEL 9
REMARK VINA RESULT:      -7.6      4.011      7.347
REMARK  Name = 4926
REMARK  4 active torsions:
REMARK  status: ('A' for Active; 'I' for Inactive)
REMARK    1  A    between atoms: N_2  and  C_15
REMARK    2  A    between atoms: C_15  and  C_16
REMARK    3  A    between atoms: C_16  and  C_17
REMARK    4  A    between atoms: C_17  and  N_18
REMARK                            x       y       z     vdW  Elec       q    Type
REMARK                         _______ _______ _______ _____ _____    ______ ____
ROOT
ATOM      1  S   UNL     1      33.445 -15.932 -25.884  0.00  0.00    -0.084 S 
ATOM      2  N   UNL     1      33.991 -14.681 -23.090  0.00  0.00    -0.286 N 
ATOM      3  C   UNL     1      33.827 -13.759 -24.155  0.00  0.00    +0.058 C 
ATOM      4  C   UNL     1      34.367 -16.040 -23.240  0.00  0.00    +0.058 C 
ATOM      5  C   UNL     1      33.597 -14.205 -25.472  0.00  0.00    +0.043 C 
ATOM      6  C   UNL     1      34.192 -16.711 -24.466  0.00  0.00    +0.043 C 
ATOM      7  C   UNL     1      33.920 -12.364 -23.957  0.00  0.00    +0.015 C 
ATOM      8  C   UNL     1      34.965 -16.771 -22.190  0.00  0.00    +0.015 C 
ATOM      9  C   UNL     1      33.443 -13.286 -26.526  0.00  0.00    +0.008 C 
ATOM     10  C   UNL     1      34.573 -18.057 -24.612  0.00  0.00    +0.008 C 
ATOM     11  C   UNL     1      33.770 -11.455 -25.009  0.00  0.00    +0.001 C 
ATOM     12  C   UNL     1      35.346 -18.106 -22.341  0.00  0.00    +0.001 C 
ATOM     13  C   UNL     1      33.529 -11.917 -26.294  0.00  0.00    +0.001 C 
ATOM     14  C   UNL     1      35.148 -18.751 -23.553  0.00  0.00    +0.001 C 
ENDROOT
BRANCH   2  15
ATOM     15  C   UNL     1      33.830 -14.170 -21.723  0.00  0.00    +0.093 C 
BRANCH  15  16
ATOM     16  C   UNL     1      32.386 -13.733 -21.477  0.00  0.00    -0.001 C 
BRANCH  16  17
ATOM     17  C   UNL     1      32.208 -12.742 -20.323  0.00  0.00    -0.076 C 
BRANCH  17  18
ATOM     18  N   UNL     1      31.130 -11.794 -20.578  0.00  0.00    +0.384 N 
ATOM     19  C   UNL     1      31.267 -11.207 -21.913  0.00  0.00    -0.101 C 
ATOM     20  C   UNL     1      31.118 -10.741 -19.561  0.00  0.00    -0.101 C 
ATOM     21  H   UNL     1      30.246 -12.298 -20.534  0.00  0.00    -0.080 HD
ENDBRANCH  17  18
ENDBRANCH  16  17
ENDBRANCH  15  16
ENDBRANCH   2  15
TORSDOF 4
ENDMDL
