MODEL 1
REMARK VINA RESULT:      -9.7      0.000      0.000
REMARK  Name = 3394
REMARK  4 active torsions:
REMARK  status: ('A' for Active; 'I' for Inactive)
REMARK    1  A    between atoms: C_2  and  C_14
REMARK    2  A    between atoms: C_3  and  C_8
REMARK    3  A    between atoms: C_14  and  C_17
REMARK    4  A    between atoms: C_17  and  O_18
REMARK                            x       y       z     vdW  Elec       q    Type
REMARK                         _______ _______ _______ _____ _____    ______ ____
ROOT
ATOM      1  F   UNL     1      34.919 -19.750 -23.761  0.00  0.00    -0.204 F 
ATOM      2  C   UNL     1      34.372 -16.166 -23.516  0.00  0.00    -0.010 C 
ATOM      3  C   UNL     1      34.728 -18.365 -21.837  0.00  0.00    +0.027 C 
ATOM      4  C   UNL     1      34.560 -17.436 -24.060  0.00  0.00    +0.026 C 
ATOM      5  C   UNL     1      34.362 -15.995 -22.132  0.00  0.00    -0.004 C 
ATOM      6  C   UNL     1      34.739 -18.536 -23.221  0.00  0.00    +0.140 C 
ATOM      7  C   UNL     1      34.540 -17.094 -21.292  0.00  0.00    +0.002 C 
ENDROOT
BRANCH   3   8
ATOM      8  C   UNL     1      34.913 -19.502 -20.962  0.00  0.00    +0.002 C 
ATOM      9  C   UNL     1      36.198 -19.886 -20.578  0.00  0.00    +0.000 C 
ATOM     10  C   UNL     1      33.805 -20.216 -20.502  0.00  0.00    +0.000 C 
ATOM     11  C   UNL     1      36.375 -20.985 -19.736  0.00  0.00    +0.000 C 
ATOM     12  C   UNL     1      33.983 -21.313 -19.660  0.00  0.00    +0.000 C 
ATOM     13  C   UNL     1      35.267 -21.697 -19.277  0.00  0.00    +0.000 C 
ENDBRANCH   3   8
BRANCH   2  14
ATOM     14  C   UNL     1      34.182 -14.990 -24.413  0.00  0.00    +0.121 C 
ATOM     15  C   UNL     1      33.420 -15.313 -25.715  0.00  0.00    +0.016 C 
BRANCH  14  17
ATOM     16  O   UNL     1      32.301 -13.846 -23.354  0.00  0.00    -0.250 OA
ATOM     17  C   UNL     1      33.470 -13.823 -23.719  0.00  0.00    +0.317 C 
BRANCH  17  18
ATOM     18  O   UNL     1      34.267 -12.735 -23.553  0.00  0.00    -0.480 OA
ATOM     19  H   UNL     1      33.952 -11.883 -23.782  0.00  0.00    +0.295 HD
ENDBRANCH  17  18
ENDBRANCH  14  17
ENDBRANCH   2  14
TORSDOF 4
ENDMDL
MODEL 2
REMARK VINA RESULT:      -9.4      1.209      1.658
REMARK  Name = 3394
REMARK  4 active torsions:
REMARK  status: ('A' for Active; 'I' for Inactive)
REMARK    1  A    between atoms: C_2  and  C_14
REMARK    2  A    between atoms: C_3  and  C_8
REMARK    3  A    between atoms: C_14  and  C_17
REMARK    4  A    between atoms: C_17  and  O_18
REMARK                            x       y       z     vdW  Elec       q    Type
REMARK                         _______ _______ _______ _____ _____    ______ ____
ROOT
ATOM      1  F   UNL     1      34.986 -16.524 -20.224  0.00  0.00    -0.204 F 
ATOM      2  C   UNL     1      34.378 -15.881 -23.748  0.00  0.00    -0.010 C 
ATOM      3  C   UNL     1      34.895 -18.038 -22.056  0.00  0.00    +0.027 C 
ATOM      4  C   UNL     1      34.558 -15.669 -22.382  0.00  0.00    +0.026 C 
ATOM      5  C   UNL     1      34.457 -17.173 -24.269  0.00  0.00    -0.004 C 
ATOM      6  C   UNL     1      34.816 -16.747 -21.535  0.00  0.00    +0.140 C 
ATOM      7  C   UNL     1      34.716 -18.251 -23.423  0.00  0.00    +0.002 C 
ENDROOT
BRANCH   3   8
ATOM      8  C   UNL     1      35.163 -19.159 -21.182  0.00  0.00    +0.002 C 
ATOM      9  C   UNL     1      36.473 -19.449 -20.800  0.00  0.00    +0.000 C 
ATOM     10  C   UNL     1      34.110 -19.952 -20.723  0.00  0.00    +0.000 C 
ATOM     11  C   UNL     1      36.730 -20.533 -19.958  0.00  0.00    +0.000 C 
ATOM     12  C   UNL     1      34.368 -21.034 -19.882  0.00  0.00    +0.000 C 
ATOM     13  C   UNL     1      35.677 -21.324 -19.500  0.00  0.00    +0.000 C 
ENDBRANCH   3   8
BRANCH   2  14
ATOM     14  C   UNL     1      34.101 -14.729 -24.653  0.00  0.00    +0.121 C 
ATOM     15  C   UNL     1      33.241 -15.090 -25.881  0.00  0.00    +0.016 C 
BRANCH  14  17
ATOM     16  O   UNL     1      32.288 -13.568 -23.500  0.00  0.00    -0.250 OA
ATOM     17  C   UNL     1      33.434 -13.553 -23.930  0.00  0.00    +0.317 C 
BRANCH  17  18
ATOM     18  O   UNL     1      34.244 -12.468 -23.816  0.00  0.00    -0.480 OA
ATOM     19  H   UNL     1      35.056 -12.437 -24.284  0.00  0.00    +0.295 HD
ENDBRANCH  17  18
ENDBRANCH  14  17
ENDBRANCH   2  14
TORSDOF 4
ENDMDL
MODEL 3
REMARK VINA RESULT:      -9.4      3.799      6.923
REMARK  Name = 3394
REMARK  4 active torsions:
REMARK  status: ('A' for Active; 'I' for Inactive)
REMARK    1  A    between atoms: C_2  and  C_14
REMARK    2  A    between atoms: C_3  and  C_8
REMARK    3  A    between atoms: C_14  and  C_17
REMARK    4  A    between atoms: C_17  and  O_18
REMARK                            x       y       z     vdW  Elec       q    Type
REMARK                         _______ _______ _______ _____ _____    ______ ____
ROOT
ATOM      1  F   UNL     1      37.246 -18.611 -21.453  0.00  0.00    -0.204 F 
ATOM      2  C   UNL     1      35.061 -21.044 -19.868  0.00  0.00    -0.010 C 
ATOM      3  C   UNL     1      34.871 -18.707 -21.379  0.00  0.00    +0.027 C 
ATOM      4  C   UNL     1      36.218 -20.393 -20.295  0.00  0.00    +0.026 C 
ATOM      5  C   UNL     1      33.808 -20.527 -20.198  0.00  0.00    -0.004 C 
ATOM      6  C   UNL     1      36.123 -19.225 -21.051  0.00  0.00    +0.140 C 
ATOM      7  C   UNL     1      33.713 -19.358 -20.953  0.00  0.00    +0.002 C 
ENDROOT
BRANCH   3   8
ATOM      8  C   UNL     1      34.767 -17.495 -22.163  0.00  0.00    +0.002 C 
ATOM      9  C   UNL     1      34.825 -17.557 -23.555  0.00  0.00    +0.000 C 
ATOM     10  C   UNL     1      34.610 -16.264 -21.525  0.00  0.00    +0.000 C 
ATOM     11  C   UNL     1      34.727 -16.387 -24.310  0.00  0.00    +0.000 C 
ATOM     12  C   UNL     1      34.511 -15.096 -22.280  0.00  0.00    +0.000 C 
ATOM     13  C   UNL     1      34.570 -15.157 -23.671  0.00  0.00    +0.000 C 
ENDBRANCH   3   8
BRANCH   2  14
ATOM     14  C   UNL     1      35.162 -22.294 -19.061  0.00  0.00    +0.121 C 
ATOM     15  C   UNL     1      35.686 -22.073 -17.628  0.00  0.00    +0.016 C 
BRANCH  14  17
ATOM     16  O   UNL     1      32.867 -22.680 -18.321  0.00  0.00    -0.250 OA
ATOM     17  C   UNL     1      33.833 -23.053 -18.973  0.00  0.00    +0.317 C 
BRANCH  17  18
ATOM     18  O   UNL     1      33.829 -24.207 -19.692  0.00  0.00    -0.480 OA
ATOM     19  H   UNL     1      34.365 -24.285 -20.457  0.00  0.00    +0.295 HD
ENDBRANCH  17  18
ENDBRANCH  14  17
ENDBRANCH   2  14
TORSDOF 4
ENDMDL
MODEL 4
REMARK VINA RESULT:      -9.0      4.126      7.327
REMARK  Name = 3394
REMARK  4 active torsions:
REMARK  status: ('A' for Active; 'I' for Inactive)
REMARK    1  A    between atoms: C_2  and  C_14
REMARK    2  A    between atoms: C_3  and  C_8
REMARK    3  A    between atoms: C_14  and  C_17
REMARK    4  A    between atoms: C_17  and  O_18
REMARK                            x       y       z     vdW  Elec       q    Type
REMARK                         _______ _______ _______ _____ _____    ______ ____
ROOT
ATOM      1  F   UNL     1      36.858 -20.286 -20.413  0.00  0.00    -0.204 F 
ATOM      2  C   UNL     1      34.105 -22.006 -18.779  0.00  0.00    -0.010 C 
ATOM      3  C   UNL     1      34.512 -20.009 -20.685  0.00  0.00    +0.027 C 
ATOM      4  C   UNL     1      35.401 -21.632 -19.132  0.00  0.00    +0.026 C 
ATOM      5  C   UNL     1      33.012 -21.382 -19.379  0.00  0.00    -0.004 C 
ATOM      6  C   UNL     1      35.605 -20.634 -20.085  0.00  0.00    +0.140 C 
ATOM      7  C   UNL     1      33.214 -20.383 -20.332  0.00  0.00    +0.002 C 
ENDROOT
BRANCH   3   8
ATOM      8  C   UNL     1      34.718 -18.973 -21.673  0.00  0.00    +0.002 C 
ATOM      9  C   UNL     1      34.834 -17.642 -21.275  0.00  0.00    +0.000 C 
ATOM     10  C   UNL     1      34.798 -19.307 -23.026  0.00  0.00    +0.000 C 
ATOM     11  C   UNL     1      35.031 -16.643 -22.230  0.00  0.00    +0.000 C 
ATOM     12  C   UNL     1      34.995 -18.308 -23.979  0.00  0.00    +0.000 C 
ATOM     13  C   UNL     1      35.112 -16.977 -23.582  0.00  0.00    +0.000 C 
ENDBRANCH   3   8
BRANCH   2  14
ATOM     14  C   UNL     1      33.887 -23.074 -17.761  0.00  0.00    +0.121 C 
ATOM     15  C   UNL     1      34.988 -23.145 -16.684  0.00  0.00    +0.016 C 
BRANCH  14  17
ATOM     16  O   UNL     1      31.477 -22.706 -17.622  0.00  0.00    -0.250 OA
ATOM     17  C   UNL     1      32.532 -22.952 -17.054  0.00  0.00    +0.317 C 
BRANCH  17  18
ATOM     18  O   UNL     1      32.615 -23.134 -15.709  0.00  0.00    -0.480 OA
ATOM     19  H   UNL     1      32.812 -23.982 -15.362  0.00  0.00    +0.295 HD
ENDBRANCH  17  18
ENDBRANCH  14  17
ENDBRANCH   2  14
TORSDOF 4
ENDMDL
MODEL 5
REMARK VINA RESULT:      -9.0      1.603      2.362
REMARK  Name = 3394
REMARK  4 active torsions:
REMARK  status: ('A' for Active; 'I' for Inactive)
REMARK    1  A    between atoms: C_2  and  C_14
REMARK    2  A    between atoms: C_3  and  C_8
REMARK    3  A    between atoms: C_14  and  C_17
REMARK    4  A    between atoms: C_17  and  O_18
REMARK                            x       y       z     vdW  Elec       q    Type
REMARK                         _______ _______ _______ _____ _____    ______ ____
ROOT
ATOM      1  F   UNL     1      35.312 -18.539 -24.428  0.00  0.00    -0.204 F 
ATOM      2  C   UNL     1      33.627 -15.342 -24.050  0.00  0.00    -0.010 C 
ATOM      3  C   UNL     1      34.552 -17.440 -22.461  0.00  0.00    +0.027 C 
ATOM      4  C   UNL     1      34.251 -16.440 -24.639  0.00  0.00    +0.026 C 
ATOM      5  C   UNL     1      33.466 -15.291 -22.665  0.00  0.00    -0.004 C 
ATOM      6  C   UNL     1      34.714 -17.490 -23.845  0.00  0.00    +0.140 C 
ATOM      7  C   UNL     1      33.928 -16.340 -21.870  0.00  0.00    +0.002 C 
ENDROOT
BRANCH   3   8
ATOM      8  C   UNL     1      35.031 -18.525 -21.633  0.00  0.00    +0.002 C 
ATOM      9  C   UNL     1      34.131 -19.455 -21.112  0.00  0.00    +0.000 C 
ATOM     10  C   UNL     1      36.393 -18.642 -21.355  0.00  0.00    +0.000 C 
ATOM     11  C   UNL     1      34.592 -20.500 -20.311  0.00  0.00    +0.000 C 
ATOM     12  C   UNL     1      36.854 -19.688 -20.555  0.00  0.00    +0.000 C 
ATOM     13  C   UNL     1      35.955 -20.616 -20.034  0.00  0.00    +0.000 C 
ENDBRANCH   3   8
BRANCH   2  14
ATOM     14  C   UNL     1      33.133 -14.220 -24.899  0.00  0.00    +0.121 C 
ATOM     15  C   UNL     1      33.907 -12.900 -24.705  0.00  0.00    +0.016 C 
BRANCH  14  17
ATOM     16  O   UNL     1      33.815 -13.984 -27.233  0.00  0.00    -0.250 OA
ATOM     17  C   UNL     1      33.135 -14.561 -26.394  0.00  0.00    +0.317 C 
BRANCH  17  18
ATOM     18  O   UNL     1      32.288 -15.576 -26.709  0.00  0.00    -0.480 OA
ATOM     19  H   UNL     1      31.364 -15.469 -26.595  0.00  0.00    +0.295 HD
ENDBRANCH  17  18
ENDBRANCH  14  17
ENDBRANCH   2  14
TORSDOF 4
ENDMDL
MODEL 6
REMARK VINA RESULT:      -8.7      2.377      3.944
REMARK  Name = 3394
REMARK  4 active torsions:
REMARK  status: ('A' for Active; 'I' for Inactive)
REMARK    1  A    between atoms: C_2  and  C_14
REMARK    2  A    between atoms: C_3  and  C_8
REMARK    3  A    between atoms: C_14  and  C_17
REMARK    4  A    between atoms: C_17  and  O_18
REMARK                            x       y       z     vdW  Elec       q    Type
REMARK                         _______ _______ _______ _____ _____    ______ ____
ROOT
ATOM      1  F   UNL     1      32.651 -20.834 -19.981  0.00  0.00    -0.204 F 
ATOM      2  C   UNL     1      35.383 -19.290 -21.814  0.00  0.00    -0.010 C 
ATOM      3  C   UNL     1      34.999 -20.994 -19.639  0.00  0.00    +0.027 C 
ATOM      4  C   UNL     1      34.092 -19.648 -21.427  0.00  0.00    +0.026 C 
ATOM      5  C   UNL     1      36.483 -19.785 -21.113  0.00  0.00    -0.004 C 
ATOM      6  C   UNL     1      33.899 -20.500 -20.339  0.00  0.00    +0.140 C 
ATOM      7  C   UNL     1      36.291 -20.637 -20.026  0.00  0.00    +0.002 C 
ENDROOT
BRANCH   3   8
ATOM      8  C   UNL     1      34.805 -21.879 -18.510  0.00  0.00    +0.002 C 
ATOM      9  C   UNL     1      33.608 -22.581 -18.371  0.00  0.00    +0.000 C 
ATOM     10  C   UNL     1      35.816 -22.028 -17.560  0.00  0.00    +0.000 C 
ATOM     11  C   UNL     1      33.421 -23.432 -17.281  0.00  0.00    +0.000 C 
ATOM     12  C   UNL     1      35.628 -22.880 -16.471  0.00  0.00    +0.000 C 
ATOM     13  C   UNL     1      34.432 -23.581 -16.332  0.00  0.00    +0.000 C 
ENDBRANCH   3   8
BRANCH   2  14
ATOM     14  C   UNL     1      35.588 -18.379 -22.977  0.00  0.00    +0.121 C 
ATOM     15  C   UNL     1      34.694 -18.703 -24.191  0.00  0.00    +0.016 C 
BRANCH  14  17
ATOM     16  O   UNL     1      35.069 -16.500 -21.505  0.00  0.00    -0.250 OA
ATOM     17  C   UNL     1      35.389 -16.902 -22.616  0.00  0.00    +0.317 C 
BRANCH  17  18
ATOM     18  O   UNL     1      35.594 -16.065 -23.667  0.00  0.00    -0.480 OA
ATOM     19  H   UNL     1      35.534 -15.138 -23.547  0.00  0.00    +0.295 HD
ENDBRANCH  17  18
ENDBRANCH  14  17
ENDBRANCH   2  14
TORSDOF 4
ENDMDL
MODEL 7
REMARK VINA RESULT:      -8.6      4.919      9.151
REMARK  Name = 3394
REMARK  4 active torsions:
REMARK  status: ('A' for Active; 'I' for Inactive)
REMARK    1  A    between atoms: C_2  and  C_14
REMARK    2  A    between atoms: C_3  and  C_8
REMARK    3  A    between atoms: C_14  and  C_17
REMARK    4  A    between atoms: C_17  and  O_18
REMARK                            x       y       z     vdW  Elec       q    Type
REMARK                         _______ _______ _______ _____ _____    ______ ____
ROOT
ATOM      1  F   UNL     1      30.734 -11.054 -21.190  0.00  0.00    -0.204 F 
ATOM      2  C   UNL     1      32.943 -13.070 -23.254  0.00  0.00    -0.010 C 
ATOM      3  C   UNL     1      32.369 -10.382 -22.781  0.00  0.00    +0.027 C 
ATOM      4  C   UNL     1      31.965 -12.719 -22.324  0.00  0.00    +0.026 C 
ATOM      5  C   UNL     1      33.635 -12.077 -23.948  0.00  0.00    -0.004 C 
ATOM      6  C   UNL     1      31.678 -11.375 -22.087  0.00  0.00    +0.140 C 
ATOM      7  C   UNL     1      33.348 -10.733 -23.711  0.00  0.00    +0.002 C 
ENDROOT
BRANCH   3   8
ATOM      8  C   UNL     1      32.075  -8.986 -22.539  0.00  0.00    +0.002 C 
ATOM      9  C   UNL     1      31.278  -8.274 -23.436  0.00  0.00    +0.000 C 
ATOM     10  C   UNL     1      32.589  -8.351 -21.408  0.00  0.00    +0.000 C 
ATOM     11  C   UNL     1      30.996  -6.928 -23.203  0.00  0.00    +0.000 C 
ATOM     12  C   UNL     1      32.307  -7.005 -21.175  0.00  0.00    +0.000 C 
ATOM     13  C   UNL     1      31.511  -6.294 -22.072  0.00  0.00    +0.000 C 
ENDBRANCH   3   8
BRANCH   2  14
ATOM     14  C   UNL     1      33.251 -14.507 -23.507  0.00  0.00    +0.121 C 
ATOM     15  C   UNL     1      33.415 -14.859 -24.999  0.00  0.00    +0.016 C 
BRANCH  14  17
ATOM     16  O   UNL     1      34.729 -14.763 -21.579  0.00  0.00    -0.250 OA
ATOM     17  C   UNL     1      34.502 -14.986 -22.761  0.00  0.00    +0.317 C 
BRANCH  17  18
ATOM     18  O   UNL     1      35.359 -15.685 -23.552  0.00  0.00    -0.480 OA
ATOM     19  H   UNL     1      35.712 -16.501 -23.255  0.00  0.00    +0.295 HD
ENDBRANCH  17  18
ENDBRANCH  14  17
ENDBRANCH   2  14
TORSDOF 4
ENDMDL
MODEL 8
REMARK VINA RESULT:      -8.5      1.885      2.443
REMARK  Name = 3394
REMARK  4 active torsions:
REMARK  status: ('A' for Active; 'I' for Inactive)
REMARK    1  A    between atoms: C_2  and  C_14
REMARK    2  A    between atoms: C_3  and  C_8
REMARK    3  A    between atoms: C_14  and  C_17
REMARK    4  A    between atoms: C_17  and  O_18
REMARK                            x       y       z     vdW  Elec       q    Type
REMARK                         _______ _______ _______ _____ _____    ______ ____
ROOT
ATOM      1  F   UNL     1      33.308 -16.509 -20.464  0.00  0.00    -0.204 F 
ATOM      2  C   UNL     1      33.590 -15.201 -23.843  0.00  0.00    -0.010 C 
ATOM      3  C   UNL     1      34.501 -17.364 -22.335  0.00  0.00    +0.027 C 
ATOM      4  C   UNL     1      33.219 -15.324 -22.505  0.00  0.00    +0.026 C 
ATOM      5  C   UNL     1      34.416 -16.160 -24.429  0.00  0.00    -0.004 C 
ATOM      6  C   UNL     1      33.674 -16.406 -21.751  0.00  0.00    +0.140 C 
ATOM      7  C   UNL     1      34.873 -17.241 -23.675  0.00  0.00    +0.002 C 
ENDROOT
BRANCH   3   8
ATOM      8  C   UNL     1      34.977 -18.488 -21.558  0.00  0.00    +0.002 C 
ATOM      9  C   UNL     1      36.337 -18.619 -21.280  0.00  0.00    +0.000 C 
ATOM     10  C   UNL     1      34.073 -19.441 -21.086  0.00  0.00    +0.000 C 
ATOM     11  C   UNL     1      36.795 -19.704 -20.531  0.00  0.00    +0.000 C 
ATOM     12  C   UNL     1      34.531 -20.525 -20.338  0.00  0.00    +0.000 C 
ATOM     13  C   UNL     1      35.891 -20.657 -20.060  0.00  0.00    +0.000 C 
ENDBRANCH   3   8
BRANCH   2  14
ATOM     14  C   UNL     1      33.102 -14.045 -24.649  0.00  0.00    +0.121 C 
ATOM     15  C   UNL     1      33.921 -12.754 -24.452  0.00  0.00    +0.016 C 
BRANCH  14  17
ATOM     16  O   UNL     1      32.664 -15.413 -26.625  0.00  0.00    -0.250 OA
ATOM     17  C   UNL     1      33.046 -14.351 -26.151  0.00  0.00    +0.317 C 
BRANCH  17  18
ATOM     18  O   UNL     1      33.477 -13.318 -26.922  0.00  0.00    -0.480 OA
ATOM     19  H   UNL     1      33.569 -12.462 -26.551  0.00  0.00    +0.295 HD
ENDBRANCH  17  18
ENDBRANCH  14  17
ENDBRANCH   2  14
TORSDOF 4
ENDMDL
MODEL 9
REMARK VINA RESULT:      -8.5      7.440     10.969
REMARK  Name = 3394
REMARK  4 active torsions:
REMARK  status: ('A' for Active; 'I' for Inactive)
REMARK    1  A    between atoms: C_2  and  C_14
REMARK    2  A    between atoms: C_3  and  C_8
REMARK    3  A    between atoms: C_14  and  C_17
REMARK    4  A    between atoms: C_17  and  O_18
REMARK                            x       y       z     vdW  Elec       q    Type
REMARK                         _______ _______ _______ _____ _____    ______ ____
ROOT
ATOM      1  F   UNL     1      38.202 -22.874 -16.395  0.00  0.00    -0.204 F 
ATOM      2  C   UNL     1      36.284 -24.149 -13.584  0.00  0.00    -0.010 C 
ATOM      3  C   UNL     1      35.847 -22.975 -16.077  0.00  0.00    +0.027 C 
ATOM      4  C   UNL     1      37.367 -23.795 -14.388  0.00  0.00    +0.026 C 
ATOM      5  C   UNL     1      34.982 -23.916 -14.027  0.00  0.00    -0.004 C 
ATOM      6  C   UNL     1      37.149 -23.208 -15.635  0.00  0.00    +0.140 C 
ATOM      7  C   UNL     1      34.763 -23.329 -15.273  0.00  0.00    +0.002 C 
ENDROOT
BRANCH   3   8
ATOM      8  C   UNL     1      35.616 -22.366 -17.369  0.00  0.00    +0.002 C 
ATOM      9  C   UNL     1      36.625 -21.621 -17.980  0.00  0.00    +0.000 C 
ATOM     10  C   UNL     1      34.383 -22.523 -18.003  0.00  0.00    +0.000 C 
ATOM     11  C   UNL     1      36.400 -21.033 -19.225  0.00  0.00    +0.000 C 
ATOM     12  C   UNL     1      34.160 -21.935 -19.248  0.00  0.00    +0.000 C 
ATOM     13  C   UNL     1      35.167 -21.190 -19.859  0.00  0.00    +0.000 C 
ENDBRANCH   3   8
BRANCH   2  14
ATOM     14  C   UNL     1      36.517 -24.777 -12.252  0.00  0.00    +0.121 C 
ATOM     15  C   UNL     1      37.713 -25.749 -12.219  0.00  0.00    +0.016 C 
BRANCH  14  17
ATOM     16  O   UNL     1      37.314 -22.690 -11.265  0.00  0.00    -0.250 OA
ATOM     17  C   UNL     1      36.707 -23.745 -11.134  0.00  0.00    +0.317 C 
BRANCH  17  18
ATOM     18  O   UNL     1      36.138 -24.122  -9.959  0.00  0.00    -0.480 OA
ATOM     19  H   UNL     1      35.925 -23.477  -9.312  0.00  0.00    +0.295 HD
ENDBRANCH  17  18
ENDBRANCH  14  17
ENDBRANCH   2  14
TORSDOF 4
ENDMDL
