MODEL 1
REMARK VINA RESULT:      -4.6      0.000      0.000
REMARK  Name = 612
REMARK  3 active torsions:
REMARK  status: ('A' for Active; 'I' for Inactive)
REMARK    1  A    between atoms: C_1  and  O_3
REMARK    2  A    between atoms: C_1  and  C_6
REMARK    3  A    between atoms: C_6  and  O_7
REMARK                            x       y       z     vdW  Elec       q    Type
REMARK                         _______ _______ _______ _____ _____    ______ ____
ROOT
ATOM      1  C   UNL     1      38.740 -25.710 -14.487  0.00  0.00    +0.209 C 
ATOM      2  C   UNL     1      38.539 -25.445 -13.005  0.00  0.00    +0.044 C 
ENDROOT
BRANCH   1   3
ATOM      3  O   UNL     1      38.498 -27.089 -14.724  0.00  0.00    -0.374 OA
ATOM      4  H   UNL     1      37.629 -27.331 -14.365  0.00  0.00    +0.211 HD
ENDBRANCH   1   3
BRANCH   1   6
ATOM      5  O   UNL     1      40.949 -24.721 -14.264  0.00  0.00    -0.248 OA
ATOM      6  C   UNL     1      40.158 -25.393 -14.914  0.00  0.00    +0.341 C 
BRANCH   6   7
ATOM      7  O   UNL     1      40.476 -25.962 -16.105  0.00  0.00    -0.479 OA
ATOM      8  H   UNL     1      39.904 -26.597 -16.488  0.00  0.00    +0.295 HD
ENDBRANCH   6   7
ENDBRANCH   1   6
TORSDOF 3
ENDMDL
MODEL 2
REMARK VINA RESULT:      -4.4      4.647      5.617
REMARK  Name = 612
REMARK  3 active torsions:
REMARK  status: ('A' for Active; 'I' for Inactive)
REMARK    1  A    between atoms: C_1  and  O_3
REMARK    2  A    between atoms: C_1  and  C_6
REMARK    3  A    between atoms: C_6  and  O_7
REMARK                            x       y       z     vdW  Elec       q    Type
REMARK                         _______ _______ _______ _____ _____    ______ ____
ROOT
ATOM      1  C   UNL     1      36.783 -23.530 -11.806  0.00  0.00    +0.209 C 
ATOM      2  C   UNL     1      38.013 -24.382 -12.062  0.00  0.00    +0.044 C 
ENDROOT
BRANCH   1   3
ATOM      3  O   UNL     1      37.170 -22.430 -10.996  0.00  0.00    -0.374 OA
ATOM      4  H   UNL     1      37.197 -21.624 -11.536  0.00  0.00    +0.211 HD
ENDBRANCH   1   3
BRANCH   1   6
ATOM      5  O   UNL     1      35.599 -24.362  -9.854  0.00  0.00    -0.248 OA
ATOM      6  C   UNL     1      35.715 -24.313 -11.072  0.00  0.00    +0.341 C 
BRANCH   6   7
ATOM      7  O   UNL     1      34.868 -24.950 -11.921  0.00  0.00    -0.479 OA
ATOM      8  H   UNL     1      34.939 -24.810 -12.845  0.00  0.00    +0.295 HD
ENDBRANCH   6   7
ENDBRANCH   1   6
TORSDOF 3
ENDMDL
MODEL 3
REMARK VINA RESULT:      -4.3     12.123     12.933
REMARK  Name = 612
REMARK  3 active torsions:
REMARK  status: ('A' for Active; 'I' for Inactive)
REMARK    1  A    between atoms: C_1  and  O_3
REMARK    2  A    between atoms: C_1  and  C_6
REMARK    3  A    between atoms: C_6  and  O_7
REMARK                            x       y       z     vdW  Elec       q    Type
REMARK                         _______ _______ _______ _____ _____    ______ ____
ROOT
ATOM      1  C   UNL     1      27.885 -23.190 -16.420  0.00  0.00    +0.209 C 
ATOM      2  C   UNL     1      29.302 -22.644 -16.420  0.00  0.00    +0.044 C 
ENDROOT
BRANCH   1   3
ATOM      3  O   UNL     1      27.721 -23.987 -17.583  0.00  0.00    -0.374 OA
ATOM      4  H   UNL     1      27.220 -24.788 -17.360  0.00  0.00    +0.211 HD
ENDBRANCH   1   3
BRANCH   1   6
ATOM      5  O   UNL     1      26.809 -21.208 -17.324  0.00  0.00    -0.248 OA
ATOM      6  C   UNL     1      26.865 -22.072 -16.459  0.00  0.00    +0.341 C 
BRANCH   6   7
ATOM      7  O   UNL     1      25.986 -22.141 -15.425  0.00  0.00    -0.479 OA
ATOM      8  H   UNL     1      25.136 -21.757 -15.507  0.00  0.00    +0.295 HD
ENDBRANCH   6   7
ENDBRANCH   1   6
TORSDOF 3
ENDMDL
MODEL 4
REMARK VINA RESULT:      -4.1      2.299      3.162
REMARK  Name = 612
REMARK  3 active torsions:
REMARK  status: ('A' for Active; 'I' for Inactive)
REMARK    1  A    between atoms: C_1  and  O_3
REMARK    2  A    between atoms: C_1  and  C_6
REMARK    3  A    between atoms: C_6  and  O_7
REMARK                            x       y       z     vdW  Elec       q    Type
REMARK                         _______ _______ _______ _____ _____    ______ ____
ROOT
ATOM      1  C   UNL     1      37.144 -25.790 -13.160  0.00  0.00    +0.209 C 
ATOM      2  C   UNL     1      38.434 -25.037 -12.889  0.00  0.00    +0.044 C 
ENDROOT
BRANCH   1   3
ATOM      3  O   UNL     1      36.836 -26.562 -12.010  0.00  0.00    -0.374 OA
ATOM      4  H   UNL     1      37.658 -26.830 -11.570  0.00  0.00    +0.211 HD
ENDBRANCH   1   3
BRANCH   1   6
ATOM      5  O   UNL     1      38.351 -27.214 -14.716  0.00  0.00    -0.248 OA
ATOM      6  C   UNL     1      37.293 -26.728 -14.340  0.00  0.00    +0.341 C 
BRANCH   6   7
ATOM      7  O   UNL     1      36.102 -26.998 -14.936  0.00  0.00    -0.479 OA
ATOM      8  H   UNL     1      35.530 -27.642 -14.568  0.00  0.00    +0.295 HD
ENDBRANCH   6   7
ENDBRANCH   1   6
TORSDOF 3
ENDMDL
MODEL 5
REMARK VINA RESULT:      -4.1     10.254     11.240
REMARK  Name = 612
REMARK  3 active torsions:
REMARK  status: ('A' for Active; 'I' for Inactive)
REMARK    1  A    between atoms: C_1  and  O_3
REMARK    2  A    between atoms: C_1  and  C_6
REMARK    3  A    between atoms: C_6  and  O_7
REMARK                            x       y       z     vdW  Elec       q    Type
REMARK                         _______ _______ _______ _____ _____    ______ ____
ROOT
ATOM      1  C   UNL     1      41.138 -14.314 -16.265  0.00  0.00    +0.209 C 
ATOM      2  C   UNL     1      41.357 -14.316 -17.768  0.00  0.00    +0.044 C 
ENDROOT
BRANCH   1   3
ATOM      3  O   UNL     1      42.150 -13.512 -15.674  0.00  0.00    -0.374 OA
ATOM      4  H   UNL     1      42.157 -13.656 -14.715  0.00  0.00    +0.211 HD
ENDBRANCH   1   3
BRANCH   1   6
ATOM      5  O   UNL     1      42.259 -16.390 -15.684  0.00  0.00    -0.248 OA
ATOM      6  C   UNL     1      41.240 -15.712 -15.693  0.00  0.00    +0.341 C 
BRANCH   6   7
ATOM      7  O   UNL     1      40.064 -16.137 -15.160  0.00  0.00    -0.479 OA
ATOM      8  H   UNL     1      39.871 -17.053 -15.124  0.00  0.00    +0.295 HD
ENDBRANCH   6   7
ENDBRANCH   1   6
TORSDOF 3
ENDMDL
MODEL 6
REMARK VINA RESULT:      -4.0      4.087      5.203
REMARK  Name = 612
REMARK  3 active torsions:
REMARK  status: ('A' for Active; 'I' for Inactive)
REMARK    1  A    between atoms: C_1  and  O_3
REMARK    2  A    between atoms: C_1  and  C_6
REMARK    3  A    between atoms: C_6  and  O_7
REMARK                            x       y       z     vdW  Elec       q    Type
REMARK                         _______ _______ _______ _____ _____    ______ ____
ROOT
ATOM      1  C   UNL     1      36.613 -25.097 -12.360  0.00  0.00    +0.209 C 
ATOM      2  C   UNL     1      36.209 -24.993 -13.820  0.00  0.00    +0.044 C 
ENDROOT
BRANCH   1   3
ATOM      3  O   UNL     1      36.854 -26.465 -12.067  0.00  0.00    -0.374 OA
ATOM      4  H   UNL     1      36.128 -26.813 -11.526  0.00  0.00    +0.211 HD
ENDBRANCH   1   3
BRANCH   1   6
ATOM      5  O   UNL     1      35.297 -25.019 -10.318  0.00  0.00    -0.248 OA
ATOM      6  C   UNL     1      35.510 -24.600 -11.448  0.00  0.00    +0.341 C 
BRANCH   6   7
ATOM      7  O   UNL     1      34.782 -23.604 -12.017  0.00  0.00    -0.479 OA
ATOM      8  H   UNL     1      34.841 -23.450 -12.939  0.00  0.00    +0.295 HD
ENDBRANCH   6   7
ENDBRANCH   1   6
TORSDOF 3
ENDMDL
MODEL 7
REMARK VINA RESULT:      -4.0     10.815     11.666
REMARK  Name = 612
REMARK  3 active torsions:
REMARK  status: ('A' for Active; 'I' for Inactive)
REMARK    1  A    between atoms: C_1  and  O_3
REMARK    2  A    between atoms: C_1  and  C_6
REMARK    3  A    between atoms: C_6  and  O_7
REMARK                            x       y       z     vdW  Elec       q    Type
REMARK                         _______ _______ _______ _____ _____    ______ ____
ROOT
ATOM      1  C   UNL     1      28.950 -23.148 -15.706  0.00  0.00    +0.209 C 
ATOM      2  C   UNL     1      30.407 -22.976 -16.096  0.00  0.00    +0.044 C 
ENDROOT
BRANCH   1   3
ATOM      3  O   UNL     1      28.780 -24.468 -15.212  0.00  0.00    -0.374 OA
ATOM      4  H   UNL     1      27.883 -24.778 -15.419  0.00  0.00    +0.211 HD
ENDBRANCH   1   3
BRANCH   1   6
ATOM      5  O   UNL     1      27.663 -23.863 -17.640  0.00  0.00    -0.248 OA
ATOM      6  C   UNL     1      28.036 -22.962 -16.899  0.00  0.00    +0.341 C 
BRANCH   6   7
ATOM      7  O   UNL     1      27.647 -21.670 -17.052  0.00  0.00    -0.479 OA
ATOM      8  H   UNL     1      26.763 -21.473 -17.294  0.00  0.00    +0.295 HD
ENDBRANCH   6   7
ENDBRANCH   1   6
TORSDOF 3
ENDMDL
MODEL 8
REMARK VINA RESULT:      -3.9      9.769     10.632
REMARK  Name = 612
REMARK  3 active torsions:
REMARK  status: ('A' for Active; 'I' for Inactive)
REMARK    1  A    between atoms: C_1  and  O_3
REMARK    2  A    between atoms: C_1  and  C_6
REMARK    3  A    between atoms: C_6  and  O_7
REMARK                            x       y       z     vdW  Elec       q    Type
REMARK                         _______ _______ _______ _____ _____    ______ ____
ROOT
ATOM      1  C   UNL     1      40.999 -14.997 -15.975  0.00  0.00    +0.209 C 
ATOM      2  C   UNL     1      41.914 -13.786 -16.000  0.00  0.00    +0.044 C 
ENDROOT
BRANCH   1   3
ATOM      3  O   UNL     1      40.488 -15.135 -14.657  0.00  0.00    -0.374 OA
ATOM      4  H   UNL     1      39.980 -15.959 -14.592  0.00  0.00    +0.211 HD
ENDBRANCH   1   3
BRANCH   1   6
ATOM      5  O   UNL     1      41.230 -17.290 -16.744  0.00  0.00    -0.248 OA
ATOM      6  C   UNL     1      41.751 -16.262 -16.332  0.00  0.00    +0.341 C 
BRANCH   6   7
ATOM      7  O   UNL     1      43.092 -16.127 -16.165  0.00  0.00    -0.479 OA
ATOM      8  H   UNL     1      43.426 -15.561 -15.498  0.00  0.00    +0.295 HD
ENDBRANCH   6   7
ENDBRANCH   1   6
TORSDOF 3
ENDMDL
MODEL 9
REMARK VINA RESULT:      -3.9      2.022      3.231
REMARK  Name = 612
REMARK  3 active torsions:
REMARK  status: ('A' for Active; 'I' for Inactive)
REMARK    1  A    between atoms: C_1  and  O_3
REMARK    2  A    between atoms: C_1  and  C_6
REMARK    3  A    between atoms: C_6  and  O_7
REMARK                            x       y       z     vdW  Elec       q    Type
REMARK                         _______ _______ _______ _____ _____    ______ ____
ROOT
ATOM      1  C   UNL     1      37.716 -26.260 -14.353  0.00  0.00    +0.209 C 
ATOM      2  C   UNL     1      38.313 -24.864 -14.302  0.00  0.00    +0.044 C 
ENDROOT
BRANCH   1   3
ATOM      3  O   UNL     1      38.749 -27.166 -14.712  0.00  0.00    -0.374 OA
ATOM      4  H   UNL     1      39.491 -27.071 -14.095  0.00  0.00    +0.211 HD
ENDBRANCH   1   3
BRANCH   1   6
ATOM      5  O   UNL     1      35.634 -25.623 -15.431  0.00  0.00    -0.248 OA
ATOM      6  C   UNL     1      36.618 -26.350 -15.392  0.00  0.00    +0.341 C 
BRANCH   6   7
ATOM      7  O   UNL     1      36.853 -27.326 -16.306  0.00  0.00    -0.479 OA
ATOM      8  H   UNL     1      37.708 -27.702 -16.379  0.00  0.00    +0.295 HD
ENDBRANCH   6   7
ENDBRANCH   1   6
TORSDOF 3
ENDMDL
