MODEL 1
REMARK VINA RESULT:      -7.1      0.000      0.000
REMARK  Name = 24894153
REMARK  0 active torsions:
REMARK  status: ('A' for Active; 'I' for Inactive)
REMARK                            x       y       z     vdW  Elec       q    Type
REMARK                         _______ _______ _______ _____ _____    ______ ____
ROOT
ATOM      1  S   UNL     1      34.210 -14.891 -23.080  0.00  0.00    -0.081 S 
ATOM      2  O   UNL     1      35.314 -17.757 -20.681  0.00  0.00    -0.476 OA
ATOM      3  N   UNL     1      35.094 -18.685 -23.732  0.00  0.00    -0.252 NA
ATOM      4  N   UNL     1      35.058 -16.906 -25.151  0.00  0.00    -0.342 N 
ATOM      5  C   UNL     1      35.987 -18.748 -21.455  0.00  0.00    +0.190 C 
ATOM      6  C   UNL     1      35.016 -19.369 -22.451  0.00  0.00    +0.170 C 
ATOM      7  C   UNL     1      34.902 -16.654 -21.355  0.00  0.00    +0.148 C 
ATOM      8  C   UNL     1      34.757 -16.495 -22.724  0.00  0.00    +0.094 C 
ATOM      9  C   UNL     1      36.480 -19.798 -20.461  0.00  0.00    +0.049 C 
ATOM     10  C   UNL     1      34.974 -17.399 -23.862  0.00  0.00    +0.130 C 
ATOM     11  C   UNL     1      34.527 -15.488 -20.621  0.00  0.00    +0.044 C 
ATOM     12  C   UNL     1      34.136 -14.456 -21.437  0.00  0.00    +0.039 C 
ATOM     13  H   UNL     1      35.203 -17.521 -25.905  0.00  0.00    +0.144 HD
ATOM     14  H   UNL     1      34.972 -15.939 -25.314  0.00  0.00    +0.144 HD
ENDROOT
TORSDOF 0
ENDMDL
MODEL 2
REMARK VINA RESULT:      -6.4      9.267     11.024
REMARK  Name = 24894153
REMARK  0 active torsions:
REMARK  status: ('A' for Active; 'I' for Inactive)
REMARK                            x       y       z     vdW  Elec       q    Type
REMARK                         _______ _______ _______ _____ _____    ______ ____
ROOT
ATOM      1  S   UNL     1      35.275 -22.846 -15.346  0.00  0.00    -0.081 S 
ATOM      2  O   UNL     1      38.937 -24.140 -15.022  0.00  0.00    -0.476 OA
ATOM      3  N   UNL     1      37.004 -25.247 -12.729  0.00  0.00    -0.252 NA
ATOM      4  N   UNL     1      34.811 -24.989 -13.282  0.00  0.00    -0.342 N 
ATOM      5  C   UNL     1      38.916 -25.341 -14.253  0.00  0.00    +0.190 C 
ATOM      6  C   UNL     1      38.439 -25.037 -12.839  0.00  0.00    +0.170 C 
ATOM      7  C   UNL     1      37.730 -23.575 -15.278  0.00  0.00    +0.148 C 
ATOM      8  C   UNL     1      36.523 -23.816 -14.639  0.00  0.00    +0.094 C 
ATOM      9  C   UNL     1      40.354 -25.857 -14.235  0.00  0.00    +0.049 C 
ATOM     10  C   UNL     1      36.141 -24.699 -13.528  0.00  0.00    +0.130 C 
ATOM     11  C   UNL     1      37.626 -22.582 -16.297  0.00  0.00    +0.044 C 
ATOM     12  C   UNL     1      36.347 -22.107 -16.441  0.00  0.00    +0.039 C 
ATOM     13  H   UNL     1      34.567 -25.581 -12.535  0.00  0.00    +0.144 HD
ATOM     14  H   UNL     1      34.109 -24.601 -13.853  0.00  0.00    +0.144 HD
ENDROOT
TORSDOF 0
ENDMDL
MODEL 3
REMARK VINA RESULT:      -6.4      2.910      4.723
REMARK  Name = 24894153
REMARK  0 active torsions:
REMARK  status: ('A' for Active; 'I' for Inactive)
REMARK                            x       y       z     vdW  Elec       q    Type
REMARK                         _______ _______ _______ _____ _____    ______ ____
ROOT
ATOM      1  S   UNL     1      34.928 -18.642 -23.253  0.00  0.00    -0.081 S 
ATOM      2  O   UNL     1      33.841 -15.068 -24.361  0.00  0.00    -0.476 OA
ATOM      3  N   UNL     1      34.119 -15.372 -21.191  0.00  0.00    -0.252 NA
ATOM      4  N   UNL     1      35.319 -17.221 -20.626  0.00  0.00    -0.342 N 
ATOM      5  C   UNL     1      34.176 -14.158 -23.315  0.00  0.00    +0.190 C 
ATOM      6  C   UNL     1      33.366 -14.488 -22.068  0.00  0.00    +0.170 C 
ATOM      7  C   UNL     1      34.198 -16.362 -24.163  0.00  0.00    +0.148 C 
ATOM      8  C   UNL     1      34.548 -16.976 -22.970  0.00  0.00    +0.094 C 
ATOM      9  C   UNL     1      33.819 -12.767 -23.834  0.00  0.00    +0.049 C 
ATOM     10  C   UNL     1      34.645 -16.489 -21.587  0.00  0.00    +0.130 C 
ATOM     11  C   UNL     1      34.204 -17.261 -25.270  0.00  0.00    +0.044 C 
ATOM     12  C   UNL     1      34.588 -18.530 -24.916  0.00  0.00    +0.039 C 
ATOM     13  H   UNL     1      35.377 -16.885 -19.703  0.00  0.00    +0.144 HD
ATOM     14  H   UNL     1      35.738 -18.079 -20.866  0.00  0.00    +0.144 HD
ENDROOT
TORSDOF 0
ENDMDL
MODEL 4
REMARK VINA RESULT:      -6.4      2.101      3.092
REMARK  Name = 24894153
REMARK  0 active torsions:
REMARK  status: ('A' for Active; 'I' for Inactive)
REMARK                            x       y       z     vdW  Elec       q    Type
REMARK                         _______ _______ _______ _____ _____    ______ ____
ROOT
ATOM      1  S   UNL     1      34.346 -16.092 -24.376  0.00  0.00    -0.081 S 
ATOM      2  O   UNL     1      34.813 -19.511 -22.566  0.00  0.00    -0.476 OA
ATOM      3  N   UNL     1      35.331 -16.998 -20.659  0.00  0.00    -0.252 NA
ATOM      4  N   UNL     1      34.470 -15.084 -21.541  0.00  0.00    -0.342 N 
ATOM      5  C   UNL     1      34.659 -19.296 -21.165  0.00  0.00    +0.190 C 
ATOM      6  C   UNL     1      35.769 -18.385 -20.659  0.00  0.00    +0.170 C 
ATOM      7  C   UNL     1      34.632 -18.426 -23.359  0.00  0.00    +0.148 C 
ATOM      8  C   UNL     1      34.633 -17.090 -22.990  0.00  0.00    +0.094 C 
ATOM      9  C   UNL     1      34.756 -20.673 -20.511  0.00  0.00    +0.049 C 
ATOM     10  C   UNL     1      34.826 -16.411 -21.701  0.00  0.00    +0.130 C 
ATOM     11  C   UNL     1      34.440 -18.611 -24.761  0.00  0.00    +0.044 C 
ATOM     12  C   UNL     1      34.267 -17.425 -25.430  0.00  0.00    +0.039 C 
ATOM     13  H   UNL     1      34.605 -14.640 -20.673  0.00  0.00    +0.144 HD
ATOM     14  H   UNL     1      34.084 -14.584 -22.296  0.00  0.00    +0.144 HD
ENDROOT
TORSDOF 0
ENDMDL
MODEL 5
REMARK VINA RESULT:      -6.4      2.481      4.570
REMARK  Name = 24894153
REMARK  0 active torsions:
REMARK  status: ('A' for Active; 'I' for Inactive)
REMARK                            x       y       z     vdW  Elec       q    Type
REMARK                         _______ _______ _______ _____ _____    ______ ____
ROOT
ATOM      1  S   UNL     1      34.927 -16.995 -22.921  0.00  0.00    -0.081 S 
ATOM      2  O   UNL     1      33.218 -13.890 -21.301  0.00  0.00    -0.476 OA
ATOM      3  N   UNL     1      33.278 -13.770 -24.495  0.00  0.00    -0.252 NA
ATOM      4  N   UNL     1      33.703 -15.812 -25.405  0.00  0.00    -0.342 N 
ATOM      5  C   UNL     1      32.363 -13.296 -22.275  0.00  0.00    +0.190 C 
ATOM      6  C   UNL     1      33.195 -12.773 -23.439  0.00  0.00    +0.170 C 
ATOM      7  C   UNL     1      33.860 -15.023 -21.683  0.00  0.00    +0.148 C 
ATOM      8  C   UNL     1      34.053 -15.501 -22.970  0.00  0.00    +0.094 C 
ATOM      9  C   UNL     1      31.648 -12.147 -21.568  0.00  0.00    +0.049 C 
ATOM     10  C   UNL     1      33.666 -14.991 -24.293  0.00  0.00    +0.130 C 
ATOM     11  C   UNL     1      34.461 -15.853 -20.690  0.00  0.00    +0.044 C 
ATOM     12  C   UNL     1      35.069 -16.960 -21.226  0.00  0.00    +0.039 C 
ATOM     13  H   UNL     1      33.443 -15.459 -26.286  0.00  0.00    +0.144 HD
ATOM     14  H   UNL     1      33.991 -16.749 -25.315  0.00  0.00    +0.144 HD
ENDROOT
TORSDOF 0
ENDMDL
MODEL 6
REMARK VINA RESULT:      -6.3      2.260      3.726
REMARK  Name = 24894153
REMARK  0 active torsions:
REMARK  status: ('A' for Active; 'I' for Inactive)
REMARK                            x       y       z     vdW  Elec       q    Type
REMARK                         _______ _______ _______ _____ _____    ______ ____
ROOT
ATOM      1  S   UNL     1      34.881 -16.934 -20.945  0.00  0.00    -0.081 S 
ATOM      2  O   UNL     1      33.937 -14.872 -24.115  0.00  0.00    -0.476 OA
ATOM      3  N   UNL     1      34.811 -17.874 -24.781  0.00  0.00    -0.252 NA
ATOM      4  N   UNL     1      34.755 -19.196 -22.930  0.00  0.00    -0.342 N 
ATOM      5  C   UNL     1      33.588 -15.787 -25.151  0.00  0.00    +0.190 C 
ATOM      6  C   UNL     1      34.802 -16.625 -25.528  0.00  0.00    +0.170 C 
ATOM      7  C   UNL     1      34.248 -15.421 -22.914  0.00  0.00    +0.148 C 
ATOM      8  C   UNL     1      34.581 -16.739 -22.640  0.00  0.00    +0.094 C 
ATOM      9  C   UNL     1      33.137 -14.934 -26.335  0.00  0.00    +0.049 C 
ATOM     10  C   UNL     1      34.718 -17.931 -23.488  0.00  0.00    +0.130 C 
ATOM     11  C   UNL     1      34.284 -14.591 -21.754  0.00  0.00    +0.044 C 
ATOM     12  C   UNL     1      34.609 -15.287 -20.618  0.00  0.00    +0.039 C 
ATOM     13  H   UNL     1      34.847 -19.987 -23.508  0.00  0.00    +0.144 HD
ATOM     14  H   UNL     1      34.691 -19.304 -21.953  0.00  0.00    +0.144 HD
ENDROOT
TORSDOF 0
ENDMDL
MODEL 7
REMARK VINA RESULT:      -6.3      2.803      3.547
REMARK  Name = 24894153
REMARK  0 active torsions:
REMARK  status: ('A' for Active; 'I' for Inactive)
REMARK                            x       y       z     vdW  Elec       q    Type
REMARK                         _______ _______ _______ _____ _____    ______ ____
ROOT
ATOM      1  S   UNL     1      33.116 -13.692 -23.964  0.00  0.00    -0.081 S 
ATOM      2  O   UNL     1      34.422 -17.264 -24.814  0.00  0.00    -0.476 OA
ATOM      3  N   UNL     1      34.941 -16.426 -21.773  0.00  0.00    -0.252 NA
ATOM      4  N   UNL     1      33.656 -14.650 -21.160  0.00  0.00    -0.342 N 
ATOM      5  C   UNL     1      34.520 -18.001 -23.598  0.00  0.00    +0.190 C 
ATOM      6  C   UNL     1      35.566 -17.363 -22.693  0.00  0.00    +0.170 C 
ATOM      7  C   UNL     1      33.932 -16.003 -24.709  0.00  0.00    +0.148 C 
ATOM      8  C   UNL     1      33.814 -15.226 -23.567  0.00  0.00    +0.094 C 
ATOM      9  C   UNL     1      34.943 -19.415 -23.993  0.00  0.00    +0.049 C 
ATOM     10  C   UNL     1      34.160 -15.464 -22.158  0.00  0.00    +0.130 C 
ATOM     11  C   UNL     1      33.494 -15.324 -25.885  0.00  0.00    +0.044 C 
ATOM     12  C   UNL     1      33.022 -14.063 -25.621  0.00  0.00    +0.039 C 
ATOM     13  H   UNL     1      33.895 -14.819 -20.220  0.00  0.00    +0.144 HD
ATOM     14  H   UNL     1      33.059 -13.902 -21.390  0.00  0.00    +0.144 HD
ENDROOT
TORSDOF 0
ENDMDL
MODEL 8
REMARK VINA RESULT:      -6.3      1.825      3.783
REMARK  Name = 24894153
REMARK  0 active torsions:
REMARK  status: ('A' for Active; 'I' for Inactive)
REMARK                            x       y       z     vdW  Elec       q    Type
REMARK                         _______ _______ _______ _____ _____    ______ ____
ROOT
ATOM      1  S   UNL     1      35.451 -18.335 -23.471  0.00  0.00    -0.081 S 
ATOM      2  O   UNL     1      34.082 -15.617 -21.037  0.00  0.00    -0.476 OA
ATOM      3  N   UNL     1      33.857 -14.778 -24.113  0.00  0.00    -0.252 NA
ATOM      4  N   UNL     1      34.076 -16.576 -25.492  0.00  0.00    -0.342 N 
ATOM      5  C   UNL     1      33.178 -14.787 -21.762  0.00  0.00    +0.190 C 
ATOM      6  C   UNL     1      33.929 -14.044 -22.860  0.00  0.00    +0.170 C 
ATOM      7  C   UNL     1      34.619 -16.656 -21.724  0.00  0.00    +0.148 C 
ATOM      8  C   UNL     1      34.665 -16.838 -23.097  0.00  0.00    +0.094 C 
ATOM      9  C   UNL     1      32.600 -13.802 -20.748  0.00  0.00    +0.049 C 
ATOM     10  C   UNL     1      34.190 -16.027 -24.228  0.00  0.00    +0.130 C 
ATOM     11  C   UNL     1      35.259 -17.711 -21.006  0.00  0.00    +0.044 C 
ATOM     12  C   UNL     1      35.749 -18.689 -21.834  0.00  0.00    +0.039 C 
ATOM     13  H   UNL     1      33.758 -16.023 -26.242  0.00  0.00    +0.144 HD
ATOM     14  H   UNL     1      34.316 -17.519 -25.642  0.00  0.00    +0.144 HD
ENDROOT
TORSDOF 0
ENDMDL
MODEL 9
REMARK VINA RESULT:      -6.2     10.238     12.022
REMARK  Name = 24894153
REMARK  0 active torsions:
REMARK  status: ('A' for Active; 'I' for Inactive)
REMARK                            x       y       z     vdW  Elec       q    Type
REMARK                         _______ _______ _______ _____ _____    ______ ____
ROOT
ATOM      1  S   UNL     1      37.732 -25.705 -12.641  0.00  0.00    -0.081 S 
ATOM      2  O   UNL     1      35.383 -24.741 -15.597  0.00  0.00    -0.476 OA
ATOM      3  N   UNL     1      34.119 -24.110 -12.730  0.00  0.00    -0.252 NA
ATOM      4  N   UNL     1      35.705 -24.100 -11.097  0.00  0.00    -0.342 N 
ATOM      5  C   UNL     1      34.458 -23.762 -15.128  0.00  0.00    +0.190 C 
ATOM      6  C   UNL     1      33.569 -24.370 -14.051  0.00  0.00    +0.170 C 
ATOM      7  C   UNL     1      36.315 -25.157 -14.704  0.00  0.00    +0.148 C 
ATOM      8  C   UNL     1      36.302 -25.008 -13.326  0.00  0.00    +0.094 C 
ATOM      9  C   UNL     1      33.626 -23.349 -16.341  0.00  0.00    +0.049 C 
ATOM     10  C   UNL     1      35.340 -24.398 -12.397  0.00  0.00    +0.130 C 
ATOM     11  C   UNL     1      37.461 -25.868 -15.171  0.00  0.00    +0.044 C 
ATOM     12  C   UNL     1      38.313 -26.219 -14.155  0.00  0.00    +0.039 C 
ATOM     13  H   UNL     1      35.052 -23.692 -10.484  0.00  0.00    +0.144 HD
ATOM     14  H   UNL     1      36.617 -24.298 -10.785  0.00  0.00    +0.144 HD
ENDROOT
TORSDOF 0
ENDMDL
