MODEL 1
REMARK VINA RESULT:      -9.7      0.000      0.000
REMARK  Name = 9051
REMARK  1 active torsions:
REMARK  status: ('A' for Active; 'I' for Inactive)
REMARK    1  A    between atoms: C_6  and  C_22
REMARK                            x       y       z     vdW  Elec       q    Type
REMARK                         _______ _______ _______ _____ _____    ______ ____
ROOT
ATOM      1  O   UNL     1      40.701 -25.233 -14.162  0.00  0.00    -0.291 OA
ATOM      2  C   UNL     1      32.440 -23.775 -14.761  0.00  0.00    +0.007 C 
ATOM      3  C   UNL     1      33.557 -23.467 -15.777  0.00  0.00    +0.004 C 
ATOM      4  C   UNL     1      34.777 -22.789 -15.147  0.00  0.00    +0.022 C 
ATOM      5  C   UNL     1      35.358 -23.601 -13.937  0.00  0.00    +0.008 C 
ATOM      6  C   UNL     1      31.379 -24.363 -15.719  0.00  0.00    +0.058 C 
ATOM      7  C   UNL     1      33.006 -24.772 -13.747  0.00  0.00    +0.000 C 
ATOM      8  C   UNL     1      32.813 -22.744 -16.901  0.00  0.00    +0.001 C 
ATOM      9  C   UNL     1      34.247 -24.216 -13.033  0.00  0.00    +0.001 C 
ATOM     10  C   UNL     1      36.548 -24.585 -14.300  0.00  0.00    +0.020 C 
ATOM     11  C   UNL     1      31.456 -23.466 -16.970  0.00  0.00    +0.007 C 
ATOM     12  C   UNL     1      31.892 -22.523 -14.028  0.00  0.00    +0.000 C 
ATOM     13  C   UNL     1      35.818 -22.457 -16.179  0.00  0.00    -0.027 C 
ATOM     14  C   UNL     1      37.571 -23.876 -15.198  0.00  0.00    -0.020 C 
ATOM     15  C   UNL     1      37.269 -25.011 -12.984  0.00  0.00    +0.012 C 
ATOM     16  C   UNL     1      36.066 -25.855 -15.035  0.00  0.00    +0.004 C 
ATOM     17  C   UNL     1      37.067 -22.932 -16.177  0.00  0.00    -0.009 C 
ATOM     18  C   UNL     1      38.573 -25.767 -13.211  0.00  0.00    +0.069 C 
ATOM     19  C   UNL     1      38.897 -24.080 -15.125  0.00  0.00    +0.033 C 
ATOM     20  C   UNL     1      39.488 -25.030 -14.154  0.00  0.00    +0.173 C 
ENDROOT
BRANCH   6  22
ATOM     21  O   UNL     1      29.721 -25.178 -14.212  0.00  0.00    -0.296 OA
ATOM     22  C   UNL     1      29.997 -24.428 -15.146  0.00  0.00    +0.151 C 
ATOM     23  C   UNL     1      28.964 -23.526 -15.766  0.00  0.00    +0.072 C 
ENDBRANCH   6  22
TORSDOF 1
ENDMDL
MODEL 2
REMARK VINA RESULT:      -8.8      1.509      6.831
REMARK  Name = 9051
REMARK  1 active torsions:
REMARK  status: ('A' for Active; 'I' for Inactive)
REMARK    1  A    between atoms: C_6  and  C_22
REMARK                            x       y       z     vdW  Elec       q    Type
REMARK                         _______ _______ _______ _____ _____    ______ ____
ROOT
ATOM      1  O   UNL     1      27.378 -22.741 -16.301  0.00  0.00    -0.291 OA
ATOM      2  C   UNL     1      35.443 -24.034 -14.297  0.00  0.00    +0.007 C 
ATOM      3  C   UNL     1      34.849 -23.167 -15.424  0.00  0.00    +0.004 C 
ATOM      4  C   UNL     1      33.759 -23.884 -16.227  0.00  0.00    +0.022 C 
ATOM      5  C   UNL     1      32.612 -24.444 -15.317  0.00  0.00    +0.008 C 
ATOM      6  C   UNL     1      36.518 -23.059 -13.765  0.00  0.00    +0.058 C 
ATOM      7  C   UNL     1      34.313 -24.337 -13.310  0.00  0.00    +0.000 C 
ATOM      8  C   UNL     1      36.090 -22.657 -16.159  0.00  0.00    +0.001 C 
ATOM      9  C   UNL     1      33.142 -25.062 -13.988  0.00  0.00    +0.001 C 
ATOM     10  C   UNL     1      31.356 -23.489 -15.158  0.00  0.00    +0.020 C 
ATOM     11  C   UNL     1      37.113 -22.419 -15.035  0.00  0.00    +0.007 C 
ATOM     12  C   UNL     1      36.087 -25.355 -14.791  0.00  0.00    +0.000 C 
ATOM     13  C   UNL     1      33.247 -23.025 -17.349  0.00  0.00    -0.027 C 
ATOM     14  C   UNL     1      30.931 -22.934 -16.525  0.00  0.00    -0.020 C 
ATOM     15  C   UNL     1      30.166 -24.313 -14.578  0.00  0.00    +0.012 C 
ATOM     16  C   UNL     1      31.634 -22.292 -14.222  0.00  0.00    +0.004 C 
ATOM     17  C   UNL     1      31.978 -22.627 -17.481  0.00  0.00    -0.009 C 
ATOM     18  C   UNL     1      28.834 -23.573 -14.597  0.00  0.00    +0.069 C 
ATOM     19  C   UNL     1      29.653 -22.722 -16.881  0.00  0.00    +0.033 C 
ATOM     20  C   UNL     1      28.529 -23.007 -15.959  0.00  0.00    +0.173 C 
ENDROOT
BRANCH   6  22
ATOM     21  O   UNL     1      38.649 -24.054 -13.364  0.00  0.00    -0.296 OA
ATOM     22  C   UNL     1      37.563 -23.702 -12.906  0.00  0.00    +0.151 C 
ATOM     23  C   UNL     1      37.221 -23.892 -11.452  0.00  0.00    +0.072 C 
ENDBRANCH   6  22
TORSDOF 1
ENDMDL
MODEL 3
REMARK VINA RESULT:      -7.5     11.823     13.888
REMARK  Name = 9051
REMARK  1 active torsions:
REMARK  status: ('A' for Active; 'I' for Inactive)
REMARK    1  A    between atoms: C_6  and  C_22
REMARK                            x       y       z     vdW  Elec       q    Type
REMARK                         _______ _______ _______ _____ _____    ______ ____
ROOT
ATOM      1  O   UNL     1      35.456 -18.521 -22.686  0.00  0.00    -0.291 OA
ATOM      2  C   UNL     1      31.923 -10.946 -21.747  0.00  0.00    +0.007 C 
ATOM      3  C   UNL     1      32.229 -12.015 -20.679  0.00  0.00    +0.004 C 
ATOM      4  C   UNL     1      31.783 -13.422 -21.089  0.00  0.00    +0.022 C 
ATOM      5  C   UNL     1      32.373 -13.861 -22.474  0.00  0.00    +0.008 C 
ATOM      6  C   UNL     1      32.419  -9.689 -20.998  0.00  0.00    +0.058 C 
ATOM      7  C   UNL     1      32.731 -11.304 -22.996  0.00  0.00    +0.000 C 
ATOM      8  C   UNL     1      31.651 -11.403 -19.402  0.00  0.00    +0.001 C 
ATOM      9  C   UNL     1      32.383 -12.705 -23.520  0.00  0.00    +0.001 C 
ATOM     10  C   UNL     1      33.714 -14.703 -22.394  0.00  0.00    +0.020 C 
ATOM     11  C   UNL     1      31.948  -9.901 -19.545  0.00  0.00    +0.007 C 
ATOM     12  C   UNL     1      30.419 -10.823 -22.103  0.00  0.00    +0.000 C 
ATOM     13  C   UNL     1      32.048 -14.423 -19.999  0.00  0.00    -0.027 C 
ATOM     14  C   UNL     1      33.592 -15.802 -21.328  0.00  0.00    -0.020 C 
ATOM     15  C   UNL     1      33.961 -15.391 -23.773  0.00  0.00    +0.012 C 
ATOM     16  C   UNL     1      34.943 -13.835 -22.047  0.00  0.00    +0.004 C 
ATOM     17  C   UNL     1      32.841 -15.492 -20.127  0.00  0.00    -0.009 C 
ATOM     18  C   UNL     1      35.088 -16.416 -23.759  0.00  0.00    +0.069 C 
ATOM     19  C   UNL     1      34.138 -17.024 -21.448  0.00  0.00    +0.033 C 
ATOM     20  C   UNL     1      34.921 -17.413 -22.643  0.00  0.00    +0.173 C 
ENDROOT
BRANCH   6  22
ATOM     21  O   UNL     1      31.532  -8.315 -22.734  0.00  0.00    -0.296 OA
ATOM     22  C   UNL     1      31.932  -8.395 -21.573  0.00  0.00    +0.151 C 
ATOM     23  C   UNL     1      31.952  -7.198 -20.662  0.00  0.00    +0.072 C 
ENDBRANCH   6  22
TORSDOF 1
ENDMDL
MODEL 4
REMARK VINA RESULT:      -7.4     13.186     15.374
REMARK  Name = 9051
REMARK  1 active torsions:
REMARK  status: ('A' for Active; 'I' for Inactive)
REMARK    1  A    between atoms: C_6  and  C_22
REMARK                            x       y       z     vdW  Elec       q    Type
REMARK                         _______ _______ _______ _____ _____    ______ ____
ROOT
ATOM      1  O   UNL     1      33.850 -17.680 -21.496  0.00  0.00    -0.291 OA
ATOM      2  C   UNL     1      32.622  -9.471 -22.851  0.00  0.00    +0.007 C 
ATOM      3  C   UNL     1      32.505 -10.267 -21.537  0.00  0.00    +0.004 C 
ATOM      4  C   UNL     1      31.705 -11.564 -21.686  0.00  0.00    +0.022 C 
ATOM      5  C   UNL     1      32.261 -12.486 -22.826  0.00  0.00    +0.008 C 
ATOM      6  C   UNL     1      33.396  -8.237 -22.334  0.00  0.00    +0.058 C 
ATOM      7  C   UNL     1      33.398 -10.340 -23.844  0.00  0.00    +0.000 C 
ATOM      8  C   UNL     1      32.020  -9.215 -20.537  0.00  0.00    +0.001 C 
ATOM      9  C   UNL     1      32.702 -11.687 -24.089  0.00  0.00    +0.001 C 
ATOM     10  C   UNL     1      33.285 -13.600 -22.347  0.00  0.00    +0.020 C 
ATOM     11  C   UNL     1      32.756  -7.933 -20.964  0.00  0.00    +0.007 C 
ATOM     12  C   UNL     1      31.258  -9.055 -23.460  0.00  0.00    +0.000 C 
ATOM     13  C   UNL     1      31.568 -12.281 -20.371  0.00  0.00    -0.027 C 
ATOM     14  C   UNL     1      32.751 -14.311 -21.096  0.00  0.00    -0.020 C 
ATOM     15  C   UNL     1      33.440 -14.661 -23.480  0.00  0.00    +0.012 C 
ATOM     16  C   UNL     1      34.677 -13.023 -22.013  0.00  0.00    +0.004 C 
ATOM     17  C   UNL     1      32.020 -13.515 -20.129  0.00  0.00    -0.009 C 
ATOM     18  C   UNL     1      34.212 -15.906 -23.058  0.00  0.00    +0.069 C 
ATOM     19  C   UNL     1      32.924 -15.621 -20.851  0.00  0.00    +0.033 C 
ATOM     20  C   UNL     1      33.662 -16.499 -21.788  0.00  0.00    +0.173 C 
ENDROOT
BRANCH   6  22
ATOM     21  O   UNL     1      32.526  -6.164 -23.129  0.00  0.00    -0.296 OA
ATOM     22  C   UNL     1      33.362  -7.056 -23.255  0.00  0.00    +0.151 C 
ATOM     23  C   UNL     1      34.405  -7.014 -24.339  0.00  0.00    +0.072 C 
ENDBRANCH   6  22
TORSDOF 1
ENDMDL
MODEL 5
REMARK VINA RESULT:      -6.8     17.662     19.676
REMARK  Name = 9051
REMARK  1 active torsions:
REMARK  status: ('A' for Active; 'I' for Inactive)
REMARK    1  A    between atoms: C_6  and  C_22
REMARK                            x       y       z     vdW  Elec       q    Type
REMARK                         _______ _______ _______ _____ _____    ______ ____
ROOT
ATOM      1  O   UNL     1      32.438 -13.079 -22.002  0.00  0.00    -0.291 OA
ATOM      2  C   UNL     1      31.696  -4.898 -23.806  0.00  0.00    +0.007 C 
ATOM      3  C   UNL     1      32.544  -5.976 -24.510  0.00  0.00    +0.004 C 
ATOM      4  C   UNL     1      33.345  -6.846 -23.537  0.00  0.00    +0.022 C 
ATOM      5  C   UNL     1      32.442  -7.505 -22.437  0.00  0.00    +0.008 C 
ATOM      6  C   UNL     1      31.104  -4.189 -25.045  0.00  0.00    +0.058 C 
ATOM      7  C   UNL     1      30.668  -5.623 -22.935  0.00  0.00    +0.000 C 
ATOM      8  C   UNL     1      33.298  -5.180 -25.577  0.00  0.00    +0.001 C 
ATOM      9  C   UNL     1      31.339  -6.542 -21.903  0.00  0.00    +0.001 C 
ATOM     10  C   UNL     1      31.945  -8.973 -22.770  0.00  0.00    +0.020 C 
ATOM     11  C   UNL     1      32.276  -4.129 -26.045  0.00  0.00    +0.007 C 
ATOM     12  C   UNL     1      32.523  -3.910 -22.943  0.00  0.00    +0.000 C 
ATOM     13  C   UNL     1      34.199  -7.845 -24.266  0.00  0.00    -0.027 C 
ATOM     14  C   UNL     1      33.110  -9.825 -23.294  0.00  0.00    -0.020 C 
ATOM     15  C   UNL     1      31.412  -9.634 -21.461  0.00  0.00    +0.012 C 
ATOM     16  C   UNL     1      30.822  -8.995 -23.830  0.00  0.00    +0.004 C 
ATOM     17  C   UNL     1      34.097  -9.171 -24.132  0.00  0.00    -0.009 C 
ATOM     18  C   UNL     1      31.122 -11.125 -21.595  0.00  0.00    +0.069 C 
ATOM     19  C   UNL     1      33.263 -11.132 -23.021  0.00  0.00    +0.033 C 
ATOM     20  C   UNL     1      32.294 -11.870 -22.177  0.00  0.00    +0.173 C 
ENDROOT
BRANCH   6  22
ATOM     21  O   UNL     1      30.053  -2.554 -23.664  0.00  0.00    -0.296 OA
ATOM     22  C   UNL     1      30.523  -2.838 -24.764  0.00  0.00    +0.151 C 
ATOM     23  C   UNL     1      30.546  -1.843 -25.893  0.00  0.00    +0.072 C 
ENDBRANCH   6  22
TORSDOF 1
ENDMDL
