MODEL 1
REMARK VINA RESULT:      -9.8      0.000      0.000
REMARK  Name = 53276
REMARK  5 active torsions:
REMARK  status: ('A' for Active; 'I' for Inactive)
REMARK    1  A    between atoms: N_1  and  C_19
REMARK    2  A    between atoms: C_4  and  N_10
REMARK    3  A    between atoms: C_11  and  O_13
REMARK    4  A    between atoms: O_13  and  C_14
REMARK    5  A    between atoms: C_19  and  C_21
REMARK                            x       y       z     vdW  Elec       q    Type
REMARK                         _______ _______ _______ _____ _____    ______ ____
ROOT
ATOM      1  N   UNL     1      35.291 -18.148 -22.984  0.00  0.00    -0.308 N 
ATOM      2  N   UNL     1      34.168 -16.472 -24.252  0.00  0.00    -0.376 NA
ATOM      3  C   UNL     1      34.821 -16.862 -23.110  0.00  0.00    +0.163 C 
ATOM      4  C   UNL     1      33.896 -14.258 -23.321  0.00  0.00    +0.093 C 
ATOM      5  C   UNL     1      35.025 -15.961 -22.051  0.00  0.00    +0.102 C 
ATOM      6  C   UNL     1      33.729 -15.196 -24.327  0.00  0.00    +0.191 C 
ATOM      7  C   UNL     1      34.558 -14.656 -22.163  0.00  0.00    +0.001 C 
ATOM      8  H   UNL     1      35.146 -18.775 -23.728  0.00  0.00    +0.149 HD
ATOM      9  N   UNL     1      33.057 -14.800 -25.510  0.00  0.00    -0.332 N 
ATOM     10  H   UNL     1      32.924 -15.446 -26.241  0.00  0.00    +0.145 HD
ATOM     11  H   UNL     1      32.723 -13.878 -25.602  0.00  0.00    +0.145 HD
ENDROOT
BRANCH   4  13
ATOM     12  O   UNL     1      31.807 -12.778 -21.748  0.00  0.00    -0.226 OA
ATOM     13  N   UNL     1      33.428 -12.948 -23.433  0.00  0.00    -0.247 N 
ATOM     14  C   UNL     1      32.453 -12.306 -22.675  0.00  0.00    +0.405 C 
ATOM     15  H   UNL     1      33.843 -12.406 -24.143  0.00  0.00    +0.158 HD
BRANCH  14  16
ATOM     16  O   UNL     1      32.304 -11.021 -23.124  0.00  0.00    -0.434 OA
BRANCH  16  17
ATOM     17  C   UNL     1      33.426 -10.463 -23.817  0.00  0.00    +0.210 C 
ATOM     18  C   UNL     1      33.584  -9.013 -23.413  0.00  0.00    +0.051 C 
ENDBRANCH  16  17
ENDBRANCH  14  16
ENDBRANCH   4  13
BRANCH   1  19
ATOM     19  C   UNL     1      35.996 -18.626 -21.793  0.00  0.00    +0.116 C 
BRANCH  19  21
ATOM     20  F   UNL     1      32.924 -22.262 -18.804  0.00  0.00    -0.204 F 
ATOM     21  C   UNL     1      35.181 -19.592 -21.000  0.00  0.00    -0.002 C 
ATOM     22  C   UNL     1      35.809 -20.605 -20.277  0.00  0.00    -0.000 C 
ATOM     23  C   UNL     1      33.791 -19.480 -20.982  0.00  0.00    -0.000 C 
ATOM     24  C   UNL     1      35.046 -21.508 -19.535  0.00  0.00    +0.029 C 
ATOM     25  C   UNL     1      33.028 -20.382 -20.240  0.00  0.00    +0.029 C 
ATOM     26  C   UNL     1      33.656 -21.397 -19.516  0.00  0.00    +0.140 C 
ENDBRANCH  19  21
ENDBRANCH   1  19
TORSDOF 5
ENDMDL
MODEL 2
REMARK VINA RESULT:      -9.6      4.339      8.929
REMARK  Name = 53276
REMARK  5 active torsions:
REMARK  status: ('A' for Active; 'I' for Inactive)
REMARK    1  A    between atoms: N_1  and  C_19
REMARK    2  A    between atoms: C_4  and  N_10
REMARK    3  A    between atoms: C_11  and  O_13
REMARK    4  A    between atoms: O_13  and  C_14
REMARK    5  A    between atoms: C_19  and  C_21
REMARK                            x       y       z     vdW  Elec       q    Type
REMARK                         _______ _______ _______ _____ _____    ______ ____
ROOT
ATOM      1  N   UNL     1      33.375 -13.166 -23.744  0.00  0.00    -0.308 N 
ATOM      2  N   UNL     1      34.540 -15.245 -23.739  0.00  0.00    -0.376 NA
ATOM      3  C   UNL     1      33.865 -14.257 -23.066  0.00  0.00    +0.163 C 
ATOM      4  C   UNL     1      34.833 -16.440 -21.657  0.00  0.00    +0.093 C 
ATOM      5  C   UNL     1      33.662 -14.338 -21.678  0.00  0.00    +0.102 C 
ATOM      6  C   UNL     1      34.999 -16.297 -23.026  0.00  0.00    +0.191 C 
ATOM      7  C   UNL     1      34.150 -15.437 -20.977  0.00  0.00    +0.001 C 
ATOM      8  H   UNL     1      33.520 -13.113 -24.715  0.00  0.00    +0.149 HD
ATOM      9  N   UNL     1      35.693 -17.315 -23.728  0.00  0.00    -0.332 N 
ATOM     10  H   UNL     1      35.825 -17.240 -24.701  0.00  0.00    +0.145 HD
ATOM     11  H   UNL     1      36.041 -18.098 -23.243  0.00  0.00    +0.145 HD
ENDROOT
BRANCH   4  13
ATOM     12  O   UNL     1      34.157 -19.360 -21.867  0.00  0.00    -0.226 OA
ATOM     13  N   UNL     1      35.323 -17.541 -20.955  0.00  0.00    -0.247 N 
ATOM     14  C   UNL     1      34.975 -18.883 -21.091  0.00  0.00    +0.405 C 
ATOM     15  H   UNL     1      36.006 -17.344 -20.273  0.00  0.00    +0.158 HD
BRANCH  14  16
ATOM     16  O   UNL     1      35.701 -19.630 -20.202  0.00  0.00    -0.434 OA
BRANCH  16  17
ATOM     17  C   UNL     1      35.194 -20.940 -19.921  0.00  0.00    +0.210 C 
ATOM     18  C   UNL     1      36.110 -21.620 -18.926  0.00  0.00    +0.051 C 
ENDBRANCH  16  17
ENDBRANCH  14  16
ENDBRANCH   4  13
BRANCH   1  19
ATOM     19  C   UNL     1      32.648 -12.080 -23.085  0.00  0.00    +0.116 C 
BRANCH  19  21
ATOM     20  F   UNL     1      34.965  -7.051 -24.051  0.00  0.00    -0.204 F 
ATOM     21  C   UNL     1      33.264 -10.746 -23.341  0.00  0.00    -0.002 C 
ATOM     22  C   UNL     1      34.370 -10.638 -24.183  0.00  0.00    -0.000 C 
ATOM     23  C   UNL     1      32.732  -9.606 -22.739  0.00  0.00    -0.000 C 
ATOM     24  C   UNL     1      34.945  -9.390 -24.423  0.00  0.00    +0.029 C 
ATOM     25  C   UNL     1      33.307  -8.357 -22.978  0.00  0.00    +0.029 C 
ATOM     26  C   UNL     1      34.414  -8.249 -23.821  0.00  0.00    +0.140 C 
ENDBRANCH  19  21
ENDBRANCH   1  19
TORSDOF 5
ENDMDL
MODEL 3
REMARK VINA RESULT:      -9.6      1.809      2.104
REMARK  Name = 53276
REMARK  5 active torsions:
REMARK  status: ('A' for Active; 'I' for Inactive)
REMARK    1  A    between atoms: N_1  and  C_19
REMARK    2  A    between atoms: C_4  and  N_10
REMARK    3  A    between atoms: C_11  and  O_13
REMARK    4  A    between atoms: O_13  and  C_14
REMARK    5  A    between atoms: C_19  and  C_21
REMARK                            x       y       z     vdW  Elec       q    Type
REMARK                         _______ _______ _______ _____ _____    ______ ____
ROOT
ATOM      1  N   UNL     1      33.886 -17.846 -21.012  0.00  0.00    -0.308 N 
ATOM      2  N   UNL     1      33.124 -15.602 -21.261  0.00  0.00    -0.376 NA
ATOM      3  C   UNL     1      33.928 -16.639 -21.667  0.00  0.00    +0.163 C 
ATOM      4  C   UNL     1      34.043 -14.222 -23.021  0.00  0.00    +0.093 C 
ATOM      5  C   UNL     1      34.804 -16.489 -22.755  0.00  0.00    +0.102 C 
ATOM      6  C   UNL     1      33.201 -14.437 -21.940  0.00  0.00    +0.191 C 
ATOM      7  C   UNL     1      34.857 -15.273 -23.430  0.00  0.00    +0.001 C 
ATOM      8  H   UNL     1      33.272 -17.946 -20.250  0.00  0.00    +0.149 HD
ATOM      9  N   UNL     1      32.367 -13.372 -21.517  0.00  0.00    -0.332 N 
ATOM     10  H   UNL     1      31.759 -13.497 -20.752  0.00  0.00    +0.145 HD
ATOM     11  H   UNL     1      32.394 -12.508 -21.988  0.00  0.00    +0.145 HD
ENDROOT
BRANCH   4  13
ATOM     12  O   UNL     1      33.174 -13.482 -25.800  0.00  0.00    -0.226 OA
ATOM     13  N   UNL     1      34.095 -13.003 -23.698  0.00  0.00    -0.247 N 
ATOM     14  C   UNL     1      33.676 -12.711 -24.993  0.00  0.00    +0.405 C 
ATOM     15  H   UNL     1      34.478 -12.250 -23.193  0.00  0.00    +0.158 HD
BRANCH  14  16
ATOM     16  O   UNL     1      33.912 -11.387 -25.256  0.00  0.00    -0.434 OA
BRANCH  16  17
ATOM     17  C   UNL     1      33.789 -10.493 -24.144  0.00  0.00    +0.210 C 
ATOM     18  C   UNL     1      34.845  -9.415 -24.259  0.00  0.00    +0.051 C 
ENDBRANCH  16  17
ENDBRANCH  14  16
ENDBRANCH   4  13
BRANCH   1  19
ATOM     19  C   UNL     1      34.717 -18.990 -21.395  0.00  0.00    +0.116 C 
BRANCH  19  21
ATOM     20  F   UNL     1      34.043 -23.373 -17.943  0.00  0.00    -0.204 F 
ATOM     21  C   UNL     1      34.539 -20.154 -20.480  0.00  0.00    -0.002 C 
ATOM     22  C   UNL     1      35.653 -20.839 -19.998  0.00  0.00    -0.000 C 
ATOM     23  C   UNL     1      33.257 -20.555 -20.105  0.00  0.00    -0.000 C 
ATOM     24  C   UNL     1      35.486 -21.927 -19.141  0.00  0.00    +0.029 C 
ATOM     25  C   UNL     1      33.089 -21.643 -19.248  0.00  0.00    +0.029 C 
ATOM     26  C   UNL     1      34.204 -22.329 -18.766  0.00  0.00    +0.140 C 
ENDBRANCH  19  21
ENDBRANCH   1  19
TORSDOF 5
ENDMDL
MODEL 4
REMARK VINA RESULT:      -9.5      4.373      8.743
REMARK  Name = 53276
REMARK  5 active torsions:
REMARK  status: ('A' for Active; 'I' for Inactive)
REMARK    1  A    between atoms: N_1  and  C_19
REMARK    2  A    between atoms: C_4  and  N_10
REMARK    3  A    between atoms: C_11  and  O_13
REMARK    4  A    between atoms: O_13  and  C_14
REMARK    5  A    between atoms: C_19  and  C_21
REMARK                            x       y       z     vdW  Elec       q    Type
REMARK                         _______ _______ _______ _____ _____    ______ ____
ROOT
ATOM      1  N   UNL     1      32.084 -12.670 -22.660  0.00  0.00    -0.308 N 
ATOM      2  N   UNL     1      33.733 -14.344 -23.059  0.00  0.00    -0.376 NA
ATOM      3  C   UNL     1      32.818 -13.749 -22.227  0.00  0.00    +0.163 C 
ATOM      4  C   UNL     1      34.272 -15.924 -21.310  0.00  0.00    +0.093 C 
ATOM      5  C   UNL     1      32.611 -14.227 -20.921  0.00  0.00    +0.102 C 
ATOM      6  C   UNL     1      34.427 -15.402 -22.585  0.00  0.00    +0.191 C 
ATOM      7  C   UNL     1      33.344 -15.319 -20.468  0.00  0.00    +0.001 C 
ATOM      8  H   UNL     1      32.232 -12.339 -23.574  0.00  0.00    +0.149 HD
ATOM      9  N   UNL     1      35.368 -16.013 -23.451  0.00  0.00    -0.332 N 
ATOM     10  H   UNL     1      35.499 -15.663 -24.362  0.00  0.00    +0.145 HD
ATOM     11  H   UNL     1      35.892 -16.787 -23.142  0.00  0.00    +0.145 HD
ENDROOT
BRANCH   4  13
ATOM     12  O   UNL     1      34.269 -18.795 -22.197  0.00  0.00    -0.226 OA
ATOM     13  N   UNL     1      35.007 -17.019 -20.856  0.00  0.00    -0.247 N 
ATOM     14  C   UNL     1      34.969 -18.337 -21.303  0.00  0.00    +0.405 C 
ATOM     15  H   UNL     1      35.637 -16.836 -20.121  0.00  0.00    +0.158 HD
BRANCH  14  16
ATOM     16  O   UNL     1      35.857 -19.086 -20.578  0.00  0.00    -0.434 OA
BRANCH  16  17
ATOM     17  C   UNL     1      35.481 -20.446 -20.335  0.00  0.00    +0.210 C 
ATOM     18  C   UNL     1      36.561 -21.118 -19.515  0.00  0.00    +0.051 C 
ENDBRANCH  16  17
ENDBRANCH  14  16
ENDBRANCH   4  13
BRANCH   1  19
ATOM     19  C   UNL     1      31.093 -11.993 -21.822  0.00  0.00    +0.116 C 
BRANCH  19  21
ATOM     20  F   UNL     1      32.939  -7.049 -19.886  0.00  0.00    -0.204 F 
ATOM     21  C   UNL     1      31.584 -10.681 -21.309  0.00  0.00    -0.002 C 
ATOM     22  C   UNL     1      32.057  -9.717 -22.198  0.00  0.00    -0.000 C 
ATOM     23  C   UNL     1      31.567 -10.419 -19.940  0.00  0.00    -0.000 C 
ATOM     24  C   UNL     1      32.516  -8.490 -21.718  0.00  0.00    +0.029 C 
ATOM     25  C   UNL     1      32.025  -9.192 -19.458  0.00  0.00    +0.029 C 
ATOM     26  C   UNL     1      32.500  -8.227 -20.348  0.00  0.00    +0.140 C 
ENDBRANCH  19  21
ENDBRANCH   1  19
TORSDOF 5
ENDMDL
MODEL 5
REMARK VINA RESULT:      -9.3      3.392      5.633
REMARK  Name = 53276
REMARK  5 active torsions:
REMARK  status: ('A' for Active; 'I' for Inactive)
REMARK    1  A    between atoms: N_1  and  C_19
REMARK    2  A    between atoms: C_4  and  N_10
REMARK    3  A    between atoms: C_11  and  O_13
REMARK    4  A    between atoms: O_13  and  C_14
REMARK    5  A    between atoms: C_19  and  C_21
REMARK                            x       y       z     vdW  Elec       q    Type
REMARK                         _______ _______ _______ _____ _____    ______ ____
ROOT
ATOM      1  N   UNL     1      34.650 -22.306 -19.066  0.00  0.00    -0.308 N 
ATOM      2  N   UNL     1      35.819 -20.555 -20.181  0.00  0.00    -0.376 NA
ATOM      3  C   UNL     1      34.639 -21.141 -19.794  0.00  0.00    +0.163 C 
ATOM      4  C   UNL     1      34.569 -18.788 -21.259  0.00  0.00    +0.093 C 
ATOM      5  C   UNL     1      33.403 -20.565 -20.131  0.00  0.00    +0.102 C 
ATOM      6  C   UNL     1      35.753 -19.409 -20.894  0.00  0.00    +0.191 C 
ATOM      7  C   UNL     1      33.375 -19.384 -20.866  0.00  0.00    +0.001 C 
ATOM      8  H   UNL     1      35.518 -22.706 -18.833  0.00  0.00    +0.149 HD
ATOM      9  N   UNL     1      36.975 -18.809 -21.288  0.00  0.00    -0.332 N 
ATOM     10  H   UNL     1      37.832 -19.228 -21.042  0.00  0.00    +0.145 HD
ATOM     11  H   UNL     1      36.968 -17.972 -21.807  0.00  0.00    +0.145 HD
ENDROOT
BRANCH   4  13
ATOM     12  O   UNL     1      34.929 -15.932 -20.399  0.00  0.00    -0.226 OA
ATOM     13  N   UNL     1      34.541 -17.604 -21.996  0.00  0.00    -0.247 N 
ATOM     14  C   UNL     1      34.715 -16.298 -21.547  0.00  0.00    +0.405 C 
ATOM     15  H   UNL     1      34.377 -17.706 -22.962  0.00  0.00    +0.158 HD
BRANCH  14  16
ATOM     16  O   UNL     1      34.610 -15.438 -22.608  0.00  0.00    -0.434 OA
BRANCH  16  17
ATOM     17  C   UNL     1      34.377 -16.041 -23.886  0.00  0.00    +0.210 C 
ATOM     18  C   UNL     1      33.556 -15.095 -24.736  0.00  0.00    +0.051 C 
ENDBRANCH  16  17
ENDBRANCH  14  16
ENDBRANCH   4  13
BRANCH   1  19
ATOM     19  C   UNL     1      33.428 -22.980 -18.622  0.00  0.00    +0.116 C 
BRANCH  19  21
ATOM     20  F   UNL     1      33.291 -23.712 -13.051  0.00  0.00    -0.204 F 
ATOM     21  C   UNL     1      33.390 -23.173 -17.143  0.00  0.00    -0.002 C 
ATOM     22  C   UNL     1      32.168 -23.312 -16.488  0.00  0.00    -0.000 C 
ATOM     23  C   UNL     1      34.580 -23.218 -16.417  0.00  0.00    -0.000 C 
ATOM     24  C   UNL     1      32.133 -23.493 -15.105  0.00  0.00    +0.029 C 
ATOM     25  C   UNL     1      34.547 -23.399 -15.034  0.00  0.00    +0.029 C 
ATOM     26  C   UNL     1      33.323 -23.537 -14.378  0.00  0.00    +0.140 C 
ENDBRANCH  19  21
ENDBRANCH   1  19
TORSDOF 5
ENDMDL
MODEL 6
REMARK VINA RESULT:      -9.3     10.710     11.859
REMARK  Name = 53276
REMARK  5 active torsions:
REMARK  status: ('A' for Active; 'I' for Inactive)
REMARK    1  A    between atoms: N_1  and  C_19
REMARK    2  A    between atoms: C_4  and  N_10
REMARK    3  A    between atoms: C_11  and  O_13
REMARK    4  A    between atoms: O_13  and  C_14
REMARK    5  A    between atoms: C_19  and  C_21
REMARK                            x       y       z     vdW  Elec       q    Type
REMARK                         _______ _______ _______ _____ _____    ______ ____
ROOT
ATOM      1  N   UNL     1      33.803 -24.687 -13.406  0.00  0.00    -0.308 N 
ATOM      2  N   UNL     1      31.573 -25.291 -13.990  0.00  0.00    -0.376 NA
ATOM      3  C   UNL     1      32.643 -24.439 -14.100  0.00  0.00    +0.163 C 
ATOM      4  C   UNL     1      30.326 -23.898 -15.523  0.00  0.00    +0.093 C 
ATOM      5  C   UNL     1      32.578 -23.300 -14.922  0.00  0.00    +0.102 C 
ATOM      6  C   UNL     1      30.457 -25.002 -14.695  0.00  0.00    +0.191 C 
ATOM      7  C   UNL     1      31.412 -23.036 -15.634  0.00  0.00    +0.001 C 
ATOM      8  H   UNL     1      33.844 -25.485 -12.831  0.00  0.00    +0.149 HD
ATOM      9  N   UNL     1      29.356 -25.888 -14.577  0.00  0.00    -0.332 N 
ATOM     10  H   UNL     1      29.422 -26.680 -13.996  0.00  0.00    +0.145 HD
ATOM     11  H   UNL     1      28.527 -25.711 -15.077  0.00  0.00    +0.145 HD
ENDROOT
BRANCH   4  13
ATOM     12  O   UNL     1      28.224 -21.787 -15.131  0.00  0.00    -0.226 OA
ATOM     13  N   UNL     1      29.157 -23.633 -16.237  0.00  0.00    -0.247 N 
ATOM     14  C   UNL     1      28.211 -22.636 -16.013  0.00  0.00    +0.405 C 
ATOM     15  H   UNL     1      28.977 -24.228 -17.000  0.00  0.00    +0.158 HD
BRANCH  14  16
ATOM     16  O   UNL     1      27.219 -22.735 -16.953  0.00  0.00    -0.434 OA
BRANCH  16  17
ATOM     17  C   UNL     1      26.279 -21.656 -16.992  0.00  0.00    +0.210 C 
ATOM     18  C   UNL     1      25.972 -21.320 -18.435  0.00  0.00    +0.051 C 
ENDBRANCH  16  17
ENDBRANCH  14  16
ENDBRANCH   4  13
BRANCH   1  19
ATOM     19  C   UNL     1      34.979 -23.819 -13.482  0.00  0.00    +0.116 C 
BRANCH  19  21
ATOM     20  F   UNL     1      39.669 -26.672 -14.689  0.00  0.00    -0.204 F 
ATOM     21  C   UNL     1      36.224 -24.575 -13.802  0.00  0.00    -0.002 C 
ATOM     22  C   UNL     1      37.430 -24.221 -13.198  0.00  0.00    -0.000 C 
ATOM     23  C   UNL     1      36.181 -25.637 -14.705  0.00  0.00    -0.000 C 
ATOM     24  C   UNL     1      38.595 -24.929 -13.498  0.00  0.00    +0.029 C 
ATOM     25  C   UNL     1      37.345 -26.346 -15.005  0.00  0.00    +0.029 C 
ATOM     26  C   UNL     1      38.552 -25.992 -14.401  0.00  0.00    +0.140 C 
ENDBRANCH  19  21
ENDBRANCH   1  19
TORSDOF 5
ENDMDL
MODEL 7
REMARK VINA RESULT:      -9.2      5.176      9.259
REMARK  Name = 53276
REMARK  5 active torsions:
REMARK  status: ('A' for Active; 'I' for Inactive)
REMARK    1  A    between atoms: N_1  and  C_19
REMARK    2  A    between atoms: C_4  and  N_10
REMARK    3  A    between atoms: C_11  and  O_13
REMARK    4  A    between atoms: O_13  and  C_14
REMARK    5  A    between atoms: C_19  and  C_21
REMARK                            x       y       z     vdW  Elec       q    Type
REMARK                         _______ _______ _______ _____ _____    ______ ____
ROOT
ATOM      1  N   UNL     1      34.208 -19.025 -22.241  0.00  0.00    -0.308 N 
ATOM      2  N   UNL     1      33.506 -20.550 -20.550  0.00  0.00    -0.376 NA
ATOM      3  C   UNL     1      34.507 -19.873 -21.202  0.00  0.00    +0.163 C 
ATOM      4  C   UNL     1      35.157 -21.572 -19.110  0.00  0.00    +0.093 C 
ATOM      5  C   UNL     1      35.851 -20.032 -20.824  0.00  0.00    +0.102 C 
ATOM      6  C   UNL     1      33.853 -21.370 -19.534  0.00  0.00    +0.191 C 
ATOM      7  C   UNL     1      36.170 -20.886 -19.772  0.00  0.00    +0.001 C 
ATOM      8  H   UNL     1      33.266 -18.917 -22.503  0.00  0.00    +0.149 HD
ATOM      9  N   UNL     1      32.814 -22.063 -18.864  0.00  0.00    -0.332 N 
ATOM     10  H   UNL     1      31.878 -21.939 -19.144  0.00  0.00    +0.145 HD
ATOM     11  H   UNL     1      33.027 -22.669 -18.118  0.00  0.00    +0.145 HD
ENDROOT
BRANCH   4  13
ATOM     12  O   UNL     1      37.103 -21.251 -16.843  0.00  0.00    -0.226 OA
ATOM     13  N   UNL     1      35.477 -22.428 -18.056  0.00  0.00    -0.247 N 
ATOM     14  C   UNL     1      36.391 -22.231 -17.024  0.00  0.00    +0.405 C 
ATOM     15  H   UNL     1      34.991 -23.284 -18.038  0.00  0.00    +0.158 HD
BRANCH  14  16
ATOM     16  O   UNL     1      36.389 -23.328 -16.203  0.00  0.00    -0.434 OA
BRANCH  16  17
ATOM     17  C   UNL     1      37.407 -23.361 -15.196  0.00  0.00    +0.210 C 
ATOM     18  C   UNL     1      36.753 -23.307 -13.832  0.00  0.00    +0.051 C 
ENDBRANCH  16  17
ENDBRANCH  14  16
ENDBRANCH   4  13
BRANCH   1  19
ATOM     19  C   UNL     1      35.229 -18.275 -22.976  0.00  0.00    +0.116 C 
BRANCH  19  21
ATOM     20  F   UNL     1      33.169 -13.603 -25.326  0.00  0.00    -0.204 F 
ATOM     21  C   UNL     1      34.683 -17.035 -23.601  0.00  0.00    -0.002 C 
ATOM     22  C   UNL     1      34.308 -17.037 -24.944  0.00  0.00    -0.000 C 
ATOM     23  C   UNL     1      34.547 -15.874 -22.840  0.00  0.00    -0.000 C 
ATOM     24  C   UNL     1      33.797 -15.877 -25.527  0.00  0.00    +0.029 C 
ATOM     25  C   UNL     1      34.036 -14.714 -23.423  0.00  0.00    +0.029 C 
ATOM     26  C   UNL     1      33.660 -14.716 -24.767  0.00  0.00    +0.140 C 
ENDBRANCH  19  21
ENDBRANCH   1  19
TORSDOF 5
ENDMDL
MODEL 8
REMARK VINA RESULT:      -9.1      7.128     10.988
REMARK  Name = 53276
REMARK  5 active torsions:
REMARK  status: ('A' for Active; 'I' for Inactive)
REMARK    1  A    between atoms: N_1  and  C_19
REMARK    2  A    between atoms: C_4  and  N_10
REMARK    3  A    between atoms: C_11  and  O_13
REMARK    4  A    between atoms: O_13  and  C_14
REMARK    5  A    between atoms: C_19  and  C_21
REMARK                            x       y       z     vdW  Elec       q    Type
REMARK                         _______ _______ _______ _____ _____    ______ ____
ROOT
ATOM      1  N   UNL     1      35.153 -22.080 -19.193  0.00  0.00    -0.308 N 
ATOM      2  N   UNL     1      34.757 -22.986 -17.025  0.00  0.00    -0.376 NA
ATOM      3  C   UNL     1      35.573 -22.323 -17.907  0.00  0.00    +0.163 C 
ATOM      4  C   UNL     1      36.462 -22.786 -15.323  0.00  0.00    +0.093 C 
ATOM      5  C   UNL     1      36.848 -21.879 -17.517  0.00  0.00    +0.102 C 
ATOM      6  C   UNL     1      35.217 -23.197 -15.772  0.00  0.00    +0.191 C 
ATOM      7  C   UNL     1      37.287 -22.115 -16.218  0.00  0.00    +0.001 C 
ATOM      8  H   UNL     1      34.260 -22.393 -19.462  0.00  0.00    +0.149 HD
ATOM      9  N   UNL     1      34.367 -23.881 -14.866  0.00  0.00    -0.332 N 
ATOM     10  H   UNL     1      33.477 -24.184 -15.159  0.00  0.00    +0.145 HD
ATOM     11  H   UNL     1      34.667 -24.052 -13.944  0.00  0.00    +0.145 HD
ENDROOT
BRANCH   4  13
ATOM     12  O   UNL     1      38.001 -25.089 -14.159  0.00  0.00    -0.226 OA
ATOM     13  N   UNL     1      36.902 -23.023 -14.020  0.00  0.00    -0.247 N 
ATOM     14  C   UNL     1      37.617 -24.112 -13.530  0.00  0.00    +0.405 C 
ATOM     15  H   UNL     1      36.679 -22.326 -13.360  0.00  0.00    +0.158 HD
BRANCH  14  16
ATOM     16  O   UNL     1      37.843 -23.938 -12.190  0.00  0.00    -0.434 OA
BRANCH  16  17
ATOM     17  C   UNL     1      36.763 -23.373 -11.439  0.00  0.00    +0.210 C 
ATOM     18  C   UNL     1      35.744 -24.453 -11.149  0.00  0.00    +0.051 C 
ENDBRANCH  16  17
ENDBRANCH  14  16
ENDBRANCH   4  13
BRANCH   1  19
ATOM     19  C   UNL     1      35.975 -21.378 -20.181  0.00  0.00    +0.116 C 
BRANCH  19  21
ATOM     20  F   UNL     1      33.668 -16.521 -21.820  0.00  0.00    -0.204 F 
ATOM     21  C   UNL     1      35.364 -20.088 -20.615  0.00  0.00    -0.002 C 
ATOM     22  C   UNL     1      36.179 -19.019 -20.985  0.00  0.00    -0.000 C 
ATOM     23  C   UNL     1      33.976 -19.953 -20.653  0.00  0.00    -0.000 C 
ATOM     24  C   UNL     1      35.606 -17.814 -21.391  0.00  0.00    +0.029 C 
ATOM     25  C   UNL     1      33.403 -18.748 -21.059  0.00  0.00    +0.029 C 
ATOM     26  C   UNL     1      34.218 -17.678 -21.429  0.00  0.00    +0.140 C 
ENDBRANCH  19  21
ENDBRANCH   1  19
TORSDOF 5
ENDMDL
MODEL 9
REMARK VINA RESULT:      -9.1      4.494      8.973
REMARK  Name = 53276
REMARK  5 active torsions:
REMARK  status: ('A' for Active; 'I' for Inactive)
REMARK    1  A    between atoms: N_1  and  C_19
REMARK    2  A    between atoms: C_4  and  N_10
REMARK    3  A    between atoms: C_11  and  O_13
REMARK    4  A    between atoms: O_13  and  C_14
REMARK    5  A    between atoms: C_19  and  C_21
REMARK                            x       y       z     vdW  Elec       q    Type
REMARK                         _______ _______ _______ _____ _____    ______ ____
ROOT
ATOM      1  N   UNL     1      31.655 -11.923 -22.504  0.00  0.00    -0.308 N 
ATOM      2  N   UNL     1      32.684 -13.737 -23.657  0.00  0.00    -0.376 NA
ATOM      3  C   UNL     1      32.318 -13.127 -22.483  0.00  0.00    +0.163 C 
ATOM      4  C   UNL     1      33.650 -15.557 -22.391  0.00  0.00    +0.093 C 
ATOM      5  C   UNL     1      32.610 -13.717 -21.241  0.00  0.00    +0.102 C 
ATOM      6  C   UNL     1      33.332 -14.921 -23.580  0.00  0.00    +0.191 C 
ATOM      7  C   UNL     1      33.278 -14.936 -21.202  0.00  0.00    +0.001 C 
ATOM      8  H   UNL     1      31.453 -11.514 -23.376  0.00  0.00    +0.149 HD
ATOM      9  N   UNL     1      33.705 -15.546 -24.797  0.00  0.00    -0.332 N 
ATOM     10  H   UNL     1      33.492 -15.117 -25.657  0.00  0.00    +0.145 HD
ATOM     11  H   UNL     1      34.178 -16.410 -24.782  0.00  0.00    +0.145 HD
ENDROOT
BRANCH   4  13
ATOM     12  O   UNL     1      35.380 -16.779 -20.260  0.00  0.00    -0.226 OA
ATOM     13  N   UNL     1      34.321 -16.780 -22.352  0.00  0.00    -0.247 N 
ATOM     14  C   UNL     1      35.114 -17.303 -21.334  0.00  0.00    +0.405 C 
ATOM     15  H   UNL     1      34.218 -17.349 -23.149  0.00  0.00    +0.158 HD
BRANCH  14  16
ATOM     16  O   UNL     1      35.578 -18.535 -21.712  0.00  0.00    -0.434 OA
BRANCH  16  17
ATOM     17  C   UNL     1      34.580 -19.511 -22.034  0.00  0.00    +0.210 C 
ATOM     18  C   UNL     1      33.827 -19.881 -20.774  0.00  0.00    +0.051 C 
ENDBRANCH  16  17
ENDBRANCH  14  16
ENDBRANCH   4  13
BRANCH   1  19
ATOM     19  C   UNL     1      31.236 -11.223 -21.289  0.00  0.00    +0.116 C 
BRANCH  19  21
ATOM     20  F   UNL     1      32.474  -5.742 -21.449  0.00  0.00    -0.204 F 
ATOM     21  C   UNL     1      31.564  -9.768 -21.330  0.00  0.00    -0.002 C 
ATOM     22  C   UNL     1      31.973  -9.112 -20.170  0.00  0.00    -0.000 C 
ATOM     23  C   UNL     1      31.462  -9.066 -22.530  0.00  0.00    -0.000 C 
ATOM     24  C   UNL     1      32.280  -7.751 -20.209  0.00  0.00    +0.029 C 
ATOM     25  C   UNL     1      31.769  -7.705 -22.571  0.00  0.00    +0.029 C 
ATOM     26  C   UNL     1      32.178  -7.048 -21.410  0.00  0.00    +0.140 C 
ENDBRANCH  19  21
ENDBRANCH   1  19
TORSDOF 5
ENDMDL
