MODEL 1
REMARK VINA RESULT:      -5.7      0.000      0.000
REMARK  Name = 2907
REMARK  5 active torsions:
REMARK  status: ('A' for Active; 'I' for Inactive)
REMARK    1  A    between atoms: P_1  and  N_9
REMARK    2  A    between atoms: N_9  and  C_10
REMARK    3  A    between atoms: N_9  and  C_13
REMARK    4  A    between atoms: C_10  and  C_12
REMARK    5  A    between atoms: C_13  and  C_15
REMARK                            x       y       z     vdW  Elec       q    Type
REMARK                         _______ _______ _______ _____ _____    ______ ____
ROOT
ATOM      1  P   UNL     1      35.516 -24.738 -15.166  0.00  0.00    +0.348 P 
ATOM      2  O   UNL     1      34.589 -24.176 -16.388  0.00  0.00    -0.292 OA
ATOM      3  O   UNL     1      36.250 -25.981 -15.608  0.00  0.00    -0.254 OA
ATOM      4  N   UNL     1      34.439 -24.977 -13.914  0.00  0.00    -0.222 NA
ATOM      5  C   UNL     1      33.445 -23.925 -13.689  0.00  0.00    +0.080 C 
ATOM      6  C   UNL     1      32.687 -23.618 -14.981  0.00  0.00    +0.050 C 
ATOM      7  C   UNL     1      33.622 -23.169 -16.102  0.00  0.00    +0.153 C 
ATOM      8  H   UNL     1      34.981 -25.078 -13.056  0.00  0.00    +0.133 HD
ENDROOT
BRANCH   1   9
ATOM      9  N   UNL     1      36.509 -23.481 -14.728  0.00  0.00    -0.196 NA
BRANCH   9  10
ATOM     10  C   UNL     1      37.077 -23.534 -13.383  0.00  0.00    +0.099 C 
BRANCH  10  12
ATOM     11 CL   UNL     1      37.839 -25.912 -12.325  0.00  0.00    -0.112 Cl
ATOM     12  C   UNL     1      38.241 -24.513 -13.348  0.00  0.00    +0.113 C 
ENDBRANCH  10  12
ENDBRANCH   9  10
BRANCH   9  13
ATOM     13  C   UNL     1      37.544 -23.099 -15.688  0.00  0.00    +0.099 C 
BRANCH  13  15
ATOM     14 CL   UNL     1      36.647 -21.880 -17.939  0.00  0.00    -0.112 Cl
ATOM     15  C   UNL     1      37.235 -21.727 -16.266  0.00  0.00    +0.113 C 
ENDBRANCH  13  15
ENDBRANCH   9  13
ENDBRANCH   1   9
TORSDOF 5
ENDMDL
MODEL 2
REMARK VINA RESULT:      -5.6      2.246      4.781
REMARK  Name = 2907
REMARK  5 active torsions:
REMARK  status: ('A' for Active; 'I' for Inactive)
REMARK    1  A    between atoms: P_1  and  N_9
REMARK    2  A    between atoms: N_9  and  C_10
REMARK    3  A    between atoms: N_9  and  C_13
REMARK    4  A    between atoms: C_10  and  C_12
REMARK    5  A    between atoms: C_13  and  C_15
REMARK                            x       y       z     vdW  Elec       q    Type
REMARK                         _______ _______ _______ _____ _____    ______ ____
ROOT
ATOM      1  P   UNL     1      36.875 -25.864 -14.924  0.00  0.00    +0.348 P 
ATOM      2  O   UNL     1      36.993 -26.347 -13.368  0.00  0.00    -0.292 OA
ATOM      3  O   UNL     1      36.045 -26.852 -15.707  0.00  0.00    -0.254 OA
ATOM      4  N   UNL     1      38.459 -25.733 -15.431  0.00  0.00    -0.222 NA
ATOM      5  C   UNL     1      39.397 -25.092 -14.508  0.00  0.00    +0.080 C 
ATOM      6  C   UNL     1      39.341 -25.761 -13.135  0.00  0.00    +0.050 C 
ATOM      7  C   UNL     1      37.942 -25.701 -12.524  0.00  0.00    +0.153 C 
ATOM      8  H   UNL     1      38.461 -25.195 -16.298  0.00  0.00    +0.133 HD
ENDROOT
BRANCH   1   9
ATOM      9  N   UNL     1      36.243 -24.329 -14.880  0.00  0.00    -0.196 NA
BRANCH   9  10
ATOM     10  C   UNL     1      36.924 -23.318 -15.686  0.00  0.00    +0.099 C 
BRANCH  10  12
ATOM     11 CL   UNL     1      36.709 -21.743 -17.883  0.00  0.00    -0.112 Cl
ATOM     12  C   UNL     1      35.910 -22.536 -16.505  0.00  0.00    +0.113 C 
ENDBRANCH  10  12
ENDBRANCH   9  10
BRANCH   9  13
ATOM     13  C   UNL     1      34.797 -24.211 -15.055  0.00  0.00    +0.099 C 
BRANCH  13  15
ATOM     14 CL   UNL     1      32.431 -24.820 -13.878  0.00  0.00    -0.112 Cl
ATOM     15  C   UNL     1      34.105 -24.243 -13.701  0.00  0.00    +0.113 C 
ENDBRANCH  13  15
ENDBRANCH   9  13
ENDBRANCH   1   9
TORSDOF 5
ENDMDL
MODEL 3
REMARK VINA RESULT:      -5.3      9.145     10.698
REMARK  Name = 2907
REMARK  5 active torsions:
REMARK  status: ('A' for Active; 'I' for Inactive)
REMARK    1  A    between atoms: P_1  and  N_9
REMARK    2  A    between atoms: N_9  and  C_10
REMARK    3  A    between atoms: N_9  and  C_13
REMARK    4  A    between atoms: C_10  and  C_12
REMARK    5  A    between atoms: C_13  and  C_15
REMARK                            x       y       z     vdW  Elec       q    Type
REMARK                         _______ _______ _______ _____ _____    ______ ____
ROOT
ATOM      1  P   UNL     1      35.033 -17.919 -23.255  0.00  0.00    +0.348 P 
ATOM      2  O   UNL     1      34.010 -19.107 -22.798  0.00  0.00    -0.292 OA
ATOM      3  O   UNL     1      35.077 -17.830 -24.762  0.00  0.00    -0.254 OA
ATOM      4  N   UNL     1      36.483 -18.333 -22.542  0.00  0.00    -0.222 NA
ATOM      5  C   UNL     1      36.427 -18.792 -21.152  0.00  0.00    +0.080 C 
ATOM      6  C   UNL     1      35.425 -19.937 -21.005  0.00  0.00    +0.050 C 
ATOM      7  C   UNL     1      34.019 -19.528 -21.437  0.00  0.00    +0.153 C 
ATOM      8  H   UNL     1      37.087 -17.512 -22.572  0.00  0.00    +0.133 HD
ENDROOT
BRANCH   1   9
ATOM      9  N   UNL     1      34.494 -16.537 -22.508  0.00  0.00    -0.196 NA
BRANCH   9  10
ATOM     10  C   UNL     1      34.877 -16.357 -21.110  0.00  0.00    +0.099 C 
BRANCH  10  12
ATOM     11 CL   UNL     1      32.702 -15.001 -20.225  0.00  0.00    -0.112 Cl
ATOM     12  C   UNL     1      34.436 -14.986 -20.622  0.00  0.00    +0.113 C 
ENDBRANCH  10  12
ENDBRANCH   9  10
BRANCH   9  13
ATOM     13  C   UNL     1      34.678 -15.284 -23.238  0.00  0.00    +0.099 C 
BRANCH  13  15
ATOM     14 CL   UNL     1      32.619 -13.533 -23.463  0.00  0.00    -0.112 Cl
ATOM     15  C   UNL     1      33.445 -14.985 -24.077  0.00  0.00    +0.113 C 
ENDBRANCH  13  15
ENDBRANCH   9  13
ENDBRANCH   1   9
TORSDOF 5
ENDMDL
MODEL 4
REMARK VINA RESULT:      -5.3      2.579      4.210
REMARK  Name = 2907
REMARK  5 active torsions:
REMARK  status: ('A' for Active; 'I' for Inactive)
REMARK    1  A    between atoms: P_1  and  N_9
REMARK    2  A    between atoms: N_9  and  C_10
REMARK    3  A    between atoms: N_9  and  C_13
REMARK    4  A    between atoms: C_10  and  C_12
REMARK    5  A    between atoms: C_13  and  C_15
REMARK                            x       y       z     vdW  Elec       q    Type
REMARK                         _______ _______ _______ _____ _____    ______ ____
ROOT
ATOM      1  P   UNL     1      33.265 -23.966 -13.639  0.00  0.00    +0.348 P 
ATOM      2  O   UNL     1      32.179 -25.166 -13.425  0.00  0.00    -0.292 OA
ATOM      3  O   UNL     1      34.203 -23.905 -12.456  0.00  0.00    -0.254 OA
ATOM      4  N   UNL     1      32.329 -22.602 -13.852  0.00  0.00    -0.222 NA
ATOM      5  C   UNL     1      31.163 -22.733 -14.728  0.00  0.00    +0.080 C 
ATOM      6  C   UNL     1      30.287 -23.905 -14.284  0.00  0.00    +0.050 C 
ATOM      7  C   UNL     1      31.051 -25.227 -14.294  0.00  0.00    +0.153 C 
ATOM      8  H   UNL     1      32.928 -21.874 -14.242  0.00  0.00    +0.133 HD
ENDROOT
BRANCH   1   9
ATOM      9  N   UNL     1      34.017 -24.279 -15.086  0.00  0.00    -0.196 NA
BRANCH   9  10
ATOM     10  C   UNL     1      34.215 -23.141 -15.980  0.00  0.00    +0.099 C 
BRANCH  10  12
ATOM     11 CL   UNL     1      34.236 -22.386 -18.584  0.00  0.00    -0.112 Cl
ATOM     12  C   UNL     1      33.515 -23.392 -17.306  0.00  0.00    +0.113 C 
ENDBRANCH  10  12
ENDBRANCH   9  10
BRANCH   9  13
ATOM     13  C   UNL     1      35.236 -25.084 -15.031  0.00  0.00    +0.099 C 
BRANCH  13  15
ATOM     14 CL   UNL     1      37.475 -24.308 -13.712  0.00  0.00    -0.112 Cl
ATOM     15  C   UNL     1      36.457 -24.188 -15.167  0.00  0.00    +0.113 C 
ENDBRANCH  13  15
ENDBRANCH   9  13
ENDBRANCH   1   9
TORSDOF 5
ENDMDL
MODEL 5
REMARK VINA RESULT:      -5.3      9.283     11.104
REMARK  Name = 2907
REMARK  5 active torsions:
REMARK  status: ('A' for Active; 'I' for Inactive)
REMARK    1  A    between atoms: P_1  and  N_9
REMARK    2  A    between atoms: N_9  and  C_10
REMARK    3  A    between atoms: N_9  and  C_13
REMARK    4  A    between atoms: C_10  and  C_12
REMARK    5  A    between atoms: C_13  and  C_15
REMARK                            x       y       z     vdW  Elec       q    Type
REMARK                         _______ _______ _______ _____ _____    ______ ____
ROOT
ATOM      1  P   UNL     1      34.392 -15.655 -21.087  0.00  0.00    +0.348 P 
ATOM      2  O   UNL     1      32.872 -15.134 -20.796  0.00  0.00    -0.292 OA
ATOM      3  O   UNL     1      35.119 -15.874 -19.782  0.00  0.00    -0.254 OA
ATOM      4  N   UNL     1      35.050 -14.468 -22.057  0.00  0.00    -0.222 NA
ATOM      5  C   UNL     1      34.205 -13.954 -23.137  0.00  0.00    +0.080 C 
ATOM      6  C   UNL     1      32.854 -13.493 -22.588  0.00  0.00    +0.050 C 
ATOM      7  C   UNL     1      32.106 -14.622 -21.883  0.00  0.00    +0.153 C 
ATOM      8  H   UNL     1      35.895 -14.849 -22.481  0.00  0.00    +0.133 HD
ENDROOT
BRANCH   1   9
ATOM      9  N   UNL     1      34.238 -17.022 -22.018  0.00  0.00    -0.196 NA
BRANCH   9  10
ATOM     10  C   UNL     1      35.326 -17.304 -22.950  0.00  0.00    +0.099 C 
BRANCH  10  12
ATOM     11 CL   UNL     1      34.473 -19.074 -24.819  0.00  0.00    -0.112 Cl
ATOM     12  C   UNL     1      34.788 -17.381 -24.370  0.00  0.00    +0.113 C 
ENDBRANCH  10  12
ENDBRANCH   9  10
BRANCH   9  13
ATOM     13  C   UNL     1      33.851 -18.248 -21.322  0.00  0.00    +0.099 C 
BRANCH  13  15
ATOM     14 CL   UNL     1      34.627 -20.592 -20.199  0.00  0.00    -0.112 Cl
ATOM     15  C   UNL     1      35.060 -19.155 -21.157  0.00  0.00    +0.113 C 
ENDBRANCH  13  15
ENDBRANCH   9  13
ENDBRANCH   1   9
TORSDOF 5
ENDMDL
MODEL 6
REMARK VINA RESULT:      -5.2      2.607      4.159
REMARK  Name = 2907
REMARK  5 active torsions:
REMARK  status: ('A' for Active; 'I' for Inactive)
REMARK    1  A    between atoms: P_1  and  N_9
REMARK    2  A    between atoms: N_9  and  C_10
REMARK    3  A    between atoms: N_9  and  C_13
REMARK    4  A    between atoms: C_10  and  C_12
REMARK    5  A    between atoms: C_13  and  C_15
REMARK                            x       y       z     vdW  Elec       q    Type
REMARK                         _______ _______ _______ _____ _____    ______ ____
ROOT
ATOM      1  P   UNL     1      35.323 -24.168 -13.061  0.00  0.00    +0.348 P 
ATOM      2  O   UNL     1      36.022 -23.279 -11.883  0.00  0.00    -0.292 OA
ATOM      3  O   UNL     1      33.903 -24.507 -12.675  0.00  0.00    -0.254 OA
ATOM      4  N   UNL     1      36.330 -25.487 -13.230  0.00  0.00    -0.222 NA
ATOM      5  C   UNL     1      37.770 -25.221 -13.235  0.00  0.00    +0.080 C 
ATOM      6  C   UNL     1      38.170 -24.410 -12.002  0.00  0.00    +0.050 C 
ATOM      7  C   UNL     1      37.431 -23.075 -11.928  0.00  0.00    +0.153 C 
ATOM      8  H   UNL     1      36.097 -25.942 -14.112  0.00  0.00    +0.133 HD
ENDROOT
BRANCH   1   9
ATOM      9  N   UNL     1      35.452 -23.269 -14.452  0.00  0.00    -0.196 NA
BRANCH   9  10
ATOM     10  C   UNL     1      36.402 -23.746 -15.453  0.00  0.00    +0.099 C 
BRANCH  10  12
ATOM     11 CL   UNL     1      36.945 -21.898 -17.362  0.00  0.00    -0.112 Cl
ATOM     12  C   UNL     1      37.385 -22.642 -15.807  0.00  0.00    +0.113 C 
ENDBRANCH  10  12
ENDBRANCH   9  10
BRANCH   9  13
ATOM     13  C   UNL     1      34.200 -22.881 -15.100  0.00  0.00    +0.099 C 
BRANCH  13  15
ATOM     14 CL   UNL     1      32.734 -22.976 -17.379  0.00  0.00    -0.112 Cl
ATOM     15  C   UNL     1      33.983 -23.718 -16.351  0.00  0.00    +0.113 C 
ENDBRANCH  13  15
ENDBRANCH   9  13
ENDBRANCH   1   9
TORSDOF 5
ENDMDL
MODEL 7
REMARK VINA RESULT:      -5.1      9.244     11.080
REMARK  Name = 2907
REMARK  5 active torsions:
REMARK  status: ('A' for Active; 'I' for Inactive)
REMARK    1  A    between atoms: P_1  and  N_9
REMARK    2  A    between atoms: N_9  and  C_10
REMARK    3  A    between atoms: N_9  and  C_13
REMARK    4  A    between atoms: C_10  and  C_12
REMARK    5  A    between atoms: C_13  and  C_15
REMARK                            x       y       z     vdW  Elec       q    Type
REMARK                         _______ _______ _______ _____ _____    ______ ____
ROOT
ATOM      1  P   UNL     1      35.037 -18.028 -23.245  0.00  0.00    +0.348 P 
ATOM      2  O   UNL     1      34.006 -19.021 -22.461  0.00  0.00    -0.292 OA
ATOM      3  O   UNL     1      34.815 -18.130 -24.735  0.00  0.00    -0.254 OA
ATOM      4  N   UNL     1      36.546 -18.519 -22.733  0.00  0.00    -0.222 NA
ATOM      5  C   UNL     1      36.700 -18.795 -21.303  0.00  0.00    +0.080 C 
ATOM      6  C   UNL     1      35.638 -19.787 -20.830  0.00  0.00    +0.050 C 
ATOM      7  C   UNL     1      34.221 -19.271 -21.074  0.00  0.00    +0.153 C 
ATOM      8  H   UNL     1      37.210 -17.785 -22.979  0.00  0.00    +0.133 HD
ENDROOT
BRANCH   1   9
ATOM      9  N   UNL     1      34.775 -16.511 -22.622  0.00  0.00    -0.196 NA
BRANCH   9  10
ATOM     10  C   UNL     1      34.842 -15.396 -23.564  0.00  0.00    +0.099 C 
BRANCH  10  12
ATOM     11 CL   UNL     1      33.305 -15.278 -25.795  0.00  0.00    -0.112 Cl
ATOM     12  C   UNL     1      33.444 -15.031 -24.039  0.00  0.00    +0.113 C 
ENDBRANCH  10  12
ENDBRANCH   9  10
BRANCH   9  13
ATOM     13  C   UNL     1      33.613 -16.353 -21.749  0.00  0.00    +0.099 C 
BRANCH  13  15
ATOM     14 CL   UNL     1      32.774 -14.078 -20.533  0.00  0.00    -0.112 Cl
ATOM     15  C   UNL     1      33.950 -15.413 -20.602  0.00  0.00    +0.113 C 
ENDBRANCH  13  15
ENDBRANCH   9  13
ENDBRANCH   1   9
TORSDOF 5
ENDMDL
MODEL 8
REMARK VINA RESULT:      -5.1     10.217     11.574
REMARK  Name = 2907
REMARK  5 active torsions:
REMARK  status: ('A' for Active; 'I' for Inactive)
REMARK    1  A    between atoms: P_1  and  N_9
REMARK    2  A    between atoms: N_9  and  C_10
REMARK    3  A    between atoms: N_9  and  C_13
REMARK    4  A    between atoms: C_10  and  C_12
REMARK    5  A    between atoms: C_13  and  C_15
REMARK                            x       y       z     vdW  Elec       q    Type
REMARK                         _______ _______ _______ _____ _____    ______ ____
ROOT
ATOM      1  P   UNL     1      34.613 -16.619 -21.378  0.00  0.00    +0.348 P 
ATOM      2  O   UNL     1      35.903 -17.200 -22.194  0.00  0.00    -0.292 OA
ATOM      3  O   UNL     1      35.076 -15.724 -20.254  0.00  0.00    -0.254 OA
ATOM      4  N   UNL     1      33.794 -17.986 -20.884  0.00  0.00    -0.222 NA
ATOM      5  C   UNL     1      33.647 -19.059 -21.870  0.00  0.00    +0.080 C 
ATOM      6  C   UNL     1      35.008 -19.445 -22.450  0.00  0.00    +0.050 C 
ATOM      7  C   UNL     1      35.701 -18.262 -23.122  0.00  0.00    +0.153 C 
ATOM      8  H   UNL     1      32.858 -17.698 -20.599  0.00  0.00    +0.133 HD
ENDROOT
BRANCH   1   9
ATOM      9  N   UNL     1      33.663 -15.856 -22.507  0.00  0.00    -0.196 NA
BRANCH   9  10
ATOM     10  C   UNL     1      32.619 -14.973 -21.993  0.00  0.00    +0.099 C 
BRANCH  10  12
ATOM     11 CL   UNL     1      31.732 -12.438 -21.617  0.00  0.00    -0.112 Cl
ATOM     12  C   UNL     1      33.003 -13.521 -22.231  0.00  0.00    +0.113 C 
ENDBRANCH  10  12
ENDBRANCH   9  10
BRANCH   9  13
ATOM     13  C   UNL     1      34.357 -15.209 -23.618  0.00  0.00    +0.099 C 
BRANCH  13  15
ATOM     14 CL   UNL     1      32.830 -14.574 -25.767  0.00  0.00    -0.112 Cl
ATOM     15  C   UNL     1      33.857 -15.770 -24.940  0.00  0.00    +0.113 C 
ENDBRANCH  13  15
ENDBRANCH   9  13
ENDBRANCH   1   9
TORSDOF 5
ENDMDL
MODEL 9
REMARK VINA RESULT:      -5.1      8.753     10.251
REMARK  Name = 2907
REMARK  5 active torsions:
REMARK  status: ('A' for Active; 'I' for Inactive)
REMARK    1  A    between atoms: P_1  and  N_9
REMARK    2  A    between atoms: N_9  and  C_10
REMARK    3  A    between atoms: N_9  and  C_13
REMARK    4  A    between atoms: C_10  and  C_12
REMARK    5  A    between atoms: C_13  and  C_15
REMARK                            x       y       z     vdW  Elec       q    Type
REMARK                         _______ _______ _______ _____ _____    ______ ____
ROOT
ATOM      1  P   UNL     1      35.709 -18.000 -22.782  0.00  0.00    +0.348 P 
ATOM      2  O   UNL     1      35.737 -16.501 -23.428  0.00  0.00    -0.292 OA
ATOM      3  O   UNL     1      37.074 -18.351 -22.238  0.00  0.00    -0.254 OA
ATOM      4  N   UNL     1      35.189 -18.974 -24.032  0.00  0.00    -0.222 NA
ATOM      5  C   UNL     1      34.072 -18.475 -24.836  0.00  0.00    +0.080 C 
ATOM      6  C   UNL     1      34.372 -17.070 -25.357  0.00  0.00    +0.050 C 
ATOM      7  C   UNL     1      34.632 -16.081 -24.222  0.00  0.00    +0.153 C 
ATOM      8  H   UNL     1      34.906 -19.868 -23.630  0.00  0.00    +0.133 HD
ENDROOT
BRANCH   1   9
ATOM      9  N   UNL     1      34.506 -17.984 -21.637  0.00  0.00    -0.196 NA
BRANCH   9  10
ATOM     10  C   UNL     1      34.447 -19.129 -20.733  0.00  0.00    +0.099 C 
BRANCH  10  12
ATOM     11 CL   UNL     1      33.013 -21.214 -19.758  0.00  0.00    -0.112 Cl
ATOM     12  C   UNL     1      33.138 -19.878 -20.927  0.00  0.00    +0.113 C 
ENDBRANCH  10  12
ENDBRANCH   9  10
BRANCH   9  13
ATOM     13  C   UNL     1      34.341 -16.745 -20.879  0.00  0.00    +0.099 C 
BRANCH  13  15
ATOM     14 CL   UNL     1      32.781 -14.605 -20.294  0.00  0.00    -0.112 Cl
ATOM     15  C   UNL     1      32.941 -16.189 -21.090  0.00  0.00    +0.113 C 
ENDBRANCH  13  15
ENDBRANCH   9  13
ENDBRANCH   1   9
TORSDOF 5
ENDMDL
