MODEL 1
REMARK VINA RESULT:     -10.5      0.000      0.000
REMARK  Name = 13493
REMARK  10 active torsions:
REMARK  status: ('A' for Active; 'I' for Inactive)
REMARK    1  A    between atoms: N_1  and  C_13
REMARK    2  A    between atoms: C_3  and  C_21
REMARK    3  A    between atoms: C_8  and  N_12
REMARK    4  A    between atoms: C_13  and  C_14
REMARK    5  A    between atoms: C_14  and  N_15
REMARK    6  A    between atoms: N_15  and  C_17
REMARK    7  A    between atoms: N_15  and  C_19
REMARK    8  A    between atoms: C_21  and  C_22
REMARK    9  A    between atoms: C_27  and  O_28
REMARK   10  A    between atoms: O_28  and  C_29
REMARK                            x       y       z     vdW  Elec       q    Type
REMARK                         _______ _______ _______ _____ _____    ______ ____
ROOT
ATOM      1  N   UNL     1      33.360 -23.588 -15.932  0.00  0.00    -0.266 N 
ATOM      2  N   UNL     1      35.378 -22.927 -16.587  0.00  0.00    -0.390 NA
ATOM      3  C   UNL     1      34.085 -23.181 -16.950  0.00  0.00    +0.168 C 
ATOM      4  C   UNL     1      34.222 -23.598 -14.860  0.00  0.00    +0.079 C 
ATOM      5  C   UNL     1      35.496 -23.187 -15.246  0.00  0.00    +0.147 C 
ATOM      6  C   UNL     1      33.992 -23.947 -13.518  0.00  0.00    -0.002 C 
ATOM      7  C   UNL     1      36.573 -23.101 -14.363  0.00  0.00    +0.053 C 
ATOM      8  C   UNL     1      36.326 -23.452 -13.032  0.00  0.00    +0.127 C 
ATOM      9  C   UNL     1      35.060 -23.868 -12.615  0.00  0.00    +0.078 C 
ENDROOT
BRANCH   8  12
ATOM     10  O   UNL     1      37.630 -24.386 -11.375  0.00  0.00    -0.126 OA
ATOM     11  O   UNL     1      38.044 -22.320 -11.990  0.00  0.00    -0.126 OA
ATOM     12  N   UNL     1      37.385 -23.383 -12.087  0.00  0.00    +0.054 N 
ENDBRANCH   8  12
BRANCH   1  13
ATOM     13  C   UNL     1      31.964 -23.952 -15.914  0.00  0.00    +0.075 C 
BRANCH  13  14
ATOM     14  C   UNL     1      31.086 -22.818 -15.391  0.00  0.00    -0.055 C 
BRANCH  14  15
ATOM     15  N   UNL     1      29.688 -23.229 -15.380  0.00  0.00    +0.388 N 
ATOM     16  H   UNL     1      29.319 -23.072 -14.441  0.00  0.00    -0.080 HD
BRANCH  15  17
ATOM     17  C   UNL     1      28.907 -22.431 -16.326  0.00  0.00    -0.077 C 
ATOM     18  C   UNL     1      27.440 -22.395 -15.934  0.00  0.00    -0.025 C 
ENDBRANCH  15  17
BRANCH  15  19
ATOM     19  C   UNL     1      29.566 -24.654 -15.695  0.00  0.00    -0.077 C 
ATOM     20  C   UNL     1      29.028 -25.435 -14.509  0.00  0.00    -0.025 C 
ENDBRANCH  15  19
ENDBRANCH  14  15
ENDBRANCH  13  14
ENDBRANCH   1  13
BRANCH   3  21
ATOM     21  C   UNL     1      33.543 -23.024 -18.315  0.00  0.00    +0.101 C 
BRANCH  21  22
ATOM     22  C   UNL     1      34.226 -21.930 -19.127  0.00  0.00    -0.014 C 
ATOM     23  C   UNL     1      35.618 -21.882 -19.203  0.00  0.00    -0.001 C 
ATOM     24  C   UNL     1      33.458 -20.977 -19.796  0.00  0.00    -0.001 C 
ATOM     25  C   UNL     1      36.242 -20.881 -19.946  0.00  0.00    +0.037 C 
ATOM     26  C   UNL     1      34.081 -19.976 -20.541  0.00  0.00    +0.037 C 
ATOM     27  C   UNL     1      35.474 -19.928 -20.615  0.00  0.00    +0.139 C 
BRANCH  27  28
ATOM     28  O   UNL     1      36.083 -18.952 -21.342  0.00  0.00    -0.475 OA
BRANCH  28  29
ATOM     29  C   UNL     1      35.249 -18.141 -22.168  0.00  0.00    +0.206 C 
ATOM     30  C   UNL     1      35.294 -18.671 -23.586  0.00  0.00    +0.051 C 
ENDBRANCH  28  29
ENDBRANCH  27  28
ENDBRANCH  21  22
ENDBRANCH   3  21
TORSDOF 10
ENDMDL
MODEL 2
REMARK VINA RESULT:      -9.9      2.948      5.417
REMARK  Name = 13493
REMARK  10 active torsions:
REMARK  status: ('A' for Active; 'I' for Inactive)
REMARK    1  A    between atoms: N_1  and  C_13
REMARK    2  A    between atoms: C_3  and  C_21
REMARK    3  A    between atoms: C_8  and  N_12
REMARK    4  A    between atoms: C_13  and  C_14
REMARK    5  A    between atoms: C_14  and  N_15
REMARK    6  A    between atoms: N_15  and  C_17
REMARK    7  A    between atoms: N_15  and  C_19
REMARK    8  A    between atoms: C_21  and  C_22
REMARK    9  A    between atoms: C_27  and  O_28
REMARK   10  A    between atoms: O_28  and  C_29
REMARK                            x       y       z     vdW  Elec       q    Type
REMARK                         _______ _______ _______ _____ _____    ______ ____
ROOT
ATOM      1  N   UNL     1      34.338 -22.911 -16.321  0.00  0.00    -0.266 N 
ATOM      2  N   UNL     1      32.903 -22.945 -18.018  0.00  0.00    -0.390 NA
ATOM      3  C   UNL     1      34.197 -22.762 -17.619  0.00  0.00    +0.168 C 
ATOM      4  C   UNL     1      33.076 -23.205 -15.857  0.00  0.00    +0.079 C 
ATOM      5  C   UNL     1      32.158 -23.231 -16.903  0.00  0.00    +0.147 C 
ATOM      6  C   UNL     1      32.632 -23.463 -14.548  0.00  0.00    -0.002 C 
ATOM      7  C   UNL     1      30.801 -23.503 -16.723  0.00  0.00    +0.053 C 
ATOM      8  C   UNL     1      30.377 -23.758 -15.416  0.00  0.00    +0.127 C 
ATOM      9  C   UNL     1      31.274 -23.738 -14.346  0.00  0.00    +0.078 C 
ENDROOT
BRANCH   8  12
ATOM     10  O   UNL     1      28.700 -25.127 -14.622  0.00  0.00    -0.126 OA
ATOM     11  O   UNL     1      28.141 -23.200 -15.514  0.00  0.00    -0.126 OA
ATOM     12  N   UNL     1      29.006 -24.042 -15.172  0.00  0.00    +0.054 N 
ENDBRANCH   8  12
BRANCH   1  13
ATOM     13  C   UNL     1      35.539 -22.798 -15.530  0.00  0.00    +0.075 C 
BRANCH  13  14
ATOM     14  C   UNL     1      36.171 -24.160 -15.256  0.00  0.00    -0.055 C 
BRANCH  14  15
ATOM     15  N   UNL     1      36.903 -24.130 -13.996  0.00  0.00    +0.388 N 
ATOM     16  H   UNL     1      37.760 -23.593 -14.139  0.00  0.00    -0.080 HD
BRANCH  15  17
ATOM     17  C   UNL     1      36.111 -23.472 -12.955  0.00  0.00    -0.077 C 
ATOM     18  C   UNL     1      35.338 -24.487 -12.130  0.00  0.00    -0.025 C 
ENDBRANCH  15  17
BRANCH  15  19
ATOM     19  C   UNL     1      37.267 -25.484 -13.577  0.00  0.00    -0.077 C 
ATOM     20  C   UNL     1      38.758 -25.595 -13.310  0.00  0.00    -0.025 C 
ENDBRANCH  15  19
ENDBRANCH  14  15
ENDBRANCH  13  14
ENDBRANCH   1  13
BRANCH   3  21
ATOM     21  C   UNL     1      35.322 -22.437 -18.520  0.00  0.00    +0.101 C 
BRANCH  21  22
ATOM     22  C   UNL     1      35.022 -21.307 -19.498  0.00  0.00    -0.014 C 
ATOM     23  C   UNL     1      33.700 -20.991 -19.815  0.00  0.00    -0.001 C 
ATOM     24  C   UNL     1      36.069 -20.590 -20.075  0.00  0.00    -0.001 C 
ATOM     25  C   UNL     1      33.427 -19.957 -20.711  0.00  0.00    +0.037 C 
ATOM     26  C   UNL     1      35.796 -19.555 -20.970  0.00  0.00    +0.037 C 
ATOM     27  C   UNL     1      34.475 -19.239 -21.288  0.00  0.00    +0.139 C 
BRANCH  27  28
ATOM     28  O   UNL     1      34.208 -18.230 -22.160  0.00  0.00    -0.475 OA
BRANCH  28  29
ATOM     29  C   UNL     1      35.102 -18.069 -23.261  0.00  0.00    +0.206 C 
ATOM     30  C   UNL     1      34.557 -18.826 -24.454  0.00  0.00    +0.051 C 
ENDBRANCH  28  29
ENDBRANCH  27  28
ENDBRANCH  21  22
ENDBRANCH   3  21
TORSDOF 10
ENDMDL
MODEL 3
REMARK VINA RESULT:      -9.5      2.190      6.717
REMARK  Name = 13493
REMARK  10 active torsions:
REMARK  status: ('A' for Active; 'I' for Inactive)
REMARK    1  A    between atoms: N_1  and  C_13
REMARK    2  A    between atoms: C_3  and  C_21
REMARK    3  A    between atoms: C_8  and  N_12
REMARK    4  A    between atoms: C_13  and  C_14
REMARK    5  A    between atoms: C_14  and  N_15
REMARK    6  A    between atoms: N_15  and  C_17
REMARK    7  A    between atoms: N_15  and  C_19
REMARK    8  A    between atoms: C_21  and  C_22
REMARK    9  A    between atoms: C_27  and  O_28
REMARK   10  A    between atoms: O_28  and  C_29
REMARK                            x       y       z     vdW  Elec       q    Type
REMARK                         _______ _______ _______ _____ _____    ______ ____
ROOT
ATOM      1  N   UNL     1      33.241 -23.240 -17.023  0.00  0.00    -0.266 N 
ATOM      2  N   UNL     1      35.445 -23.018 -16.851  0.00  0.00    -0.390 NA
ATOM      3  C   UNL     1      34.309 -23.575 -16.335  0.00  0.00    +0.168 C 
ATOM      4  C   UNL     1      33.706 -22.429 -18.032  0.00  0.00    +0.079 C 
ATOM      5  C   UNL     1      35.087 -22.274 -17.946  0.00  0.00    +0.147 C 
ATOM      6  C   UNL     1      33.007 -21.782 -19.067  0.00  0.00    -0.002 C 
ATOM      7  C   UNL     1      35.828 -21.502 -18.841  0.00  0.00    +0.053 C 
ATOM      8  C   UNL     1      35.117 -20.867 -19.863  0.00  0.00    +0.127 C 
ATOM      9  C   UNL     1      33.732 -21.002 -19.977  0.00  0.00    +0.078 C 
ENDROOT
BRANCH   8  12
ATOM     10  O   UNL     1      36.982 -19.684 -20.530  0.00  0.00    -0.126 OA
ATOM     11  O   UNL     1      35.257 -19.768 -21.887  0.00  0.00    -0.126 OA
ATOM     12  N   UNL     1      35.820 -20.067 -20.806  0.00  0.00    +0.054 N 
ENDBRANCH   8  12
BRANCH   1  13
ATOM     13  C   UNL     1      31.868 -23.624 -16.794  0.00  0.00    +0.075 C 
BRANCH  13  14
ATOM     14  C   UNL     1      31.235 -22.824 -15.660  0.00  0.00    -0.055 C 
BRANCH  14  15
ATOM     15  N   UNL     1      30.053 -23.514 -15.158  0.00  0.00    +0.388 N 
ATOM     16  H   UNL     1      29.715 -23.010 -14.337  0.00  0.00    -0.080 HD
BRANCH  15  17
ATOM     17  C   UNL     1      28.992 -23.523 -16.167  0.00  0.00    -0.077 C 
ATOM     18  C   UNL     1      27.939 -22.471 -15.865  0.00  0.00    -0.025 C 
ENDBRANCH  15  17
BRANCH  15  19
ATOM     19  C   UNL     1      30.385 -24.883 -14.759  0.00  0.00    -0.077 C 
ATOM     20  C   UNL     1      31.074 -24.909 -13.405  0.00  0.00    -0.025 C 
ENDBRANCH  15  19
ENDBRANCH  14  15
ENDBRANCH  13  14
ENDBRANCH   1  13
BRANCH   3  21
ATOM     21  C   UNL     1      34.261 -24.453 -15.148  0.00  0.00    +0.101 C 
BRANCH  21  22
ATOM     22  C   UNL     1      35.632 -24.898 -14.654  0.00  0.00    -0.014 C 
ATOM     23  C   UNL     1      36.301 -24.150 -13.685  0.00  0.00    -0.001 C 
ATOM     24  C   UNL     1      36.218 -26.053 -15.172  0.00  0.00    -0.001 C 
ATOM     25  C   UNL     1      37.557 -24.558 -13.234  0.00  0.00    +0.037 C 
ATOM     26  C   UNL     1      37.473 -26.461 -14.720  0.00  0.00    +0.037 C 
ATOM     27  C   UNL     1      38.142 -25.713 -13.751  0.00  0.00    +0.139 C 
BRANCH  27  28
ATOM     28  O   UNL     1      39.366 -26.111 -13.310  0.00  0.00    -0.475 OA
BRANCH  28  29
ATOM     29  C   UNL     1      40.386 -26.286 -14.293  0.00  0.00    +0.206 C 
ATOM     30  C   UNL     1      40.482 -25.031 -15.134  0.00  0.00    +0.051 C 
ENDBRANCH  28  29
ENDBRANCH  27  28
ENDBRANCH  21  22
ENDBRANCH   3  21
TORSDOF 10
ENDMDL
MODEL 4
REMARK VINA RESULT:      -8.8      5.267     10.641
REMARK  Name = 13493
REMARK  10 active torsions:
REMARK  status: ('A' for Active; 'I' for Inactive)
REMARK    1  A    between atoms: N_1  and  C_13
REMARK    2  A    between atoms: C_3  and  C_21
REMARK    3  A    between atoms: C_8  and  N_12
REMARK    4  A    between atoms: C_13  and  C_14
REMARK    5  A    between atoms: C_14  and  N_15
REMARK    6  A    between atoms: N_15  and  C_17
REMARK    7  A    between atoms: N_15  and  C_19
REMARK    8  A    between atoms: C_21  and  C_22
REMARK    9  A    between atoms: C_27  and  O_28
REMARK   10  A    between atoms: O_28  and  C_29
REMARK                            x       y       z     vdW  Elec       q    Type
REMARK                         _______ _______ _______ _____ _____    ______ ____
ROOT
ATOM      1  N   UNL     1      34.999 -16.058 -22.657  0.00  0.00    -0.266 N 
ATOM      2  N   UNL     1      34.193 -16.307 -20.601  0.00  0.00    -0.390 NA
ATOM      3  C   UNL     1      34.987 -16.821 -21.587  0.00  0.00    +0.168 C 
ATOM      4  C   UNL     1      34.173 -15.000 -22.350  0.00  0.00    +0.079 C 
ATOM      5  C   UNL     1      33.655 -15.134 -21.065  0.00  0.00    +0.147 C 
ATOM      6  C   UNL     1      33.815 -13.881 -23.121  0.00  0.00    -0.002 C 
ATOM      7  C   UNL     1      32.787 -14.205 -20.489  0.00  0.00    +0.053 C 
ATOM      8  C   UNL     1      32.441 -13.098 -21.270  0.00  0.00    +0.127 C 
ATOM      9  C   UNL     1      32.944 -12.936 -22.562  0.00  0.00    +0.078 C 
ENDROOT
BRANCH   8  12
ATOM     10  O   UNL     1      31.636 -11.835 -19.516  0.00  0.00    -0.126 OA
ATOM     11  O   UNL     1      30.733 -11.565 -21.500  0.00  0.00    -0.126 OA
ATOM     12  N   UNL     1      31.561 -12.118 -20.736  0.00  0.00    +0.054 N 
ENDBRANCH   8  12
BRANCH   1  13
ATOM     13  C   UNL     1      35.710 -16.260 -23.896  0.00  0.00    +0.075 C 
BRANCH  13  14
ATOM     14  C   UNL     1      34.837 -15.958 -25.110  0.00  0.00    -0.055 C 
BRANCH  14  15
ATOM     15  N   UNL     1      33.801 -16.974 -25.248  0.00  0.00    +0.388 N 
ATOM     16  H   UNL     1      33.360 -17.104 -24.337  0.00  0.00    -0.080 HD
BRANCH  15  17
ATOM     17  C   UNL     1      32.777 -16.541 -26.202  0.00  0.00    -0.077 C 
ATOM     18  C   UNL     1      32.871 -15.049 -26.468  0.00  0.00    -0.025 C 
ENDBRANCH  15  17
BRANCH  15  19
ATOM     19  C   UNL     1      34.381 -18.250 -25.670  0.00  0.00    -0.077 C 
ATOM     20  C   UNL     1      34.340 -19.271 -24.546  0.00  0.00    -0.025 C 
ENDBRANCH  15  19
ENDBRANCH  14  15
ENDBRANCH  13  14
ENDBRANCH   1  13
BRANCH   3  21
ATOM     21  C   UNL     1      35.753 -18.080 -21.486  0.00  0.00    +0.101 C 
BRANCH  21  22
ATOM     22  C   UNL     1      34.974 -19.226 -20.852  0.00  0.00    -0.014 C 
ATOM     23  C   UNL     1      35.654 -20.253 -20.195  0.00  0.00    -0.001 C 
ATOM     24  C   UNL     1      33.582 -19.248 -20.928  0.00  0.00    -0.001 C 
ATOM     25  C   UNL     1      34.940 -21.302 -19.616  0.00  0.00    +0.037 C 
ATOM     26  C   UNL     1      32.868 -20.296 -20.348  0.00  0.00    +0.037 C 
ATOM     27  C   UNL     1      33.547 -21.324 -19.692  0.00  0.00    +0.139 C 
BRANCH  27  28
ATOM     28  O   UNL     1      32.851 -22.346 -19.125  0.00  0.00    -0.475 OA
BRANCH  28  29
ATOM     29  C   UNL     1      33.479 -23.040 -18.047  0.00  0.00    +0.206 C 
ATOM     30  C   UNL     1      32.485 -23.199 -16.917  0.00  0.00    +0.051 C 
ENDBRANCH  28  29
ENDBRANCH  27  28
ENDBRANCH  21  22
ENDBRANCH   3  21
TORSDOF 10
ENDMDL
MODEL 5
REMARK VINA RESULT:      -8.7      2.077      6.896
REMARK  Name = 13493
REMARK  10 active torsions:
REMARK  status: ('A' for Active; 'I' for Inactive)
REMARK    1  A    between atoms: N_1  and  C_13
REMARK    2  A    between atoms: C_3  and  C_21
REMARK    3  A    between atoms: C_8  and  N_12
REMARK    4  A    between atoms: C_13  and  C_14
REMARK    5  A    between atoms: C_14  and  N_15
REMARK    6  A    between atoms: N_15  and  C_17
REMARK    7  A    between atoms: N_15  and  C_19
REMARK    8  A    between atoms: C_21  and  C_22
REMARK    9  A    between atoms: C_27  and  O_28
REMARK   10  A    between atoms: O_28  and  C_29
REMARK                            x       y       z     vdW  Elec       q    Type
REMARK                         _______ _______ _______ _____ _____    ______ ____
ROOT
ATOM      1  N   UNL     1      32.971 -22.372 -18.016  0.00  0.00    -0.266 N 
ATOM      2  N   UNL     1      35.174 -22.597 -18.207  0.00  0.00    -0.390 NA
ATOM      3  C   UNL     1      34.037 -22.989 -17.558  0.00  0.00    +0.168 C 
ATOM      4  C   UNL     1      33.439 -21.541 -19.008  0.00  0.00    +0.079 C 
ATOM      5  C   UNL     1      34.819 -21.663 -19.147  0.00  0.00    +0.147 C 
ATOM      6  C   UNL     1      32.743 -20.646 -19.840  0.00  0.00    -0.002 C 
ATOM      7  C   UNL     1      35.562 -20.938 -20.079  0.00  0.00    +0.053 C 
ATOM      8  C   UNL     1      34.854 -20.053 -20.898  0.00  0.00    +0.127 C 
ATOM      9  C   UNL     1      33.470 -19.908 -20.783  0.00  0.00    +0.078 C 
ENDROOT
BRANCH   8  12
ATOM     10  O   UNL     1      35.124 -19.251 -23.044  0.00  0.00    -0.126 OA
ATOM     11  O   UNL     1      36.594 -18.671 -21.519  0.00  0.00    -0.126 OA
ATOM     12  N   UNL     1      35.558 -19.288 -21.867  0.00  0.00    +0.054 N 
ENDBRANCH   8  12
BRANCH   1  13
ATOM     13  C   UNL     1      31.600 -22.514 -17.592  0.00  0.00    +0.075 C 
BRANCH  13  14
ATOM     14  C   UNL     1      31.497 -23.055 -16.169  0.00  0.00    -0.055 C 
BRANCH  14  15
ATOM     15  N   UNL     1      30.147 -23.541 -15.913  0.00  0.00    +0.388 N 
ATOM     16  H   UNL     1      29.977 -24.343 -16.521  0.00  0.00    -0.080 HD
BRANCH  15  17
ATOM     17  C   UNL     1      30.009 -23.975 -14.521  0.00  0.00    -0.077 C 
ATOM     18  C   UNL     1      31.171 -23.483 -13.676  0.00  0.00    -0.025 C 
ENDBRANCH  15  17
BRANCH  15  19
ATOM     19  C   UNL     1      29.158 -22.507 -16.222  0.00  0.00    -0.077 C 
ATOM     20  C   UNL     1      27.750 -22.979 -15.902  0.00  0.00    -0.025 C 
ENDBRANCH  15  19
ENDBRANCH  14  15
ENDBRANCH  13  14
ENDBRANCH   1  13
BRANCH   3  21
ATOM     21  C   UNL     1      33.986 -23.987 -16.470  0.00  0.00    +0.101 C 
BRANCH  21  22
ATOM     22  C   UNL     1      35.271 -24.078 -15.656  0.00  0.00    -0.014 C 
ATOM     23  C   UNL     1      35.633 -25.284 -15.056  0.00  0.00    -0.001 C 
ATOM     24  C   UNL     1      36.085 -22.955 -15.512  0.00  0.00    -0.001 C 
ATOM     25  C   UNL     1      36.809 -25.366 -14.310  0.00  0.00    +0.037 C 
ATOM     26  C   UNL     1      37.262 -23.037 -14.767  0.00  0.00    +0.037 C 
ATOM     27  C   UNL     1      37.623 -24.243 -14.166  0.00  0.00    +0.139 C 
BRANCH  27  28
ATOM     28  O   UNL     1      38.771 -24.324 -13.440  0.00  0.00    -0.475 OA
BRANCH  28  29
ATOM     29  C   UNL     1      39.576 -25.488 -13.625  0.00  0.00    +0.206 C 
ATOM     30  C   UNL     1      40.351 -25.353 -14.918  0.00  0.00    +0.051 C 
ENDBRANCH  28  29
ENDBRANCH  27  28
ENDBRANCH  21  22
ENDBRANCH   3  21
TORSDOF 10
ENDMDL
MODEL 6
REMARK VINA RESULT:      -8.6     12.645     17.075
REMARK  Name = 13493
REMARK  10 active torsions:
REMARK  status: ('A' for Active; 'I' for Inactive)
REMARK    1  A    between atoms: N_1  and  C_13
REMARK    2  A    between atoms: C_3  and  C_21
REMARK    3  A    between atoms: C_8  and  N_12
REMARK    4  A    between atoms: C_13  and  C_14
REMARK    5  A    between atoms: C_14  and  N_15
REMARK    6  A    between atoms: N_15  and  C_17
REMARK    7  A    between atoms: N_15  and  C_19
REMARK    8  A    between atoms: C_21  and  C_22
REMARK    9  A    between atoms: C_27  and  O_28
REMARK   10  A    between atoms: O_28  and  C_29
REMARK                            x       y       z     vdW  Elec       q    Type
REMARK                         _______ _______ _______ _____ _____    ______ ____
ROOT
ATOM      1  N   UNL     1      33.143  -7.219 -22.980  0.00  0.00    -0.266 N 
ATOM      2  N   UNL     1      33.971  -6.649 -24.962  0.00  0.00    -0.390 NA
ATOM      3  C   UNL     1      34.046  -7.497 -23.893  0.00  0.00    +0.168 C 
ATOM      4  C   UNL     1      32.449  -6.141 -23.480  0.00  0.00    +0.079 C 
ATOM      5  C   UNL     1      32.951  -5.764 -24.723  0.00  0.00    +0.147 C 
ATOM      6  C   UNL     1      31.373  -5.424 -22.929  0.00  0.00    -0.002 C 
ATOM      7  C   UNL     1      32.438  -4.699 -25.464  0.00  0.00    +0.053 C 
ATOM      8  C   UNL     1      31.368  -3.997 -24.901  0.00  0.00    +0.127 C 
ATOM      9  C   UNL     1      30.843  -4.351 -23.656  0.00  0.00    +0.078 C 
ENDROOT
BRANCH   8  12
ATOM     10  O   UNL     1      31.353  -2.517 -26.670  0.00  0.00    -0.126 OA
ATOM     11  O   UNL     1      29.770  -2.353 -25.157  0.00  0.00    -0.126 OA
ATOM     12  N   UNL     1      30.803  -2.903 -25.611  0.00  0.00    +0.054 N 
ENDBRANCH   8  12
BRANCH   1  13
ATOM     13  C   UNL     1      32.906  -7.882 -21.720  0.00  0.00    +0.075 C 
BRANCH  13  14
ATOM     14  C   UNL     1      31.761  -8.887 -21.811  0.00  0.00    -0.055 C 
BRANCH  14  15
ATOM     15  N   UNL     1      32.046 -10.048 -20.978  0.00  0.00    +0.388 N 
ATOM     16  H   UNL     1      32.981 -10.385 -21.210  0.00  0.00    -0.080 HD
BRANCH  15  17
ATOM     17  C   UNL     1      32.021  -9.685 -19.559  0.00  0.00    -0.077 C 
ATOM     18  C   UNL     1      31.257 -10.713 -18.743  0.00  0.00    -0.025 C 
ENDBRANCH  15  17
BRANCH  15  19
ATOM     19  C   UNL     1      31.086 -11.122 -21.243  0.00  0.00    -0.077 C 
ATOM     20  C   UNL     1      31.794 -12.403 -21.650  0.00  0.00    -0.025 C 
ENDBRANCH  15  19
ENDBRANCH  14  15
ENDBRANCH  13  14
ENDBRANCH   1  13
BRANCH   3  21
ATOM     21  C   UNL     1      35.017  -8.602 -23.757  0.00  0.00    +0.101 C 
BRANCH  21  22
ATOM     22  C   UNL     1      34.687  -9.821 -24.610  0.00  0.00    -0.014 C 
ATOM     23  C   UNL     1      35.413 -10.075 -25.774  0.00  0.00    -0.001 C 
ATOM     24  C   UNL     1      33.659 -10.682 -24.226  0.00  0.00    -0.001 C 
ATOM     25  C   UNL     1      35.110 -11.191 -26.555  0.00  0.00    +0.037 C 
ATOM     26  C   UNL     1      33.357 -11.799 -25.006  0.00  0.00    +0.037 C 
ATOM     27  C   UNL     1      34.082 -12.052 -26.171  0.00  0.00    +0.139 C 
BRANCH  27  28
ATOM     28  O   UNL     1      33.788 -13.142 -26.932  0.00  0.00    -0.475 OA
BRANCH  28  29
ATOM     29  C   UNL     1      32.758 -14.007 -26.456  0.00  0.00    +0.206 C 
ATOM     30  C   UNL     1      33.377 -15.317 -26.017  0.00  0.00    +0.051 C 
ENDBRANCH  28  29
ENDBRANCH  27  28
ENDBRANCH  21  22
ENDBRANCH   3  21
TORSDOF 10
ENDMDL
MODEL 7
REMARK VINA RESULT:      -8.5      2.501      6.043
REMARK  Name = 13493
REMARK  10 active torsions:
REMARK  status: ('A' for Active; 'I' for Inactive)
REMARK    1  A    between atoms: N_1  and  C_13
REMARK    2  A    between atoms: C_3  and  C_21
REMARK    3  A    between atoms: C_8  and  N_12
REMARK    4  A    between atoms: C_13  and  C_14
REMARK    5  A    between atoms: C_14  and  N_15
REMARK    6  A    between atoms: N_15  and  C_17
REMARK    7  A    between atoms: N_15  and  C_19
REMARK    8  A    between atoms: C_21  and  C_22
REMARK    9  A    between atoms: C_27  and  O_28
REMARK   10  A    between atoms: O_28  and  C_29
REMARK                            x       y       z     vdW  Elec       q    Type
REMARK                         _______ _______ _______ _____ _____    ______ ____
ROOT
ATOM      1  N   UNL     1      32.949 -23.998 -15.278  0.00  0.00    -0.266 N 
ATOM      2  N   UNL     1      32.832 -24.887 -13.245  0.00  0.00    -0.390 NA
ATOM      3  C   UNL     1      32.211 -24.700 -14.449  0.00  0.00    +0.168 C 
ATOM      4  C   UNL     1      34.102 -23.716 -14.581  0.00  0.00    +0.079 C 
ATOM      5  C   UNL     1      34.052 -24.263 -13.302  0.00  0.00    +0.147 C 
ATOM      6  C   UNL     1      35.242 -22.995 -14.974  0.00  0.00    -0.002 C 
ATOM      7  C   UNL     1      35.085 -24.135 -12.373  0.00  0.00    +0.053 C 
ATOM      8  C   UNL     1      36.212 -23.414 -12.780  0.00  0.00    +0.127 C 
ATOM      9  C   UNL     1      36.292 -22.853 -14.056  0.00  0.00    +0.078 C 
ENDROOT
BRANCH   8  12
ATOM     10  O   UNL     1      38.155 -22.367 -12.113  0.00  0.00    -0.126 OA
ATOM     11  O   UNL     1      37.366 -23.996 -10.870  0.00  0.00    -0.126 OA
ATOM     12  N   UNL     1      37.297 -23.251 -11.877  0.00  0.00    +0.054 N 
ENDBRANCH   8  12
BRANCH   1  13
ATOM     13  C   UNL     1      32.645 -23.595 -16.630  0.00  0.00    +0.075 C 
BRANCH  13  14
ATOM     14  C   UNL     1      33.889 -23.575 -17.513  0.00  0.00    -0.055 C 
BRANCH  14  15
ATOM     15  N   UNL     1      34.057 -22.258 -18.114  0.00  0.00    +0.388 N 
ATOM     16  H   UNL     1      34.231 -21.587 -17.365  0.00  0.00    -0.080 HD
BRANCH  15  17
ATOM     17  C   UNL     1      35.206 -22.248 -19.022  0.00  0.00    -0.077 C 
ATOM     18  C   UNL     1      36.412 -21.591 -18.373  0.00  0.00    -0.025 C 
ENDBRANCH  15  17
BRANCH  15  19
ATOM     19  C   UNL     1      32.844 -21.856 -18.827  0.00  0.00    -0.077 C 
ATOM     20  C   UNL     1      33.154 -20.839 -19.912  0.00  0.00    -0.025 C 
ENDBRANCH  15  19
ENDBRANCH  14  15
ENDBRANCH  13  14
ENDBRANCH   1  13
BRANCH   3  21
ATOM     21  C   UNL     1      30.873 -25.217 -14.799  0.00  0.00    +0.101 C 
BRANCH  21  22
ATOM     22  C   UNL     1      29.924 -24.156 -15.342  0.00  0.00    -0.014 C 
ATOM     23  C   UNL     1      29.113 -24.441 -16.441  0.00  0.00    -0.001 C 
ATOM     24  C   UNL     1      29.867 -22.900 -14.740  0.00  0.00    -0.001 C 
ATOM     25  C   UNL     1      28.245 -23.469 -16.937  0.00  0.00    +0.037 C 
ATOM     26  C   UNL     1      28.998 -21.927 -15.235  0.00  0.00    +0.037 C 
ATOM     27  C   UNL     1      28.187 -22.212 -16.335  0.00  0.00    +0.139 C 
BRANCH  27  28
ATOM     28  O   UNL     1      27.339 -21.264 -16.818  0.00  0.00    -0.475 OA
BRANCH  28  29
ATOM     29  C   UNL     1      26.044 -21.700 -17.228  0.00  0.00    +0.206 C 
ATOM     30  C   UNL     1      25.798 -21.249 -18.652  0.00  0.00    +0.051 C 
ENDBRANCH  28  29
ENDBRANCH  27  28
ENDBRANCH  21  22
ENDBRANCH   3  21
TORSDOF 10
ENDMDL
MODEL 8
REMARK VINA RESULT:      -8.4      3.647      7.765
REMARK  Name = 13493
REMARK  10 active torsions:
REMARK  status: ('A' for Active; 'I' for Inactive)
REMARK    1  A    between atoms: N_1  and  C_13
REMARK    2  A    between atoms: C_3  and  C_21
REMARK    3  A    between atoms: C_8  and  N_12
REMARK    4  A    between atoms: C_13  and  C_14
REMARK    5  A    between atoms: C_14  and  N_15
REMARK    6  A    between atoms: N_15  and  C_17
REMARK    7  A    between atoms: N_15  and  C_19
REMARK    8  A    between atoms: C_21  and  C_22
REMARK    9  A    between atoms: C_27  and  O_28
REMARK   10  A    between atoms: O_28  and  C_29
REMARK                            x       y       z     vdW  Elec       q    Type
REMARK                         _______ _______ _______ _____ _____    ______ ____
ROOT
ATOM      1  N   UNL     1      33.536 -23.272 -14.807  0.00  0.00    -0.266 N 
ATOM      2  N   UNL     1      32.152 -24.310 -13.411  0.00  0.00    -0.390 NA
ATOM      3  C   UNL     1      33.428 -23.878 -13.646  0.00  0.00    +0.168 C 
ATOM      4  C   UNL     1      32.272 -23.313 -15.350  0.00  0.00    +0.079 C 
ATOM      5  C   UNL     1      31.386 -23.960 -14.493  0.00  0.00    +0.147 C 
ATOM      6  C   UNL     1      31.800 -22.817 -16.577  0.00  0.00    -0.002 C 
ATOM      7  C   UNL     1      30.035 -24.147 -14.787  0.00  0.00    +0.053 C 
ATOM      8  C   UNL     1      29.582 -23.647 -16.012  0.00  0.00    +0.127 C 
ATOM      9  C   UNL     1      30.446 -22.994 -16.893  0.00  0.00    +0.078 C 
ENDROOT
BRANCH   8  12
ATOM     10  O   UNL     1      27.340 -23.210 -15.695  0.00  0.00    -0.126 OA
ATOM     11  O   UNL     1      27.922 -24.543 -17.340  0.00  0.00    -0.126 OA
ATOM     12  N   UNL     1      28.215 -23.807 -16.366  0.00  0.00    +0.054 N 
ENDBRANCH   8  12
BRANCH   1  13
ATOM     13  C   UNL     1      34.709 -22.683 -15.406  0.00  0.00    +0.075 C 
BRANCH  13  14
ATOM     14  C   UNL     1      34.967 -23.228 -16.808  0.00  0.00    -0.055 C 
BRANCH  14  15
ATOM     15  N   UNL     1      35.091 -22.130 -17.758  0.00  0.00    +0.388 N 
ATOM     16  H   UNL     1      34.624 -21.312 -17.363  0.00  0.00    -0.080 HD
BRANCH  15  17
ATOM     17  C   UNL     1      36.500 -21.797 -17.982  0.00  0.00    -0.077 C 
ATOM     18  C   UNL     1      36.724 -21.279 -19.392  0.00  0.00    -0.025 C 
ENDBRANCH  15  17
BRANCH  15  19
ATOM     19  C   UNL     1      34.442 -22.468 -19.026  0.00  0.00    -0.077 C 
ATOM     20  C   UNL     1      33.359 -21.461 -19.375  0.00  0.00    -0.025 C 
ENDBRANCH  15  19
ENDBRANCH  14  15
ENDBRANCH  13  14
ENDBRANCH   1  13
BRANCH   3  21
ATOM     21  C   UNL     1      34.565 -24.056 -12.720  0.00  0.00    +0.101 C 
BRANCH  21  22
ATOM     22  C   UNL     1      35.781 -24.718 -13.357  0.00  0.00    -0.014 C 
ATOM     23  C   UNL     1      35.610 -25.742 -14.289  0.00  0.00    -0.001 C 
ATOM     24  C   UNL     1      37.064 -24.300 -13.007  0.00  0.00    -0.001 C 
ATOM     25  C   UNL     1      36.724 -26.347 -14.871  0.00  0.00    +0.037 C 
ATOM     26  C   UNL     1      38.178 -24.904 -13.589  0.00  0.00    +0.037 C 
ATOM     27  C   UNL     1      38.007 -25.929 -14.521  0.00  0.00    +0.139 C 
BRANCH  27  28
ATOM     28  O   UNL     1      39.094 -26.518 -15.090  0.00  0.00    -0.475 OA
BRANCH  28  29
ATOM     29  C   UNL     1      40.365 -25.924 -14.832  0.00  0.00    +0.206 C 
ATOM     30  C   UNL     1      41.171 -26.848 -13.944  0.00  0.00    +0.051 C 
ENDBRANCH  28  29
ENDBRANCH  27  28
ENDBRANCH  21  22
ENDBRANCH   3  21
TORSDOF 10
ENDMDL
MODEL 9
REMARK VINA RESULT:      -8.3      5.235     10.762
REMARK  Name = 13493
REMARK  10 active torsions:
REMARK  status: ('A' for Active; 'I' for Inactive)
REMARK    1  A    between atoms: N_1  and  C_13
REMARK    2  A    between atoms: C_3  and  C_21
REMARK    3  A    between atoms: C_8  and  N_12
REMARK    4  A    between atoms: C_13  and  C_14
REMARK    5  A    between atoms: C_14  and  N_15
REMARK    6  A    between atoms: N_15  and  C_17
REMARK    7  A    between atoms: N_15  and  C_19
REMARK    8  A    between atoms: C_21  and  C_22
REMARK    9  A    between atoms: C_27  and  O_28
REMARK   10  A    between atoms: O_28  and  C_29
REMARK                            x       y       z     vdW  Elec       q    Type
REMARK                         _______ _______ _______ _____ _____    ______ ____
ROOT
ATOM      1  N   UNL     1      34.984 -16.603 -21.914  0.00  0.00    -0.266 N 
ATOM      2  N   UNL     1      35.400 -17.939 -23.641  0.00  0.00    -0.390 NA
ATOM      3  C   UNL     1      35.542 -17.729 -22.297  0.00  0.00    +0.168 C 
ATOM      4  C   UNL     1      34.456 -16.057 -23.062  0.00  0.00    +0.079 C 
ATOM      5  C   UNL     1      34.704 -16.877 -24.159  0.00  0.00    +0.147 C 
ATOM      6  C   UNL     1      33.746 -14.858 -23.249  0.00  0.00    -0.002 C 
ATOM      7  C   UNL     1      34.283 -16.572 -25.454  0.00  0.00    +0.053 C 
ATOM      8  C   UNL     1      33.578 -15.376 -25.621  0.00  0.00    +0.127 C 
ATOM      9  C   UNL     1      33.313 -14.532 -24.541  0.00  0.00    +0.078 C 
ENDROOT
BRANCH   8  12
ATOM     10  O   UNL     1      32.160 -15.640 -27.421  0.00  0.00    -0.126 OA
ATOM     11  O   UNL     1      33.697 -14.075 -27.523  0.00  0.00    -0.126 OA
ATOM     12  N   UNL     1      33.123 -15.013 -26.918  0.00  0.00    +0.054 N 
ENDBRANCH   8  12
BRANCH   1  13
ATOM     13  C   UNL     1      34.922 -16.037 -20.588  0.00  0.00    +0.075 C 
BRANCH  13  14
ATOM     14  C   UNL     1      34.455 -14.585 -20.609  0.00  0.00    -0.055 C 
BRANCH  14  15
ATOM     15  N   UNL     1      32.999 -14.526 -20.651  0.00  0.00    +0.388 N 
ATOM     16  H   UNL     1      32.703 -14.684 -21.615  0.00  0.00    -0.080 HD
BRANCH  15  17
ATOM     17  C   UNL     1      32.416 -15.572 -19.809  0.00  0.00    -0.077 C 
ATOM     18  C   UNL     1      31.632 -16.573 -20.640  0.00  0.00    -0.025 C 
ENDBRANCH  15  17
BRANCH  15  19
ATOM     19  C   UNL     1      32.523 -13.208 -20.228  0.00  0.00    -0.077 C 
ATOM     20  C   UNL     1      31.842 -12.476 -21.372  0.00  0.00    -0.025 C 
ENDBRANCH  15  19
ENDBRANCH  14  15
ENDBRANCH  13  14
ENDBRANCH   1  13
BRANCH   3  21
ATOM     21  C   UNL     1      36.233 -18.645 -21.367  0.00  0.00    +0.101 C 
BRANCH  21  22
ATOM     22  C   UNL     1      35.314 -19.667 -20.710  0.00  0.00    -0.014 C 
ATOM     23  C   UNL     1      33.931 -19.558 -20.856  0.00  0.00    -0.001 C 
ATOM     24  C   UNL     1      35.857 -20.712 -19.962  0.00  0.00    -0.001 C 
ATOM     25  C   UNL     1      33.091 -20.494 -20.253  0.00  0.00    +0.037 C 
ATOM     26  C   UNL     1      35.017 -21.649 -19.361  0.00  0.00    +0.037 C 
ATOM     27  C   UNL     1      33.633 -21.539 -19.506  0.00  0.00    +0.139 C 
BRANCH  27  28
ATOM     28  O   UNL     1      32.813 -22.453 -18.920  0.00  0.00    -0.475 OA
BRANCH  28  29
ATOM     29  C   UNL     1      33.318 -23.138 -17.774  0.00  0.00    +0.206 C 
ATOM     30  C   UNL     1      32.226 -23.220 -16.728  0.00  0.00    +0.051 C 
ENDBRANCH  28  29
ENDBRANCH  27  28
ENDBRANCH  21  22
ENDBRANCH   3  21
TORSDOF 10
ENDMDL
