MODEL 1
REMARK VINA RESULT:      -8.0      0.000      0.000
REMARK  Name = 5289266
REMARK  4 active torsions:
REMARK  status: ('A' for Active; 'I' for Inactive)
REMARK    1  A    between atoms: N_1  and  C_4
REMARK    2  A    between atoms: N_1  and  C_11
REMARK    3  A    between atoms: C_11  and  C_12
REMARK    4  A    between atoms: C_12  and  C_13
REMARK                            x       y       z     vdW  Elec       q    Type
REMARK                         _______ _______ _______ _____ _____    ______ ____
ROOT
ATOM      1  N   UNL     1      35.483 -18.363 -22.205  0.00  0.00    +0.387 N 
ATOM      2  C   UNL     1      35.189 -19.061 -23.507  0.00  0.00    -0.101 C 
ATOM      3  H   UNL     1      36.497 -18.358 -22.092  0.00  0.00    -0.080 HD
ENDROOT
BRANCH   1   4
ATOM      4  C   UNL     1      34.939 -19.102 -21.035  0.00  0.00    -0.053 C 
ATOM      5  C   UNL     1      33.562 -19.654 -21.388  0.00  0.00    -0.016 C 
ATOM      6  C   UNL     1      35.910 -20.222 -20.659  0.00  0.00    +0.005 C 
ATOM      7  C   UNL     1      32.974 -20.432 -20.208  0.00  0.00    +0.020 C 
ATOM      8  C   UNL     1      33.969 -21.334 -19.519  0.00  0.00    -0.048 C 
ATOM      9  C   UNL     1      35.291 -21.238 -19.743  0.00  0.00    -0.037 C 
ATOM     10  C   UNL     1      33.397 -22.343 -18.567  0.00  0.00    +0.026 C 
ENDBRANCH   1   4
BRANCH   1  11
ATOM     11  C   UNL     1      35.035 -16.927 -22.232  0.00  0.00    -0.073 C 
BRANCH  11  12
ATOM     12  C   UNL     1      34.948 -16.375 -20.814  0.00  0.00    +0.003 C 
BRANCH  12  13
ATOM     13  C   UNL     1      34.277 -15.031 -20.754  0.00  0.00    -0.037 C 
ATOM     14  C   UNL     1      32.962 -14.768 -20.634  0.00  0.00    -0.048 C 
ATOM     15  C   UNL     1      32.354 -13.394 -20.580  0.00  0.00    +0.026 C 
ATOM     16  C   UNL     1      31.966 -15.892 -20.527  0.00  0.00    +0.026 C 
ENDBRANCH  12  13
ENDBRANCH  11  12
ENDBRANCH   1  11
TORSDOF 4
ENDMDL
MODEL 2
REMARK VINA RESULT:      -7.9      2.073      3.135
REMARK  Name = 5289266
REMARK  4 active torsions:
REMARK  status: ('A' for Active; 'I' for Inactive)
REMARK    1  A    between atoms: N_1  and  C_4
REMARK    2  A    between atoms: N_1  and  C_11
REMARK    3  A    between atoms: C_11  and  C_12
REMARK    4  A    between atoms: C_12  and  C_13
REMARK                            x       y       z     vdW  Elec       q    Type
REMARK                         _______ _______ _______ _____ _____    ______ ____
ROOT
ATOM      1  N   UNL     1      34.356 -18.443 -22.108  0.00  0.00    +0.387 N 
ATOM      2  C   UNL     1      35.189 -17.493 -21.289  0.00  0.00    -0.101 C 
ATOM      3  H   UNL     1      33.417 -18.047 -22.162  0.00  0.00    -0.080 HD
ENDROOT
BRANCH   1   4
ATOM      4  C   UNL     1      34.209 -19.770 -21.455  0.00  0.00    -0.053 C 
ATOM      5  C   UNL     1      35.434 -20.039 -20.587  0.00  0.00    -0.016 C 
ATOM      6  C   UNL     1      32.924 -19.776 -20.624  0.00  0.00    +0.005 C 
ATOM      7  C   UNL     1      35.313 -21.396 -19.887  0.00  0.00    +0.020 C 
ATOM      8  C   UNL     1      33.941 -21.665 -19.320  0.00  0.00    -0.048 C 
ATOM      9  C   UNL     1      32.874 -20.917 -19.649  0.00  0.00    -0.037 C 
ATOM     10  C   UNL     1      33.837 -22.820 -18.367  0.00  0.00    +0.026 C 
ENDBRANCH   1   4
BRANCH   1  11
ATOM     11  C   UNL     1      34.869 -18.555 -23.518  0.00  0.00    -0.073 C 
BRANCH  11  12
ATOM     12  C   UNL     1      35.330 -17.192 -24.021  0.00  0.00    +0.003 C 
BRANCH  12  13
ATOM     13  C   UNL     1      34.481 -16.670 -25.146  0.00  0.00    -0.037 C 
ATOM     14  C   UNL     1      33.706 -15.568 -25.156  0.00  0.00    -0.048 C 
ATOM     15  C   UNL     1      32.878 -15.101 -26.321  0.00  0.00    +0.026 C 
ATOM     16  C   UNL     1      33.626 -14.681 -23.943  0.00  0.00    +0.026 C 
ENDBRANCH  12  13
ENDBRANCH  11  12
ENDBRANCH   1  11
TORSDOF 4
ENDMDL
MODEL 3
REMARK VINA RESULT:      -7.9      1.047      1.824
REMARK  Name = 5289266
REMARK  4 active torsions:
REMARK  status: ('A' for Active; 'I' for Inactive)
REMARK    1  A    between atoms: N_1  and  C_4
REMARK    2  A    between atoms: N_1  and  C_11
REMARK    3  A    between atoms: C_11  and  C_12
REMARK    4  A    between atoms: C_12  and  C_13
REMARK                            x       y       z     vdW  Elec       q    Type
REMARK                         _______ _______ _______ _____ _____    ______ ____
ROOT
ATOM      1  N   UNL     1      35.496 -18.767 -22.036  0.00  0.00    +0.387 N 
ATOM      2  C   UNL     1      34.957 -18.586 -23.430  0.00  0.00    -0.101 C 
ATOM      3  H   UNL     1      36.506 -18.885 -22.120  0.00  0.00    -0.080 HD
ENDROOT
BRANCH   1   4
ATOM      4  C   UNL     1      34.986 -20.005 -21.391  0.00  0.00    -0.053 C 
ATOM      5  C   UNL     1      35.962 -20.443 -20.305  0.00  0.00    -0.016 C 
ATOM      6  C   UNL     1      33.596 -19.729 -20.814  0.00  0.00    +0.005 C 
ATOM      7  C   UNL     1      35.463 -21.712 -19.608  0.00  0.00    +0.020 C 
ATOM      8  C   UNL     1      33.985 -21.693 -19.300  0.00  0.00    -0.048 C 
ATOM      9  C   UNL     1      33.156 -20.782 -19.840  0.00  0.00    -0.037 C 
ATOM     10  C   UNL     1      33.495 -22.752 -18.356  0.00  0.00    +0.026 C 
ENDBRANCH   1   4
BRANCH   1  11
ATOM     11  C   UNL     1      35.264 -17.545 -21.190  0.00  0.00    -0.073 C 
BRANCH  11  12
ATOM     12  C   UNL     1      34.919 -16.350 -22.071  0.00  0.00    +0.003 C 
BRANCH  12  13
ATOM     13  C   UNL     1      33.895 -15.444 -21.447  0.00  0.00    -0.037 C 
ATOM     14  C   UNL     1      33.373 -14.311 -21.955  0.00  0.00    -0.048 C 
ATOM     15  C   UNL     1      32.347 -13.449 -21.275  0.00  0.00    +0.026 C 
ATOM     16  C   UNL     1      33.797 -13.818 -23.313  0.00  0.00    +0.026 C 
ENDBRANCH  12  13
ENDBRANCH  11  12
ENDBRANCH   1  11
TORSDOF 4
ENDMDL
MODEL 4
REMARK VINA RESULT:      -7.7      1.554      5.961
REMARK  Name = 5289266
REMARK  4 active torsions:
REMARK  status: ('A' for Active; 'I' for Inactive)
REMARK    1  A    between atoms: N_1  and  C_4
REMARK    2  A    between atoms: N_1  and  C_11
REMARK    3  A    between atoms: C_11  and  C_12
REMARK    4  A    between atoms: C_12  and  C_13
REMARK                            x       y       z     vdW  Elec       q    Type
REMARK                         _______ _______ _______ _____ _____    ______ ____
ROOT
ATOM      1  N   UNL     1      34.392 -16.613 -23.209  0.00  0.00    +0.387 N 
ATOM      2  C   UNL     1      34.631 -16.468 -24.689  0.00  0.00    -0.101 C 
ATOM      3  H   UNL     1      33.578 -17.217 -23.096  0.00  0.00    -0.080 HD
ENDROOT
BRANCH   1   4
ATOM      4  C   UNL     1      34.041 -15.319 -22.566  0.00  0.00    -0.053 C 
ATOM      5  C   UNL     1      33.065 -14.564 -23.462  0.00  0.00    -0.016 C 
ATOM      6  C   UNL     1      33.435 -15.597 -21.189  0.00  0.00    +0.005 C 
ATOM      7  C   UNL     1      32.671 -13.228 -22.825  0.00  0.00    +0.020 C 
ATOM      8  C   UNL     1      32.385 -13.322 -21.346  0.00  0.00    -0.048 C 
ATOM      9  C   UNL     1      32.722 -14.404 -20.622  0.00  0.00    -0.037 C 
ATOM     10  C   UNL     1      31.703 -12.136 -20.729  0.00  0.00    +0.026 C 
ENDBRANCH   1   4
BRANCH   1  11
ATOM     11  C   UNL     1      35.546 -17.296 -22.526  0.00  0.00    -0.073 C 
BRANCH  11  12
ATOM     12  C   UNL     1      35.391 -18.809 -22.616  0.00  0.00    +0.003 C 
BRANCH  12  13
ATOM     13  C   UNL     1      34.237 -19.324 -21.801  0.00  0.00    -0.037 C 
ATOM     14  C   UNL     1      34.279 -20.140 -20.731  0.00  0.00    -0.048 C 
ATOM     15  C   UNL     1      33.081 -20.619 -19.959  0.00  0.00    +0.026 C 
ATOM     16  C   UNL     1      35.597 -20.639 -20.203  0.00  0.00    +0.026 C 
ENDBRANCH  12  13
ENDBRANCH  11  12
ENDBRANCH   1  11
TORSDOF 4
ENDMDL
MODEL 5
REMARK VINA RESULT:      -7.7      1.827      2.017
REMARK  Name = 5289266
REMARK  4 active torsions:
REMARK  status: ('A' for Active; 'I' for Inactive)
REMARK    1  A    between atoms: N_1  and  C_4
REMARK    2  A    between atoms: N_1  and  C_11
REMARK    3  A    between atoms: C_11  and  C_12
REMARK    4  A    between atoms: C_12  and  C_13
REMARK                            x       y       z     vdW  Elec       q    Type
REMARK                         _______ _______ _______ _____ _____    ______ ____
ROOT
ATOM      1  N   UNL     1      35.266 -18.174 -22.043  0.00  0.00    +0.387 N 
ATOM      2  C   UNL     1      34.824 -18.738 -23.367  0.00  0.00    -0.101 C 
ATOM      3  H   UNL     1      36.286 -18.157 -22.051  0.00  0.00    -0.080 HD
ENDROOT
BRANCH   1   4
ATOM      4  C   UNL     1      34.875 -19.045 -20.902  0.00  0.00    -0.053 C 
ATOM      5  C   UNL     1      33.521 -19.680 -21.199  0.00  0.00    -0.016 C 
ATOM      6  C   UNL     1      35.957 -20.107 -20.694  0.00  0.00    +0.005 C 
ATOM      7  C   UNL     1      33.090 -20.595 -20.048  0.00  0.00    +0.020 C 
ATOM      8  C   UNL     1      34.204 -21.461 -19.513  0.00  0.00    -0.048 C 
ATOM      9  C   UNL     1      35.493 -21.239 -19.825  0.00  0.00    -0.037 C 
ATOM     10  C   UNL     1      33.788 -22.586 -18.610  0.00  0.00    +0.026 C 
ENDBRANCH   1   4
BRANCH   1  11
ATOM     11  C   UNL     1      34.802 -16.754 -21.862  0.00  0.00    -0.073 C 
BRANCH  11  12
ATOM     12  C   UNL     1      34.867 -16.006 -23.188  0.00  0.00    +0.003 C 
BRANCH  12  13
ATOM     13  C   UNL     1      34.475 -14.560 -23.059  0.00  0.00    -0.037 C 
ATOM     14  C   UNL     1      33.717 -13.830 -23.898  0.00  0.00    -0.048 C 
ATOM     15  C   UNL     1      33.362 -12.382 -23.707  0.00  0.00    +0.026 C 
ATOM     16  C   UNL     1      33.135 -14.454 -25.138  0.00  0.00    +0.026 C 
ENDBRANCH  12  13
ENDBRANCH  11  12
ENDBRANCH   1  11
TORSDOF 4
ENDMDL
MODEL 6
REMARK VINA RESULT:      -7.6      2.474      6.423
REMARK  Name = 5289266
REMARK  4 active torsions:
REMARK  status: ('A' for Active; 'I' for Inactive)
REMARK    1  A    between atoms: N_1  and  C_4
REMARK    2  A    between atoms: N_1  and  C_11
REMARK    3  A    between atoms: C_11  and  C_12
REMARK    4  A    between atoms: C_12  and  C_13
REMARK                            x       y       z     vdW  Elec       q    Type
REMARK                         _______ _______ _______ _____ _____    ______ ____
ROOT
ATOM      1  N   UNL     1      35.340 -16.940 -22.104  0.00  0.00    +0.387 N 
ATOM      2  C   UNL     1      34.782 -16.325 -20.848  0.00  0.00    -0.101 C 
ATOM      3  H   UNL     1      36.356 -16.930 -22.016  0.00  0.00    -0.080 HD
ENDROOT
BRANCH   1   4
ATOM      4  C   UNL     1      35.020 -16.138 -23.314  0.00  0.00    -0.053 C 
ATOM      5  C   UNL     1      34.375 -17.043 -24.358  0.00  0.00    -0.016 C 
ATOM      6  C   UNL     1      34.089 -14.990 -22.918  0.00  0.00    +0.005 C 
ATOM      7  C   UNL     1      34.020 -16.247 -25.617  0.00  0.00    +0.020 C 
ATOM      8  C   UNL     1      33.399 -14.901 -25.329  0.00  0.00    -0.048 C 
ATOM      9  C   UNL     1      33.424 -14.352 -24.103  0.00  0.00    -0.037 C 
ATOM     10  C   UNL     1      32.752 -14.211 -26.495  0.00  0.00    +0.026 C 
ENDBRANCH   1   4
BRANCH   1  11
ATOM     11  C   UNL     1      34.924 -18.380 -22.247  0.00  0.00    -0.073 C 
BRANCH  11  12
ATOM     12  C   UNL     1      35.503 -19.211 -21.109  0.00  0.00    +0.003 C 
BRANCH  12  13
ATOM     13  C   UNL     1      34.504 -20.170 -20.524  0.00  0.00    -0.037 C 
ATOM     14  C   UNL     1      34.736 -21.204 -19.694  0.00  0.00    -0.048 C 
ATOM     15  C   UNL     1      33.686 -22.128 -19.144  0.00  0.00    +0.026 C 
ATOM     16  C   UNL     1      36.136 -21.508 -19.228  0.00  0.00    +0.026 C 
ENDBRANCH  12  13
ENDBRANCH  11  12
ENDBRANCH   1  11
TORSDOF 4
ENDMDL
MODEL 7
REMARK VINA RESULT:      -7.5      3.477      7.564
REMARK  Name = 5289266
REMARK  4 active torsions:
REMARK  status: ('A' for Active; 'I' for Inactive)
REMARK    1  A    between atoms: N_1  and  C_4
REMARK    2  A    between atoms: N_1  and  C_11
REMARK    3  A    between atoms: C_11  and  C_12
REMARK    4  A    between atoms: C_12  and  C_13
REMARK                            x       y       z     vdW  Elec       q    Type
REMARK                         _______ _______ _______ _____ _____    ______ ____
ROOT
ATOM      1  N   UNL     1      33.844 -23.015 -18.017  0.00  0.00    +0.387 N 
ATOM      2  C   UNL     1      34.877 -22.805 -16.942  0.00  0.00    -0.101 C 
ATOM      3  H   UNL     1      33.879 -24.000 -18.276  0.00  0.00    -0.080 HD
ENDROOT
BRANCH   1   4
ATOM      4  C   UNL     1      34.155 -22.249 -19.253  0.00  0.00    -0.053 C 
ATOM      5  C   UNL     1      33.131 -21.132 -19.420  0.00  0.00    -0.016 C 
ATOM      6  C   UNL     1      35.577 -21.693 -19.149  0.00  0.00    +0.005 C 
ATOM      7  C   UNL     1      33.426 -20.313 -20.680  0.00  0.00    +0.020 C 
ATOM      8  C   UNL     1      34.891 -19.998 -20.869  0.00  0.00    -0.048 C 
ATOM      9  C   UNL     1      35.850 -20.618 -20.160  0.00  0.00    -0.037 C 
ATOM     10  C   UNL     1      35.213 -18.953 -21.897  0.00  0.00    +0.026 C 
ENDBRANCH   1   4
BRANCH   1  11
ATOM     11  C   UNL     1      32.454 -22.741 -17.510  0.00  0.00    -0.073 C 
BRANCH  11  12
ATOM     12  C   UNL     1      32.277 -23.327 -16.115  0.00  0.00    +0.003 C 
BRANCH  12  13
ATOM     13  C   UNL     1      30.882 -23.833 -15.871  0.00  0.00    -0.037 C 
ATOM     14  C   UNL     1      30.454 -24.630 -14.874  0.00  0.00    -0.048 C 
ATOM     15  C   UNL     1      29.039 -25.100 -14.687  0.00  0.00    +0.026 C 
ATOM     16  C   UNL     1      31.413 -25.114 -13.819  0.00  0.00    +0.026 C 
ENDBRANCH  12  13
ENDBRANCH  11  12
ENDBRANCH   1  11
TORSDOF 4
ENDMDL
MODEL 8
REMARK VINA RESULT:      -7.4      2.249      4.037
REMARK  Name = 5289266
REMARK  4 active torsions:
REMARK  status: ('A' for Active; 'I' for Inactive)
REMARK    1  A    between atoms: N_1  and  C_4
REMARK    2  A    between atoms: N_1  and  C_11
REMARK    3  A    between atoms: C_11  and  C_12
REMARK    4  A    between atoms: C_12  and  C_13
REMARK                            x       y       z     vdW  Elec       q    Type
REMARK                         _______ _______ _______ _____ _____    ______ ____
ROOT
ATOM      1  N   UNL     1      34.179 -14.798 -23.888  0.00  0.00    +0.387 N 
ATOM      2  C   UNL     1      33.281 -14.783 -25.096  0.00  0.00    -0.101 C 
ATOM      3  H   UNL     1      35.138 -14.714 -24.226  0.00  0.00    -0.080 HD
ENDROOT
BRANCH   1   4
ATOM      4  C   UNL     1      34.111 -16.088 -23.152  0.00  0.00    -0.053 C 
ATOM      5  C   UNL     1      34.831 -17.163 -23.959  0.00  0.00    -0.016 C 
ATOM      6  C   UNL     1      34.746 -15.907 -21.772  0.00  0.00    +0.005 C 
ATOM      7  C   UNL     1      34.791 -18.507 -23.225  0.00  0.00    +0.020 C 
ATOM      8  C   UNL     1      35.064 -18.397 -21.744  0.00  0.00    -0.048 C 
ATOM      9  C   UNL     1      35.056 -17.215 -21.103  0.00  0.00    -0.037 C 
ATOM     10  C   UNL     1      35.345 -19.686 -21.029  0.00  0.00    +0.026 C 
ENDBRANCH   1   4
BRANCH   1  11
ATOM     11  C   UNL     1      33.923 -13.616 -22.992  0.00  0.00    -0.073 C 
BRANCH  11  12
ATOM     12  C   UNL     1      32.431 -13.482 -22.711  0.00  0.00    +0.003 C 
BRANCH  12  13
ATOM     13  C   UNL     1      32.146 -12.939 -21.338  0.00  0.00    -0.037 C 
ATOM     14  C   UNL     1      31.595 -11.753 -21.015  0.00  0.00    -0.048 C 
ATOM     15  C   UNL     1      31.336 -11.271 -19.616  0.00  0.00    +0.026 C 
ATOM     16  C   UNL     1      31.169 -10.792 -22.092  0.00  0.00    +0.026 C 
ENDBRANCH  12  13
ENDBRANCH  11  12
ENDBRANCH   1  11
TORSDOF 4
ENDMDL
MODEL 9
REMARK VINA RESULT:      -7.3      2.803      6.634
REMARK  Name = 5289266
REMARK  4 active torsions:
REMARK  status: ('A' for Active; 'I' for Inactive)
REMARK    1  A    between atoms: N_1  and  C_4
REMARK    2  A    between atoms: N_1  and  C_11
REMARK    3  A    between atoms: C_11  and  C_12
REMARK    4  A    between atoms: C_12  and  C_13
REMARK                            x       y       z     vdW  Elec       q    Type
REMARK                         _______ _______ _______ _____ _____    ______ ____
ROOT
ATOM      1  N   UNL     1      34.953 -22.304 -19.051  0.00  0.00    +0.387 N 
ATOM      2  C   UNL     1      35.847 -21.981 -17.883  0.00  0.00    -0.101 C 
ATOM      3  H   UNL     1      35.236 -23.220 -19.399  0.00  0.00    -0.080 HD
ENDROOT
BRANCH   1   4
ATOM      4  C   UNL     1      35.138 -21.355 -20.181  0.00  0.00    -0.053 C 
ATOM      5  C   UNL     1      33.919 -20.444 -20.273  0.00  0.00    -0.016 C 
ATOM      6  C   UNL     1      36.419 -20.551 -19.950  0.00  0.00    +0.005 C 
ATOM      7  C   UNL     1      34.079 -19.443 -21.422  0.00  0.00    +0.020 C 
ATOM      8  C   UNL     1      35.457 -18.833 -21.506  0.00  0.00    -0.048 C 
ATOM      9  C   UNL     1      36.501 -19.334 -20.825  0.00  0.00    -0.037 C 
ATOM     10  C   UNL     1      35.593 -17.634 -22.398  0.00  0.00    +0.026 C 
ENDBRANCH   1   4
BRANCH   1  11
ATOM     11  C   UNL     1      33.513 -22.418 -18.631  0.00  0.00    -0.073 C 
BRANCH  11  12
ATOM     12  C   UNL     1      33.406 -23.168 -17.309  0.00  0.00    +0.003 C 
BRANCH  12  13
ATOM     13  C   UNL     1      32.041 -23.060 -16.688  0.00  0.00    -0.037 C 
ATOM     14  C   UNL     1      31.705 -23.223 -15.394  0.00  0.00    -0.048 C 
ATOM     15  C   UNL     1      30.315 -23.100 -14.838  0.00  0.00    +0.026 C 
ATOM     16  C   UNL     1      32.759 -23.540 -14.367  0.00  0.00    +0.026 C 
ENDBRANCH  12  13
ENDBRANCH  11  12
ENDBRANCH   1  11
TORSDOF 4
ENDMDL
