MODEL 1
REMARK VINA RESULT:      -6.4      0.000      0.000
REMARK  Name = 92943
REMARK  6 active torsions:
REMARK  status: ('A' for Active; 'I' for Inactive)
REMARK    1  A    between atoms: C_1  and  C_4
REMARK    2  A    between atoms: C_1  and  C_9
REMARK    3  A    between atoms: C_1  and  C_15
REMARK    4  A    between atoms: C_1  and  C_21
REMARK    5  A    between atoms: C_21  and  C_23
REMARK    6  A    between atoms: C_23  and  N_25
REMARK                            x       y       z     vdW  Elec       q    Type
REMARK                         _______ _______ _______ _____ _____    ______ ____
ROOT
ATOM      1  C   UNL     1      35.985 -24.629 -14.520  0.00  0.00    +0.104 C 
ENDROOT
BRANCH   1   4
ATOM      2  O   UNL     1      36.187 -26.877 -15.278  0.00  0.00    -0.274 OA
ATOM      3  N   UNL     1      38.103 -25.850 -14.494  0.00  0.00    -0.279 N 
ATOM      4  C   UNL     1      36.756 -25.892 -14.805  0.00  0.00    +0.232 C 
ATOM      5  C   UNL     1      39.093 -26.634 -15.219  0.00  0.00    +0.093 C 
ATOM      6  C   UNL     1      38.733 -25.056 -13.443  0.00  0.00    +0.093 C 
ATOM      7  C   UNL     1      40.430 -26.054 -14.786  0.00  0.00    +0.023 C 
ATOM      8  C   UNL     1      40.153 -25.595 -13.359  0.00  0.00    +0.023 C 
ENDBRANCH   1   4
BRANCH   1   9
ATOM      9  C   UNL     1      36.164 -24.186 -13.038  0.00  0.00    -0.011 C 
ATOM     10  C   UNL     1      36.880 -23.050 -12.800  0.00  0.00    -0.004 C 
ATOM     11  C   UNL     1      35.594 -24.962 -12.074  0.00  0.00    -0.004 C 
ATOM     12  C   UNL     1      37.040 -22.653 -11.472  0.00  0.00    -0.000 C 
ATOM     13  C   UNL     1      35.754 -24.565 -10.746  0.00  0.00    -0.000 C 
ATOM     14  C   UNL     1      36.477 -23.410 -10.445  0.00  0.00    -0.000 C 
ENDBRANCH   1   9
BRANCH   1  15
ATOM     15  C   UNL     1      36.510 -23.444 -15.383  0.00  0.00    -0.011 C 
ATOM     16  C   UNL     1      35.615 -22.477 -15.738  0.00  0.00    -0.004 C 
ATOM     17  C   UNL     1      37.829 -23.448 -15.729  0.00  0.00    -0.004 C 
ATOM     18  C   UNL     1      36.085 -21.415 -16.511  0.00  0.00    -0.000 C 
ATOM     19  C   UNL     1      38.298 -22.387 -16.502  0.00  0.00    -0.000 C 
ATOM     20  C   UNL     1      37.426 -21.369 -16.893  0.00  0.00    -0.000 C 
ENDBRANCH   1  15
BRANCH   1  21
ATOM     21  C   UNL     1      34.469 -25.021 -14.869  0.00  0.00    -0.005 C 
ATOM     22  C   UNL     1      34.112 -24.732 -16.346  0.00  0.00    -0.001 C 
BRANCH  21  23
ATOM     23  C   UNL     1      33.442 -24.315 -13.936  0.00  0.00    -0.076 C 
BRANCH  23  25
ATOM     24  O   UNL     1      29.328 -23.666 -14.458  0.00  0.00    -0.358 OA
ATOM     25  N   UNL     1      32.127 -24.174 -14.559  0.00  0.00    +0.390 N 
ATOM     26  C   UNL     1      31.185 -25.164 -14.017  0.00  0.00    -0.045 C 
ATOM     27  C   UNL     1      31.600 -22.817 -14.363  0.00  0.00    -0.045 C 
ATOM     28  C   UNL     1      29.819 -24.990 -14.672  0.00  0.00    +0.119 C 
ATOM     29  C   UNL     1      30.223 -22.698 -15.009  0.00  0.00    +0.119 C 
ATOM     30  H   UNL     1      32.235 -24.342 -15.558  0.00  0.00    -0.079 HD
ENDBRANCH  23  25
ENDBRANCH  21  23
ENDBRANCH   1  21
TORSDOF 6
ENDMDL
MODEL 2
REMARK VINA RESULT:      -5.9      2.193      4.766
REMARK  Name = 92943
REMARK  6 active torsions:
REMARK  status: ('A' for Active; 'I' for Inactive)
REMARK    1  A    between atoms: C_1  and  C_4
REMARK    2  A    between atoms: C_1  and  C_9
REMARK    3  A    between atoms: C_1  and  C_15
REMARK    4  A    between atoms: C_1  and  C_21
REMARK    5  A    between atoms: C_21  and  C_23
REMARK    6  A    between atoms: C_23  and  N_25
REMARK                            x       y       z     vdW  Elec       q    Type
REMARK                         _______ _______ _______ _____ _____    ______ ____
ROOT
ATOM      1  C   UNL     1      35.556 -24.108 -14.522  0.00  0.00    +0.104 C 
ENDROOT
BRANCH   1   4
ATOM      2  O   UNL     1      35.471 -26.218 -15.621  0.00  0.00    -0.274 OA
ATOM      3  N   UNL     1      37.500 -25.578 -14.719  0.00  0.00    -0.279 N 
ATOM      4  C   UNL     1      36.160 -25.399 -15.011  0.00  0.00    +0.232 C 
ATOM      5  C   UNL     1      38.384 -26.359 -15.573  0.00  0.00    +0.093 C 
ATOM      6  C   UNL     1      38.223 -25.043 -13.569  0.00  0.00    +0.093 C 
ATOM      7  C   UNL     1      39.782 -26.028 -15.078  0.00  0.00    +0.023 C 
ATOM      8  C   UNL     1      39.562 -25.765 -13.593  0.00  0.00    +0.023 C 
ENDBRANCH   1   4
BRANCH   1   9
ATOM      9  C   UNL     1      34.001 -24.153 -14.598  0.00  0.00    -0.011 C 
ATOM     10  C   UNL     1      33.392 -23.384 -15.545  0.00  0.00    -0.004 C 
ATOM     11  C   UNL     1      33.349 -24.958 -13.712  0.00  0.00    -0.004 C 
ATOM     12  C   UNL     1      31.999 -23.425 -15.613  0.00  0.00    -0.000 C 
ATOM     13  C   UNL     1      31.956 -24.998 -13.780  0.00  0.00    -0.000 C 
ATOM     14  C   UNL     1      31.281 -24.232 -14.731  0.00  0.00    -0.000 C 
ENDBRANCH   1   9
BRANCH   1  15
ATOM     15  C   UNL     1      35.900 -23.859 -13.023  0.00  0.00    -0.011 C 
ATOM     16  C   UNL     1      35.255 -24.620 -12.093  0.00  0.00    -0.004 C 
ATOM     17  C   UNL     1      36.824 -22.898 -12.737  0.00  0.00    -0.004 C 
ATOM     18  C   UNL     1      35.564 -24.398 -10.751  0.00  0.00    -0.000 C 
ATOM     19  C   UNL     1      37.132 -22.676 -11.396  0.00  0.00    -0.000 C 
ATOM     20  C   UNL     1      36.502 -23.427 -10.402  0.00  0.00    -0.000 C 
ENDBRANCH   1  15
BRANCH   1  21
ATOM     21  C   UNL     1      36.189 -22.998 -15.491  0.00  0.00    -0.005 C 
ATOM     22  C   UNL     1      35.616 -21.586 -15.223  0.00  0.00    -0.001 C 
BRANCH  21  23
ATOM     23  C   UNL     1      36.016 -23.354 -16.997  0.00  0.00    -0.076 C 
BRANCH  23  25
ATOM     24  O   UNL     1      35.232 -20.884 -20.298  0.00  0.00    -0.358 OA
ATOM     25  N   UNL     1      35.644 -22.195 -17.805  0.00  0.00    +0.390 N 
ATOM     26  C   UNL     1      36.772 -21.757 -18.639  0.00  0.00    -0.045 C 
ATOM     27  C   UNL     1      34.481 -22.500 -18.651  0.00  0.00    -0.045 C 
ATOM     28  C   UNL     1      36.356 -20.555 -19.482  0.00  0.00    +0.119 C 
ATOM     29  C   UNL     1      34.120 -21.282 -19.494  0.00  0.00    +0.119 C 
ATOM     30  H   UNL     1      35.395 -21.438 -17.170  0.00  0.00    -0.079 HD
ENDBRANCH  23  25
ENDBRANCH  21  23
ENDBRANCH   1  21
TORSDOF 6
ENDMDL
MODEL 3
REMARK VINA RESULT:      -4.9      1.680      4.097
REMARK  Name = 92943
REMARK  6 active torsions:
REMARK  status: ('A' for Active; 'I' for Inactive)
REMARK    1  A    between atoms: C_1  and  C_4
REMARK    2  A    between atoms: C_1  and  C_9
REMARK    3  A    between atoms: C_1  and  C_15
REMARK    4  A    between atoms: C_1  and  C_21
REMARK    5  A    between atoms: C_21  and  C_23
REMARK    6  A    between atoms: C_23  and  N_25
REMARK                            x       y       z     vdW  Elec       q    Type
REMARK                         _______ _______ _______ _____ _____    ______ ____
ROOT
ATOM      1  C   UNL     1      35.262 -23.734 -15.475  0.00  0.00    +0.104 C 
ENDROOT
BRANCH   1   4
ATOM      2  O   UNL     1      33.873 -22.379 -14.096  0.00  0.00    -0.274 OA
ATOM      3  N   UNL     1      35.694 -23.386 -13.093  0.00  0.00    -0.279 N 
ATOM      4  C   UNL     1      34.868 -23.101 -14.165  0.00  0.00    +0.232 C 
ATOM      5  C   UNL     1      35.203 -23.431 -11.723  0.00  0.00    +0.093 C 
ATOM      6  C   UNL     1      37.124 -23.679 -13.146  0.00  0.00    +0.093 C 
ATOM      7  C   UNL     1      36.329 -24.083 -10.936  0.00  0.00    +0.023 C 
ATOM      8  C   UNL     1      37.574 -23.636 -11.693  0.00  0.00    +0.023 C 
ENDBRANCH   1   4
BRANCH   1   9
ATOM      9  C   UNL     1      35.922 -22.690 -16.424  0.00  0.00    -0.011 C 
ATOM     10  C   UNL     1      36.906 -21.900 -15.908  0.00  0.00    -0.004 C 
ATOM     11  C   UNL     1      35.474 -22.634 -17.710  0.00  0.00    -0.004 C 
ATOM     12  C   UNL     1      37.498 -20.966 -16.758  0.00  0.00    -0.000 C 
ATOM     13  C   UNL     1      36.065 -21.699 -18.560  0.00  0.00    -0.000 C 
ATOM     14  C   UNL     1      37.078 -20.865 -18.084  0.00  0.00    -0.000 C 
ENDBRANCH   1   9
BRANCH   1  15
ATOM     15  C   UNL     1      36.329 -24.848 -15.262  0.00  0.00    -0.011 C 
ATOM     16  C   UNL     1      35.881 -26.104 -14.977  0.00  0.00    -0.004 C 
ATOM     17  C   UNL     1      37.642 -24.497 -15.374  0.00  0.00    -0.004 C 
ATOM     18  C   UNL     1      36.836 -27.103 -14.787  0.00  0.00    -0.000 C 
ATOM     19  C   UNL     1      38.596 -25.495 -15.183  0.00  0.00    -0.000 C 
ATOM     20  C   UNL     1      38.193 -26.799 -14.890  0.00  0.00    -0.000 C 
ENDBRANCH   1  15
BRANCH   1  21
ATOM     21  C   UNL     1      33.880 -24.307 -16.053  0.00  0.00    -0.005 C 
ATOM     22  C   UNL     1      33.352 -23.475 -17.246  0.00  0.00    -0.001 C 
BRANCH  21  23
ATOM     23  C   UNL     1      32.776 -24.412 -14.961  0.00  0.00    -0.076 C 
BRANCH  23  25
ATOM     24  O   UNL     1      28.643 -23.708 -15.172  0.00  0.00    -0.358 OA
ATOM     25  N   UNL     1      31.457 -24.029 -15.461  0.00  0.00    +0.390 N 
ATOM     26  C   UNL     1      30.547 -25.183 -15.467  0.00  0.00    -0.045 C 
ATOM     27  C   UNL     1      30.887 -22.942 -14.653  0.00  0.00    -0.045 C 
ATOM     28  C   UNL     1      29.175 -24.757 -15.981  0.00  0.00    +0.119 C 
ATOM     29  C   UNL     1      29.507 -22.570 -15.186  0.00  0.00    +0.119 C 
ATOM     30  H   UNL     1      31.570 -23.699 -16.419  0.00  0.00    -0.079 HD
ENDBRANCH  23  25
ENDBRANCH  21  23
ENDBRANCH   1  21
TORSDOF 6
ENDMDL
MODEL 4
REMARK VINA RESULT:      -4.8     15.661     19.036
REMARK  Name = 92943
REMARK  6 active torsions:
REMARK  status: ('A' for Active; 'I' for Inactive)
REMARK    1  A    between atoms: C_1  and  C_4
REMARK    2  A    between atoms: C_1  and  C_9
REMARK    3  A    between atoms: C_1  and  C_15
REMARK    4  A    between atoms: C_1  and  C_21
REMARK    5  A    between atoms: C_21  and  C_23
REMARK    6  A    between atoms: C_23  and  N_25
REMARK                            x       y       z     vdW  Elec       q    Type
REMARK                         _______ _______ _______ _____ _____    ______ ____
ROOT
ATOM      1  C   UNL     1      32.519  -7.746 -23.262  0.00  0.00    +0.104 C 
ENDROOT
BRANCH   1   4
ATOM      2  O   UNL     1      30.637  -8.611 -24.436  0.00  0.00    -0.274 OA
ATOM      3  N   UNL     1      31.246  -9.682 -22.481  0.00  0.00    -0.279 N 
ATOM      4  C   UNL     1      31.380  -8.714 -23.459  0.00  0.00    +0.232 C 
ATOM      5  C   UNL     1      30.692 -10.999 -22.763  0.00  0.00    +0.093 C 
ATOM      6  C   UNL     1      31.617  -9.561 -21.075  0.00  0.00    +0.093 C 
ATOM      7  C   UNL     1      31.026 -11.824 -21.530  0.00  0.00    +0.023 C 
ATOM      8  C   UNL     1      31.005 -10.787 -20.414  0.00  0.00    +0.023 C 
ENDBRANCH   1   4
BRANCH   1   9
ATOM      9  C   UNL     1      32.447  -6.580 -24.292  0.00  0.00    -0.011 C 
ATOM     10  C   UNL     1      33.548  -6.347 -25.061  0.00  0.00    -0.004 C 
ATOM     11  C   UNL     1      31.287  -5.866 -24.358  0.00  0.00    -0.004 C 
ATOM     12  C   UNL     1      33.484  -5.303 -25.984  0.00  0.00    -0.000 C 
ATOM     13  C   UNL     1      31.223  -4.822 -25.280  0.00  0.00    -0.000 C 
ATOM     14  C   UNL     1      32.322  -4.540 -26.094  0.00  0.00    -0.000 C 
ENDBRANCH   1   9
BRANCH   1  15
ATOM     15  C   UNL     1      32.450  -7.077 -21.858  0.00  0.00    -0.011 C 
ATOM     16  C   UNL     1      31.508  -6.109 -21.665  0.00  0.00    -0.004 C 
ATOM     17  C   UNL     1      33.335  -7.500 -20.911  0.00  0.00    -0.004 C 
ATOM     18  C   UNL     1      31.445  -5.510 -20.407  0.00  0.00    -0.000 C 
ATOM     19  C   UNL     1      33.273  -6.900 -19.654  0.00  0.00    -0.000 C 
ATOM     20  C   UNL     1      32.327  -5.905 -19.401  0.00  0.00    -0.000 C 
ENDBRANCH   1  15
BRANCH   1  21
ATOM     21  C   UNL     1      33.828  -8.654 -23.448  0.00  0.00    -0.005 C 
ATOM     22  C   UNL     1      35.135  -7.838 -23.306  0.00  0.00    -0.001 C 
BRANCH  21  23
ATOM     23  C   UNL     1      33.835  -9.419 -24.804  0.00  0.00    -0.076 C 
BRANCH  23  25
ATOM     24  O   UNL     1      34.119 -13.599 -24.560  0.00  0.00    -0.358 OA
ATOM     25  N   UNL     1      33.477 -10.827 -24.652  0.00  0.00    +0.390 N 
ATOM     26  C   UNL     1      33.803 -11.582 -25.871  0.00  0.00    -0.045 C 
ATOM     27  C   UNL     1      34.162 -11.419 -23.495  0.00  0.00    -0.045 C 
ATOM     28  C   UNL     1      33.432 -13.050 -25.685  0.00  0.00    +0.119 C 
ATOM     29  C   UNL     1      33.783 -12.891 -23.366  0.00  0.00    +0.119 C 
ATOM     30  H   UNL     1      32.471 -10.880 -24.498  0.00  0.00    -0.079 HD
ENDBRANCH  23  25
ENDBRANCH  21  23
ENDBRANCH   1  21
TORSDOF 6
ENDMDL
MODEL 5
REMARK VINA RESULT:      -4.8     16.348     19.461
REMARK  Name = 92943
REMARK  6 active torsions:
REMARK  status: ('A' for Active; 'I' for Inactive)
REMARK    1  A    between atoms: C_1  and  C_4
REMARK    2  A    between atoms: C_1  and  C_9
REMARK    3  A    between atoms: C_1  and  C_15
REMARK    4  A    between atoms: C_1  and  C_21
REMARK    5  A    between atoms: C_21  and  C_23
REMARK    6  A    between atoms: C_23  and  N_25
REMARK                            x       y       z     vdW  Elec       q    Type
REMARK                         _______ _______ _______ _____ _____    ______ ____
ROOT
ATOM      1  C   UNL     1      32.511  -8.459 -23.052  0.00  0.00    +0.104 C 
ENDROOT
BRANCH   1   4
ATOM      2  O   UNL     1      30.275  -8.350 -23.866  0.00  0.00    -0.274 OA
ATOM      3  N   UNL     1      31.763  -6.764 -24.649  0.00  0.00    -0.279 N 
ATOM      4  C   UNL     1      31.406  -7.861 -23.886  0.00  0.00    +0.232 C 
ATOM      5  C   UNL     1      30.814  -5.714 -24.991  0.00  0.00    +0.093 C 
ATOM      6  C   UNL     1      33.080  -6.483 -25.213  0.00  0.00    +0.093 C 
ATOM      7  C   UNL     1      31.676  -4.584 -25.533  0.00  0.00    +0.023 C 
ATOM      8  C   UNL     1      32.843  -5.327 -26.173  0.00  0.00    +0.023 C 
ENDBRANCH   1   4
BRANCH   1   9
ATOM      9  C   UNL     1      31.934  -9.373 -21.932  0.00  0.00    -0.011 C 
ATOM     10  C   UNL     1      32.279  -9.088 -20.644  0.00  0.00    -0.004 C 
ATOM     11  C   UNL     1      31.122 -10.401 -22.310  0.00  0.00    -0.004 C 
ATOM     12  C   UNL     1      31.762  -9.908 -19.640  0.00  0.00    -0.000 C 
ATOM     13  C   UNL     1      30.605 -11.220 -21.306  0.00  0.00    -0.000 C 
ATOM     14  C   UNL     1      30.925 -10.973 -19.970  0.00  0.00    -0.000 C 
ENDBRANCH   1   9
BRANCH   1  15
ATOM     15  C   UNL     1      33.432  -9.373 -23.914  0.00  0.00    -0.011 C 
ATOM     16  C   UNL     1      33.014 -10.650 -24.147  0.00  0.00    -0.004 C 
ATOM     17  C   UNL     1      34.597  -8.838 -24.379  0.00  0.00    -0.004 C 
ATOM     18  C   UNL     1      33.838 -11.469 -24.919  0.00  0.00    -0.000 C 
ATOM     19  C   UNL     1      35.421  -9.657 -25.150  0.00  0.00    -0.000 C 
ATOM     20  C   UNL     1      35.041 -10.973 -25.421  0.00  0.00    -0.000 C 
ENDBRANCH   1  15
BRANCH   1  21
ATOM     21  C   UNL     1      33.283  -7.180 -22.470  0.00  0.00    -0.005 C 
ATOM     22  C   UNL     1      34.811  -7.409 -22.374  0.00  0.00    -0.001 C 
BRANCH  21  23
ATOM     23  C   UNL     1      32.735  -6.734 -21.083  0.00  0.00    -0.076 C 
BRANCH  23  25
ATOM     24  O   UNL     1      30.181  -3.724 -22.508  0.00  0.00    -0.358 OA
ATOM     25  N   UNL     1      31.947  -5.506 -21.163  0.00  0.00    +0.390 N 
ATOM     26  C   UNL     1      32.405  -4.664 -22.277  0.00  0.00    -0.045 C 
ATOM     27  C   UNL     1      30.518  -5.812 -21.318  0.00  0.00    -0.045 C 
ATOM     28  C   UNL     1      31.561  -3.395 -22.348  0.00  0.00    +0.119 C 
ATOM     29  C   UNL     1      29.718  -4.516 -21.413  0.00  0.00    +0.119 C 
ATOM     30  H   UNL     1      32.078  -4.993 -20.292  0.00  0.00    -0.079 HD
ENDBRANCH  23  25
ENDBRANCH  21  23
ENDBRANCH   1  21
TORSDOF 6
ENDMDL
MODEL 6
REMARK VINA RESULT:      -4.6     16.606     19.893
REMARK  Name = 92943
REMARK  6 active torsions:
REMARK  status: ('A' for Active; 'I' for Inactive)
REMARK    1  A    between atoms: C_1  and  C_4
REMARK    2  A    between atoms: C_1  and  C_9
REMARK    3  A    between atoms: C_1  and  C_15
REMARK    4  A    between atoms: C_1  and  C_21
REMARK    5  A    between atoms: C_21  and  C_23
REMARK    6  A    between atoms: C_23  and  N_25
REMARK                            x       y       z     vdW  Elec       q    Type
REMARK                         _______ _______ _______ _____ _____    ______ ____
ROOT
ATOM      1  C   UNL     1      32.278  -8.398 -22.650  0.00  0.00    +0.104 C 
ENDROOT
BRANCH   1   4
ATOM      2  O   UNL     1      34.063  -7.126 -21.721  0.00  0.00    -0.274 OA
ATOM      3  N   UNL     1      32.003  -6.092 -21.882  0.00  0.00    -0.279 N 
ATOM      4  C   UNL     1      32.875  -7.154 -22.044  0.00  0.00    +0.232 C 
ATOM      5  C   UNL     1      32.448  -4.707 -21.930  0.00  0.00    +0.093 C 
ATOM      6  C   UNL     1      30.564  -6.171 -21.650  0.00  0.00    +0.093 C 
ATOM      7  C   UNL     1      31.165  -3.898 -22.036  0.00  0.00    +0.023 C 
ATOM      8  C   UNL     1      30.162  -4.753 -21.272  0.00  0.00    +0.023 C 
ENDBRANCH   1   4
BRANCH   1   9
ATOM      9  C   UNL     1      33.322  -9.150 -23.527  0.00  0.00    -0.011 C 
ATOM     10  C   UNL     1      33.085 -10.463 -23.806  0.00  0.00    -0.004 C 
ATOM     11  C   UNL     1      34.407  -8.447 -23.959  0.00  0.00    -0.004 C 
ATOM     12  C   UNL     1      34.020 -11.137 -24.591  0.00  0.00    -0.000 C 
ATOM     13  C   UNL     1      35.343  -9.121 -24.745  0.00  0.00    -0.000 C 
ATOM     14  C   UNL     1      35.149 -10.466 -25.061  0.00  0.00    -0.000 C 
ENDBRANCH   1   9
BRANCH   1  15
ATOM     15  C   UNL     1      31.844  -9.407 -21.547  0.00  0.00    -0.011 C 
ATOM     16  C   UNL     1      32.143  -9.096 -20.253  0.00  0.00    -0.004 C 
ATOM     17  C   UNL     1      31.194 -10.538 -21.945  0.00  0.00    -0.004 C 
ATOM     18  C   UNL     1      31.754 -10.000 -19.265  0.00  0.00    -0.000 C 
ATOM     19  C   UNL     1      30.806 -11.442 -20.957  0.00  0.00    -0.000 C 
ATOM     20  C   UNL     1      31.085 -11.173 -19.616  0.00  0.00    -0.000 C 
ENDBRANCH   1  15
BRANCH   1  21
ATOM     21  C   UNL     1      31.037  -7.847 -23.504  0.00  0.00    -0.005 C 
ATOM     22  C   UNL     1      29.888  -8.880 -23.604  0.00  0.00    -0.001 C 
BRANCH  21  23
ATOM     23  C   UNL     1      31.452  -7.390 -24.933  0.00  0.00    -0.076 C 
BRANCH  23  25
ATOM     24  O   UNL     1      32.141  -3.479 -26.293  0.00  0.00    -0.358 OA
ATOM     25  N   UNL     1      31.856  -5.986 -24.974  0.00  0.00    +0.390 N 
ATOM     26  C   UNL     1      32.886  -5.770 -26.001  0.00  0.00    -0.045 C 
ATOM     27  C   UNL     1      30.699  -5.117 -25.229  0.00  0.00    -0.045 C 
ATOM     28  C   UNL     1      33.282  -4.297 -26.033  0.00  0.00    +0.119 C 
ATOM     29  C   UNL     1      31.148  -3.660 -25.282  0.00  0.00    +0.119 C 
ATOM     30  H   UNL     1      32.249  -5.747 -24.064  0.00  0.00    -0.079 HD
ENDBRANCH  23  25
ENDBRANCH  21  23
ENDBRANCH   1  21
TORSDOF 6
ENDMDL
MODEL 7
REMARK VINA RESULT:      -4.6     15.677     18.556
REMARK  Name = 92943
REMARK  6 active torsions:
REMARK  status: ('A' for Active; 'I' for Inactive)
REMARK    1  A    between atoms: C_1  and  C_4
REMARK    2  A    between atoms: C_1  and  C_9
REMARK    3  A    between atoms: C_1  and  C_15
REMARK    4  A    between atoms: C_1  and  C_21
REMARK    5  A    between atoms: C_21  and  C_23
REMARK    6  A    between atoms: C_23  and  N_25
REMARK                            x       y       z     vdW  Elec       q    Type
REMARK                         _______ _______ _______ _____ _____    ______ ____
ROOT
ATOM      1  C   UNL     1      32.774  -7.700 -23.446  0.00  0.00    +0.104 C 
ENDROOT
BRANCH   1   4
ATOM      2  O   UNL     1      35.090  -8.051 -23.019  0.00  0.00    -0.274 OA
ATOM      3  N   UNL     1      33.974  -9.694 -24.200  0.00  0.00    -0.279 N 
ATOM      4  C   UNL     1      34.056  -8.488 -23.527  0.00  0.00    +0.232 C 
ATOM      5  C   UNL     1      34.826 -10.827 -23.872  0.00  0.00    +0.093 C 
ATOM      6  C   UNL     1      33.066 -10.022 -25.296  0.00  0.00    +0.093 C 
ATOM      7  C   UNL     1      34.195 -12.002 -24.602  0.00  0.00    +0.023 C 
ATOM      8  C   UNL     1      33.585 -11.346 -25.835  0.00  0.00    +0.023 C 
ENDBRANCH   1   4
BRANCH   1   9
ATOM      9  C   UNL     1      32.599  -7.059 -22.038  0.00  0.00    -0.011 C 
ATOM     10  C   UNL     1      31.869  -5.910 -21.954  0.00  0.00    -0.004 C 
ATOM     11  C   UNL     1      33.187  -7.686 -20.981  0.00  0.00    -0.004 C 
ATOM     12  C   UNL     1      31.712  -5.336 -20.692  0.00  0.00    -0.000 C 
ATOM     13  C   UNL     1      33.030  -7.112 -19.719  0.00  0.00    -0.000 C 
ATOM     14  C   UNL     1      32.292  -5.936 -19.575  0.00  0.00    -0.000 C 
ENDBRANCH   1   9
BRANCH   1  15
ATOM     15  C   UNL     1      32.780  -6.514 -24.455  0.00  0.00    -0.011 C 
ATOM     16  C   UNL     1      33.883  -6.361 -25.243  0.00  0.00    -0.004 C 
ATOM     17  C   UNL     1      31.684  -5.704 -24.486  0.00  0.00    -0.004 C 
ATOM     18  C   UNL     1      33.888  -5.299 -26.148  0.00  0.00    -0.000 C 
ATOM     19  C   UNL     1      31.690  -4.642 -25.390  0.00  0.00    -0.000 C 
ATOM     20  C   UNL     1      32.792  -4.440 -26.221  0.00  0.00    -0.000 C 
ENDBRANCH   1  15
BRANCH   1  21
ATOM     21  C   UNL     1      31.639  -8.784 -23.777  0.00  0.00    -0.005 C 
ATOM     22  C   UNL     1      30.605  -8.258 -24.801  0.00  0.00    -0.001 C 
BRANCH  21  23
ATOM     23  C   UNL     1      30.902  -9.283 -22.500  0.00  0.00    -0.076 C 
BRANCH  23  25
ATOM     24  O   UNL     1      31.676 -12.877 -20.475  0.00  0.00    -0.358 OA
ATOM     25  N   UNL     1      31.607 -10.380 -21.841  0.00  0.00    +0.390 N 
ATOM     26  C   UNL     1      31.188 -10.501 -20.437  0.00  0.00    -0.045 C 
ATOM     27  C   UNL     1      31.376 -11.648 -22.547  0.00  0.00    -0.045 C 
ATOM     28  C   UNL     1      31.927 -11.659 -19.774  0.00  0.00    +0.119 C 
ATOM     29  C   UNL     1      32.109 -12.779 -21.833  0.00  0.00    +0.119 C 
ATOM     30  H   UNL     1      32.604 -10.171 -21.865  0.00  0.00    -0.079 HD
ENDBRANCH  23  25
ENDBRANCH  21  23
ENDBRANCH   1  21
TORSDOF 6
ENDMDL
MODEL 8
REMARK VINA RESULT:      -4.5      1.485      2.061
REMARK  Name = 92943
REMARK  6 active torsions:
REMARK  status: ('A' for Active; 'I' for Inactive)
REMARK    1  A    between atoms: C_1  and  C_4
REMARK    2  A    between atoms: C_1  and  C_9
REMARK    3  A    between atoms: C_1  and  C_15
REMARK    4  A    between atoms: C_1  and  C_21
REMARK    5  A    between atoms: C_21  and  C_23
REMARK    6  A    between atoms: C_23  and  N_25
REMARK                            x       y       z     vdW  Elec       q    Type
REMARK                         _______ _______ _______ _____ _____    ______ ____
ROOT
ATOM      1  C   UNL     1      34.872 -23.694 -14.582  0.00  0.00    +0.104 C 
ENDROOT
BRANCH   1   4
ATOM      2  O   UNL     1      33.668 -25.657 -15.187  0.00  0.00    -0.274 OA
ATOM      3  N   UNL     1      35.956 -25.858 -14.932  0.00  0.00    -0.279 N 
ATOM      4  C   UNL     1      34.764 -25.156 -14.931  0.00  0.00    +0.232 C 
ATOM      5  C   UNL     1      36.180 -27.009 -15.795  0.00  0.00    +0.093 C 
ATOM      6  C   UNL     1      37.133 -25.581 -14.113  0.00  0.00    +0.093 C 
ATOM      7  C   UNL     1      37.678 -27.258 -15.717  0.00  0.00    +0.023 C 
ATOM      8  C   UNL     1      38.023 -26.800 -14.305  0.00  0.00    +0.023 C 
ENDBRANCH   1   4
BRANCH   1   9
ATOM      9  C   UNL     1      35.663 -23.492 -13.256  0.00  0.00    -0.011 C 
ATOM     10  C   UNL     1      36.798 -22.738 -13.307  0.00  0.00    -0.004 C 
ATOM     11  C   UNL     1      35.172 -24.083 -12.131  0.00  0.00    -0.004 C 
ATOM     12  C   UNL     1      37.508 -22.557 -12.119  0.00  0.00    -0.000 C 
ATOM     13  C   UNL     1      35.881 -23.902 -10.943  0.00  0.00    -0.000 C 
ATOM     14  C   UNL     1      37.049 -23.139 -10.937  0.00  0.00    -0.000 C 
ENDBRANCH   1   9
BRANCH   1  15
ATOM     15  C   UNL     1      35.663 -22.913 -15.672  0.00  0.00    -0.011 C 
ATOM     16  C   UNL     1      35.051 -22.712 -16.874  0.00  0.00    -0.004 C 
ATOM     17  C   UNL     1      36.917 -22.480 -15.355  0.00  0.00    -0.004 C 
ATOM     18  C   UNL     1      35.759 -22.012 -17.851  0.00  0.00    -0.000 C 
ATOM     19  C   UNL     1      37.625 -21.781 -16.332  0.00  0.00    -0.000 C 
ATOM     20  C   UNL     1      37.046 -21.546 -17.580  0.00  0.00    -0.000 C 
ENDBRANCH   1  15
BRANCH   1  21
ATOM     21  C   UNL     1      33.345 -23.216 -14.468  0.00  0.00    -0.005 C 
ATOM     22  C   UNL     1      32.665 -23.721 -13.173  0.00  0.00    -0.001 C 
BRANCH  21  23
ATOM     23  C   UNL     1      32.495 -23.638 -15.702  0.00  0.00    -0.076 C 
BRANCH  23  25
ATOM     24  O   UNL     1      28.336 -23.937 -16.180  0.00  0.00    -0.358 OA
ATOM     25  N   UNL     1      31.059 -23.541 -15.450  0.00  0.00    +0.390 N 
ATOM     26  C   UNL     1      30.406 -22.704 -16.466  0.00  0.00    -0.045 C 
ATOM     27  C   UNL     1      30.442 -24.875 -15.424  0.00  0.00    -0.045 C 
ATOM     28  C   UNL     1      28.908 -22.628 -16.190  0.00  0.00    +0.119 C 
ATOM     29  C   UNL     1      28.943 -24.748 -15.173  0.00  0.00    +0.119 C 
ATOM     30  H   UNL     1      30.930 -23.105 -14.538  0.00  0.00    -0.079 HD
ENDBRANCH  23  25
ENDBRANCH  21  23
ENDBRANCH   1  21
TORSDOF 6
ENDMDL
MODEL 9
REMARK VINA RESULT:      -3.6     15.725     18.949
REMARK  Name = 92943
REMARK  6 active torsions:
REMARK  status: ('A' for Active; 'I' for Inactive)
REMARK    1  A    between atoms: C_1  and  C_4
REMARK    2  A    between atoms: C_1  and  C_9
REMARK    3  A    between atoms: C_1  and  C_15
REMARK    4  A    between atoms: C_1  and  C_21
REMARK    5  A    between atoms: C_21  and  C_23
REMARK    6  A    between atoms: C_23  and  N_25
REMARK                            x       y       z     vdW  Elec       q    Type
REMARK                         _______ _______ _______ _____ _____    ______ ____
ROOT
ATOM      1  C   UNL     1      32.890  -9.171 -23.251  0.00  0.00    +0.104 C 
ENDROOT
BRANCH   1   4
ATOM      2  O   UNL     1      34.873  -8.001 -22.646  0.00  0.00    -0.274 OA
ATOM      3  N   UNL     1      33.116  -7.949 -21.145  0.00  0.00    -0.279 N 
ATOM      4  C   UNL     1      33.725  -8.319 -22.331  0.00  0.00    +0.232 C 
ATOM      5  C   UNL     1      33.440  -6.705 -20.461  0.00  0.00    +0.093 C 
ATOM      6  C   UNL     1      32.097  -8.697 -20.416  0.00  0.00    +0.093 C 
ATOM      7  C   UNL     1      32.342  -6.545 -19.422  0.00  0.00    +0.023 C 
ATOM      8  C   UNL     1      31.993  -7.987 -19.074  0.00  0.00    +0.023 C 
ENDBRANCH   1   4
BRANCH   1   9
ATOM      9  C   UNL     1      33.761  -9.796 -24.380  0.00  0.00    -0.011 C 
ATOM     10  C   UNL     1      34.877  -9.115 -24.767  0.00  0.00    -0.004 C 
ATOM     11  C   UNL     1      33.352 -10.984 -24.910  0.00  0.00    -0.004 C 
ATOM     12  C   UNL     1      35.658  -9.675 -25.779  0.00  0.00    -0.000 C 
ATOM     13  C   UNL     1      34.133 -11.544 -25.921  0.00  0.00    -0.000 C 
ATOM     14  C   UNL     1      35.286 -10.889 -26.355  0.00  0.00    -0.000 C 
ENDBRANCH   1   9
BRANCH   1  15
ATOM     15  C   UNL     1      32.260 -10.373 -22.487  0.00  0.00    -0.011 C 
ATOM     16  C   UNL     1      33.057 -11.452 -22.242  0.00  0.00    -0.004 C 
ATOM     17  C   UNL     1      30.953 -10.270 -22.112  0.00  0.00    -0.004 C 
ATOM     18  C   UNL     1      32.494 -12.529 -21.556  0.00  0.00    -0.000 C 
ATOM     19  C   UNL     1      30.390 -11.346 -21.427  0.00  0.00    -0.000 C 
ATOM     20  C   UNL     1      31.161 -12.476 -21.149  0.00  0.00    -0.000 C 
ENDBRANCH   1  15
BRANCH   1  21
ATOM     21  C   UNL     1      31.786  -8.153 -23.815  0.00  0.00    -0.005 C 
ATOM     22  C   UNL     1      30.885  -8.801 -24.894  0.00  0.00    -0.001 C 
BRANCH  21  23
ATOM     23  C   UNL     1      32.414  -6.845 -24.377  0.00  0.00    -0.076 C 
BRANCH  23  25
ATOM     24  O   UNL     1      30.297  -3.548 -22.872  0.00  0.00    -0.358 OA
ATOM     25  N   UNL     1      32.056  -5.669 -23.586  0.00  0.00    +0.390 N 
ATOM     26  C   UNL     1      31.878  -4.494 -24.451  0.00  0.00    -0.045 C 
ATOM     27  C   UNL     1      30.832  -5.914 -22.811  0.00  0.00    -0.045 C 
ATOM     28  C   UNL     1      31.494  -3.284 -23.606  0.00  0.00    +0.119 C 
ATOM     29  C   UNL     1      30.471  -4.670 -22.006  0.00  0.00    +0.119 C 
ATOM     30  H   UNL     1      32.820  -5.483 -22.938  0.00  0.00    -0.079 HD
ENDBRANCH  23  25
ENDBRANCH  21  23
ENDBRANCH   1  21
TORSDOF 6
ENDMDL
