MODEL 1
REMARK VINA RESULT:     -12.5      0.000      0.000
REMARK  Name = 25023705
REMARK  6 active torsions:
REMARK  status: ('A' for Active; 'I' for Inactive)
REMARK    1  A    between atoms: C_1  and  C_8
REMARK    2  A    between atoms: C_1  and  C_20
REMARK    3  A    between atoms: C_20  and  N_22
REMARK    4  A    between atoms: C_23  and  C_25
REMARK    5  A    between atoms: C_30  and  O_31
REMARK    6  A    between atoms: O_31  and  C_32
REMARK                            x       y       z     vdW  Elec       q    Type
REMARK                         _______ _______ _______ _____ _____    ______ ____
ROOT
ATOM      1  C   UNL     1      32.719 -23.815 -15.194  0.00  0.00    +0.066 C 
ATOM      2  C   UNL     1      32.190 -22.368 -15.047  0.00  0.00    +0.009 C 
ATOM      3  C   UNL     1      31.621 -24.744 -14.620  0.00  0.00    +0.009 C 
ENDROOT
BRANCH   1   8
ATOM      4  N   UNL     1      35.136 -24.288 -15.221  0.00  0.00    -0.347 NA
ATOM      5  N   UNL     1      37.398 -24.756 -15.376  0.00  0.00    -0.266 NA
ATOM      6  N   UNL     1      38.843 -24.633 -13.454  0.00  0.00    -0.316 NA
ATOM      7  N   UNL     1      39.689 -25.235 -15.552  0.00  0.00    -0.283 N 
ATOM      8  C   UNL     1      34.072 -23.923 -14.465  0.00  0.00    +0.122 C 
ATOM      9  C   UNL     1      34.136 -23.652 -13.115  0.00  0.00    +0.026 C 
ATOM     10  C   UNL     1      35.375 -23.764 -12.508  0.00  0.00    +0.001 C 
ATOM     11  C   UNL     1      36.339 -24.397 -14.641  0.00  0.00    +0.137 C 
ATOM     12  C   UNL     1      36.489 -24.140 -13.273  0.00  0.00    +0.199 C 
ATOM     13  C   UNL     1      37.766 -24.274 -12.735  0.00  0.00    +0.187 C 
ATOM     14  C   UNL     1      38.590 -24.855 -14.751  0.00  0.00    +0.207 C 
ATOM     15  H   UNL     1      39.561 -25.412 -16.512  0.00  0.00    +0.156 HD
ATOM     16  H   UNL     1      40.584 -25.323 -15.150  0.00  0.00    +0.156 HD
ATOM     17  N   UNL     1      37.970 -24.023 -11.355  0.00  0.00    -0.334 N 
ATOM     18  H   UNL     1      38.870 -24.116 -10.966  0.00  0.00    +0.144 HD
ATOM     19  H   UNL     1      37.213 -23.758 -10.786  0.00  0.00    +0.144 HD
ENDBRANCH   1   8
BRANCH   1  20
ATOM     20  C   UNL     1      32.879 -24.121 -16.710  0.00  0.00    +0.096 C 
BRANCH  20  22
ATOM     21  O   UNL     1      33.846 -24.194 -19.412  0.00  0.00    -0.270 OA
ATOM     22  N   UNL     1      33.362 -23.004 -17.481  0.00  0.00    -0.300 N 
ATOM     23  C   UNL     1      33.812 -23.137 -18.789  0.00  0.00    +0.246 C 
ATOM     24  H   UNL     1      33.374 -22.111 -17.065  0.00  0.00    +0.150 HD
BRANCH  23  25
ATOM     25  C   UNL     1      34.303 -21.894 -19.438  0.00  0.00    +0.054 C 
ATOM     26  C   UNL     1      33.395 -20.967 -19.947  0.00  0.00    +0.008 C 
ATOM     27  C   UNL     1      35.675 -21.656 -19.538  0.00  0.00    +0.008 C 
ATOM     28  C   UNL     1      33.857 -19.801 -20.558  0.00  0.00    +0.038 C 
ATOM     29  C   UNL     1      36.137 -20.489 -20.148  0.00  0.00    +0.038 C 
ATOM     30  C   UNL     1      35.228 -19.563 -20.658  0.00  0.00    +0.145 C 
BRANCH  30  31
ATOM     31  O   UNL     1      35.679 -18.426 -21.256  0.00  0.00    -0.453 OA
BRANCH  31  32
ATOM     32  C   UNL     1      35.254 -18.166 -22.548  0.00  0.00    +0.145 C 
ATOM     33  C   UNL     1      35.084 -16.849 -22.973  0.00  0.00    +0.037 C 
ATOM     34  C   UNL     1      34.994 -19.221 -23.423  0.00  0.00    +0.037 C 
ATOM     35  C   UNL     1      34.654 -16.585 -24.275  0.00  0.00    +0.003 C 
ATOM     36  C   UNL     1      34.565 -18.958 -24.724  0.00  0.00    +0.003 C 
ATOM     37  C   UNL     1      34.395 -17.641 -25.150  0.00  0.00    +0.000 C 
ENDBRANCH  31  32
ENDBRANCH  30  31
ENDBRANCH  23  25
ENDBRANCH  20  22
ENDBRANCH   1  20
TORSDOF 6
ENDMDL
MODEL 2
REMARK VINA RESULT:     -11.8      4.795      7.729
REMARK  Name = 25023705
REMARK  6 active torsions:
REMARK  status: ('A' for Active; 'I' for Inactive)
REMARK    1  A    between atoms: C_1  and  C_8
REMARK    2  A    between atoms: C_1  and  C_20
REMARK    3  A    between atoms: C_20  and  N_22
REMARK    4  A    between atoms: C_23  and  C_25
REMARK    5  A    between atoms: C_30  and  O_31
REMARK    6  A    between atoms: O_31  and  C_32
REMARK                            x       y       z     vdW  Elec       q    Type
REMARK                         _______ _______ _______ _____ _____    ______ ____
ROOT
ATOM      1  C   UNL     1      34.889 -19.269 -21.583  0.00  0.00    +0.066 C 
ATOM      2  C   UNL     1      33.487 -18.926 -22.143  0.00  0.00    +0.009 C 
ATOM      3  C   UNL     1      35.716 -19.810 -22.775  0.00  0.00    +0.009 C 
ENDROOT
BRANCH   1   8
ATOM      4  N   UNL     1      35.836 -20.537 -19.696  0.00  0.00    -0.347 NA
ATOM      5  N   UNL     1      36.844 -21.671 -17.946  0.00  0.00    -0.266 NA
ATOM      6  N   UNL     1      35.606 -23.203 -16.561  0.00  0.00    -0.316 NA
ATOM      7  N   UNL     1      37.882 -22.812 -16.177  0.00  0.00    -0.283 N 
ATOM      8  C   UNL     1      34.726 -20.275 -20.428  0.00  0.00    +0.122 C 
ATOM      9  C   UNL     1      33.494 -20.848 -20.198  0.00  0.00    +0.026 C 
ATOM     10  C   UNL     1      33.401 -21.745 -19.148  0.00  0.00    +0.001 C 
ATOM     11  C   UNL     1      35.755 -21.404 -18.677  0.00  0.00    +0.137 C 
ATOM     12  C   UNL     1      34.539 -22.029 -18.379  0.00  0.00    +0.199 C 
ATOM     13  C   UNL     1      34.525 -22.920 -17.308  0.00  0.00    +0.187 C 
ATOM     14  C   UNL     1      36.717 -22.551 -16.931  0.00  0.00    +0.207 C 
ATOM     15  H   UNL     1      38.727 -22.361 -16.406  0.00  0.00    +0.156 HD
ATOM     16  H   UNL     1      37.849 -23.446 -15.424  0.00  0.00    +0.156 HD
ATOM     17  N   UNL     1      33.318 -23.578 -16.965  0.00  0.00    -0.334 N 
ATOM     18  H   UNL     1      33.300 -24.209 -16.210  0.00  0.00    +0.144 HD
ATOM     19  H   UNL     1      32.499 -23.405 -17.482  0.00  0.00    +0.144 HD
ENDBRANCH   1   8
BRANCH   1  20
ATOM     20  C   UNL     1      35.547 -17.952 -21.084  0.00  0.00    +0.096 C 
BRANCH  20  22
ATOM     21  O   UNL     1      35.462 -15.970 -23.159  0.00  0.00    -0.270 OA
ATOM     22  N   UNL     1      34.676 -16.806 -21.143  0.00  0.00    -0.300 N 
ATOM     23  C   UNL     1      34.707 -15.897 -22.193  0.00  0.00    +0.246 C 
ATOM     24  H   UNL     1      34.033 -16.662 -20.411  0.00  0.00    +0.150 HD
BRANCH  23  25
ATOM     25  C   UNL     1      33.763 -14.754 -22.093  0.00  0.00    +0.054 C 
ATOM     26  C   UNL     1      33.457 -14.002 -23.226  0.00  0.00    +0.008 C 
ATOM     27  C   UNL     1      33.185 -14.434 -20.864  0.00  0.00    +0.008 C 
ATOM     28  C   UNL     1      32.571 -12.928 -23.131  0.00  0.00    +0.038 C 
ATOM     29  C   UNL     1      32.300 -13.360 -20.770  0.00  0.00    +0.038 C 
ATOM     30  C   UNL     1      31.994 -12.607 -21.903  0.00  0.00    +0.145 C 
BRANCH  30  31
ATOM     31  O   UNL     1      31.132 -11.558 -21.810  0.00  0.00    -0.453 OA
BRANCH  31  32
ATOM     32  C   UNL     1      31.663 -10.311 -21.527  0.00  0.00    +0.145 C 
ATOM     33  C   UNL     1      31.715  -9.859 -20.208  0.00  0.00    +0.037 C 
ATOM     34  C   UNL     1      32.145  -9.507 -22.560  0.00  0.00    +0.037 C 
ATOM     35  C   UNL     1      32.249  -8.602 -19.922  0.00  0.00    +0.003 C 
ATOM     36  C   UNL     1      32.679  -8.250 -22.274  0.00  0.00    +0.003 C 
ATOM     37  C   UNL     1      32.731  -7.798 -20.956  0.00  0.00    +0.000 C 
ENDBRANCH  31  32
ENDBRANCH  30  31
ENDBRANCH  23  25
ENDBRANCH  20  22
ENDBRANCH   1  20
TORSDOF 6
ENDMDL
MODEL 3
REMARK VINA RESULT:     -11.8      4.882     10.869
REMARK  Name = 25023705
REMARK  6 active torsions:
REMARK  status: ('A' for Active; 'I' for Inactive)
REMARK    1  A    between atoms: C_1  and  C_8
REMARK    2  A    between atoms: C_1  and  C_20
REMARK    3  A    between atoms: C_20  and  N_22
REMARK    4  A    between atoms: C_23  and  C_25
REMARK    5  A    between atoms: C_30  and  O_31
REMARK    6  A    between atoms: O_31  and  C_32
REMARK                            x       y       z     vdW  Elec       q    Type
REMARK                         _______ _______ _______ _____ _____    ______ ____
ROOT
ATOM      1  C   UNL     1      34.978 -18.849 -22.086  0.00  0.00    +0.066 C 
ATOM      2  C   UNL     1      36.414 -18.776 -21.514  0.00  0.00    +0.009 C 
ATOM      3  C   UNL     1      35.103 -19.440 -23.511  0.00  0.00    +0.009 C 
ENDROOT
BRANCH   1   8
ATOM      4  N   UNL     1      34.389 -16.735 -23.205  0.00  0.00    -0.347 NA
ATOM      5  N   UNL     1      33.887 -14.797 -24.369  0.00  0.00    -0.266 NA
ATOM      6  N   UNL     1      32.782 -12.941 -23.306  0.00  0.00    -0.316 NA
ATOM      7  N   UNL     1      33.387 -12.841 -25.566  0.00  0.00    -0.283 N 
ATOM      8  C   UNL     1      34.358 -17.438 -22.047  0.00  0.00    +0.122 C 
ATOM      9  C   UNL     1      33.818 -16.969 -20.870  0.00  0.00    +0.026 C 
ATOM     10  C   UNL     1      33.275 -15.696 -20.888  0.00  0.00    +0.001 C 
ATOM     11  C   UNL     1      33.864 -15.502 -23.232  0.00  0.00    +0.137 C 
ATOM     12  C   UNL     1      33.296 -14.953 -22.077  0.00  0.00    +0.199 C 
ATOM     13  C   UNL     1      32.770 -13.666 -22.175  0.00  0.00    +0.187 C 
ATOM     14  C   UNL     1      33.348 -13.560 -24.351  0.00  0.00    +0.207 C 
ATOM     15  H   UNL     1      33.792 -13.247 -26.365  0.00  0.00    +0.156 HD
ATOM     16  H   UNL     1      33.009 -11.933 -25.612  0.00  0.00    +0.156 HD
ATOM     17  N   UNL     1      32.183 -13.066 -21.034  0.00  0.00    -0.334 N 
ATOM     18  H   UNL     1      31.809 -12.157 -21.094  0.00  0.00    +0.144 HD
ATOM     19  H   UNL     1      32.150 -13.556 -20.181  0.00  0.00    +0.144 HD
ENDBRANCH   1   8
BRANCH   1  20
ATOM     20  C   UNL     1      34.157 -19.839 -21.211  0.00  0.00    +0.096 C 
BRANCH  20  22
ATOM     21  O   UNL     1      33.678 -22.291 -19.799  0.00  0.00    -0.270 OA
ATOM     22  N   UNL     1      34.865 -20.315 -20.051  0.00  0.00    -0.300 N 
ATOM     23  C   UNL     1      34.561 -21.521 -19.432  0.00  0.00    +0.246 C 
ATOM     24  H   UNL     1      35.593 -19.764 -19.681  0.00  0.00    +0.150 HD
BRANCH  23  25
ATOM     25  C   UNL     1      35.366 -21.857 -18.229  0.00  0.00    +0.054 C 
ATOM     26  C   UNL     1      34.807 -22.625 -17.208  0.00  0.00    +0.008 C 
ATOM     27  C   UNL     1      36.681 -21.401 -18.121  0.00  0.00    +0.008 C 
ATOM     28  C   UNL     1      35.563 -22.938 -16.079  0.00  0.00    +0.038 C 
ATOM     29  C   UNL     1      37.436 -21.716 -16.992  0.00  0.00    +0.038 C 
ATOM     30  C   UNL     1      36.877 -22.484 -15.970  0.00  0.00    +0.145 C 
BRANCH  30  31
ATOM     31  O   UNL     1      37.613 -22.788 -14.867  0.00  0.00    -0.453 OA
BRANCH  31  32
ATOM     32  C   UNL     1      37.460 -24.051 -14.319  0.00  0.00    +0.145 C 
ATOM     33  C   UNL     1      37.952 -25.168 -14.993  0.00  0.00    +0.037 C 
ATOM     34  C   UNL     1      36.812 -24.205 -13.093  0.00  0.00    +0.037 C 
ATOM     35  C   UNL     1      37.797 -26.440 -14.442  0.00  0.00    +0.003 C 
ATOM     36  C   UNL     1      36.657 -25.477 -12.542  0.00  0.00    +0.003 C 
ATOM     37  C   UNL     1      37.149 -26.594 -13.216  0.00  0.00    +0.000 C 
ENDBRANCH  31  32
ENDBRANCH  30  31
ENDBRANCH  23  25
ENDBRANCH  20  22
ENDBRANCH   1  20
TORSDOF 6
ENDMDL
MODEL 4
REMARK VINA RESULT:     -11.7      4.957     11.141
REMARK  Name = 25023705
REMARK  6 active torsions:
REMARK  status: ('A' for Active; 'I' for Inactive)
REMARK    1  A    between atoms: C_1  and  C_8
REMARK    2  A    between atoms: C_1  and  C_20
REMARK    3  A    between atoms: C_20  and  N_22
REMARK    4  A    between atoms: C_23  and  C_25
REMARK    5  A    between atoms: C_30  and  O_31
REMARK    6  A    between atoms: O_31  and  C_32
REMARK                            x       y       z     vdW  Elec       q    Type
REMARK                         _______ _______ _______ _____ _____    ______ ____
ROOT
ATOM      1  C   UNL     1      34.819 -18.821 -22.118  0.00  0.00    +0.066 C 
ATOM      2  C   UNL     1      35.108 -19.626 -23.408  0.00  0.00    +0.009 C 
ATOM      3  C   UNL     1      33.620 -19.515 -21.427  0.00  0.00    +0.009 C 
ENDROOT
BRANCH   1   8
ATOM      4  N   UNL     1      34.236 -17.114 -23.796  0.00  0.00    -0.347 NA
ATOM      5  N   UNL     1      33.678 -15.607 -25.463  0.00  0.00    -0.266 NA
ATOM      6  N   UNL     1      33.492 -13.249 -25.016  0.00  0.00    -0.316 NA
ATOM      7  N   UNL     1      33.111 -14.095 -27.166  0.00  0.00    -0.283 N 
ATOM      8  C   UNL     1      34.554 -17.352 -22.500  0.00  0.00    +0.122 C 
ATOM      9  C   UNL     1      34.652 -16.374 -21.534  0.00  0.00    +0.026 C 
ATOM     10  C   UNL     1      34.405 -15.070 -21.930  0.00  0.00    +0.001 C 
ATOM     11  C   UNL     1      33.994 -15.856 -24.186  0.00  0.00    +0.137 C 
ATOM     12  C   UNL     1      34.073 -14.804 -23.266  0.00  0.00    +0.199 C 
ATOM     13  C   UNL     1      33.811 -13.521 -23.739  0.00  0.00    +0.187 C 
ATOM     14  C   UNL     1      33.443 -14.325 -25.813  0.00  0.00    +0.207 C 
ATOM     15  H   UNL     1      33.062 -14.850 -27.796  0.00  0.00    +0.156 HD
ATOM     16  H   UNL     1      32.930 -13.179 -27.479  0.00  0.00    +0.156 HD
ATOM     17  N   UNL     1      33.878 -12.422 -22.847  0.00  0.00    -0.334 N 
ATOM     18  H   UNL     1      33.694 -11.512 -23.173  0.00  0.00    +0.144 HD
ATOM     19  H   UNL     1      34.108 -12.569 -21.901  0.00  0.00    +0.144 HD
ENDBRANCH   1   8
BRANCH   1  20
ATOM     20  C   UNL     1      36.059 -18.937 -21.187  0.00  0.00    +0.096 C 
BRANCH  20  22
ATOM     21  O   UNL     1      37.114 -21.543 -20.608  0.00  0.00    -0.270 OA
ATOM     22  N   UNL     1      35.824 -19.714 -19.998  0.00  0.00    -0.300 N 
ATOM     23  C   UNL     1      36.381 -20.973 -19.805  0.00  0.00    +0.246 C 
ATOM     24  H   UNL     1      35.247 -19.340 -19.294  0.00  0.00    +0.150 HD
BRANCH  23  25
ATOM     25  C   UNL     1      36.019 -21.657 -18.537  0.00  0.00    +0.054 C 
ATOM     26  C   UNL     1      34.782 -22.288 -18.412  0.00  0.00    +0.008 C 
ATOM     27  C   UNL     1      36.919 -21.667 -17.470  0.00  0.00    +0.008 C 
ATOM     28  C   UNL     1      34.444 -22.929 -17.221  0.00  0.00    +0.038 C 
ATOM     29  C   UNL     1      36.580 -22.308 -16.279  0.00  0.00    +0.038 C 
ATOM     30  C   UNL     1      35.342 -22.939 -16.154  0.00  0.00    +0.145 C 
BRANCH  30  31
ATOM     31  O   UNL     1      35.011 -23.562 -14.991  0.00  0.00    -0.453 OA
BRANCH  31  32
ATOM     32  C   UNL     1      35.971 -24.361 -14.392  0.00  0.00    +0.145 C 
ATOM     33  C   UNL     1      36.303 -25.593 -14.957  0.00  0.00    +0.037 C 
ATOM     34  C   UNL     1      36.604 -23.935 -13.224  0.00  0.00    +0.037 C 
ATOM     35  C   UNL     1      37.269 -26.399 -14.354  0.00  0.00    +0.003 C 
ATOM     36  C   UNL     1      37.570 -24.741 -12.621  0.00  0.00    +0.003 C 
ATOM     37  C   UNL     1      37.902 -25.972 -13.186  0.00  0.00    +0.000 C 
ENDBRANCH  31  32
ENDBRANCH  30  31
ENDBRANCH  23  25
ENDBRANCH  20  22
ENDBRANCH   1  20
TORSDOF 6
ENDMDL
MODEL 5
REMARK VINA RESULT:     -11.7      4.896      8.225
REMARK  Name = 25023705
REMARK  6 active torsions:
REMARK  status: ('A' for Active; 'I' for Inactive)
REMARK    1  A    between atoms: C_1  and  C_8
REMARK    2  A    between atoms: C_1  and  C_20
REMARK    3  A    between atoms: C_20  and  N_22
REMARK    4  A    between atoms: C_23  and  C_25
REMARK    5  A    between atoms: C_30  and  O_31
REMARK    6  A    between atoms: O_31  and  C_32
REMARK                            x       y       z     vdW  Elec       q    Type
REMARK                         _______ _______ _______ _____ _____    ______ ____
ROOT
ATOM      1  C   UNL     1      34.965 -18.922 -22.392  0.00  0.00    +0.066 C 
ATOM      2  C   UNL     1      33.452 -18.594 -22.379  0.00  0.00    +0.009 C 
ATOM      3  C   UNL     1      35.251 -19.613 -23.748  0.00  0.00    +0.009 C 
ENDROOT
BRANCH   1   8
ATOM      4  N   UNL     1      34.266 -20.513 -20.646  0.00  0.00    -0.347 NA
ATOM      5  N   UNL     1      33.487 -22.007 -19.057  0.00  0.00    -0.266 NA
ATOM      6  N   UNL     1      34.938 -22.910 -17.361  0.00  0.00    -0.316 NA
ATOM      7  N   UNL     1      32.679 -23.519 -17.454  0.00  0.00    -0.283 N 
ATOM      8  C   UNL     1      35.291 -19.795 -21.165  0.00  0.00    +0.122 C 
ATOM      9  C   UNL     1      36.575 -19.805 -20.664  0.00  0.00    +0.026 C 
ATOM     10  C   UNL     1      36.816 -20.605 -19.561  0.00  0.00    +0.001 C 
ATOM     11  C   UNL     1      34.491 -21.292 -19.579  0.00  0.00    +0.137 C 
ATOM     12  C   UNL     1      35.768 -21.356 -19.010  0.00  0.00    +0.199 C 
ATOM     13  C   UNL     1      35.932 -22.184 -17.901  0.00  0.00    +0.187 C 
ATOM     14  C   UNL     1      33.758 -22.776 -17.982  0.00  0.00    +0.207 C 
ATOM     15  H   UNL     1      31.789 -23.457 -17.870  0.00  0.00    +0.156 HD
ATOM     16  H   UNL     1      32.818 -24.098 -16.669  0.00  0.00    +0.156 HD
ATOM     17  N   UNL     1      37.205 -22.285 -17.290  0.00  0.00    -0.334 N 
ATOM     18  H   UNL     1      37.330 -22.867 -16.505  0.00  0.00    +0.144 HD
ATOM     19  H   UNL     1      37.966 -21.772 -17.648  0.00  0.00    +0.144 HD
ENDBRANCH   1   8
BRANCH   1  20
ATOM     20  C   UNL     1      35.752 -17.582 -22.345  0.00  0.00    +0.096 C 
BRANCH  20  22
ATOM     21  O   UNL     1      34.945 -15.915 -20.151  0.00  0.00    -0.270 OA
ATOM     22  N   UNL     1      34.915 -16.412 -22.417  0.00  0.00    -0.300 N 
ATOM     23  C   UNL     1      34.576 -15.665 -21.296  0.00  0.00    +0.246 C 
ATOM     24  H   UNL     1      34.569 -16.131 -23.295  0.00  0.00    +0.150 HD
BRANCH  23  25
ATOM     25  C   UNL     1      33.683 -14.502 -21.534  0.00  0.00    +0.054 C 
ATOM     26  C   UNL     1      33.725 -13.828 -22.754  0.00  0.00    +0.008 C 
ATOM     27  C   UNL     1      32.802 -14.085 -20.535  0.00  0.00    +0.008 C 
ATOM     28  C   UNL     1      32.887 -12.736 -22.976  0.00  0.00    +0.038 C 
ATOM     29  C   UNL     1      31.963 -12.993 -20.758  0.00  0.00    +0.038 C 
ATOM     30  C   UNL     1      32.006 -12.318 -21.978  0.00  0.00    +0.145 C 
BRANCH  30  31
ATOM     31  O   UNL     1      31.190 -11.251 -22.194  0.00  0.00    -0.453 OA
BRANCH  31  32
ATOM     32  C   UNL     1      31.737  -9.985 -22.069  0.00  0.00    +0.145 C 
ATOM     33  C   UNL     1      31.984  -9.455 -20.803  0.00  0.00    +0.037 C 
ATOM     34  C   UNL     1      32.041  -9.240 -23.209  0.00  0.00    +0.037 C 
ATOM     35  C   UNL     1      32.535  -8.180 -20.675  0.00  0.00    +0.003 C 
ATOM     36  C   UNL     1      32.591  -7.965 -23.081  0.00  0.00    +0.003 C 
ATOM     37  C   UNL     1      32.838  -7.435 -21.815  0.00  0.00    +0.000 C 
ENDBRANCH  31  32
ENDBRANCH  30  31
ENDBRANCH  23  25
ENDBRANCH  20  22
ENDBRANCH   1  20
TORSDOF 6
ENDMDL
MODEL 6
REMARK VINA RESULT:     -11.6      4.636     10.928
REMARK  Name = 25023705
REMARK  6 active torsions:
REMARK  status: ('A' for Active; 'I' for Inactive)
REMARK    1  A    between atoms: C_1  and  C_8
REMARK    2  A    between atoms: C_1  and  C_20
REMARK    3  A    between atoms: C_20  and  N_22
REMARK    4  A    between atoms: C_23  and  C_25
REMARK    5  A    between atoms: C_30  and  O_31
REMARK    6  A    between atoms: O_31  and  C_32
REMARK                            x       y       z     vdW  Elec       q    Type
REMARK                         _______ _______ _______ _____ _____    ______ ____
ROOT
ATOM      1  C   UNL     1      34.770 -18.803 -22.001  0.00  0.00    +0.066 C 
ATOM      2  C   UNL     1      34.911 -19.626 -23.305  0.00  0.00    +0.009 C 
ATOM      3  C   UNL     1      33.633 -19.466 -21.185  0.00  0.00    +0.009 C 
ENDROOT
BRANCH   1   8
ATOM      4  N   UNL     1      33.755 -16.617 -21.493  0.00  0.00    -0.347 NA
ATOM      5  N   UNL     1      32.755 -14.614 -20.902  0.00  0.00    -0.266 NA
ATOM      6  N   UNL     1      32.915 -12.665 -22.307  0.00  0.00    -0.316 NA
ATOM      7  N   UNL     1      31.734 -12.592 -20.286  0.00  0.00    -0.283 N 
ATOM      8  C   UNL     1      34.497 -17.333 -22.372  0.00  0.00    +0.122 C 
ATOM      9  C   UNL     1      35.005 -16.827 -23.550  0.00  0.00    +0.026 C 
ATOM     10  C   UNL     1      34.730 -15.501 -23.836  0.00  0.00    +0.001 C 
ATOM     11  C   UNL     1      33.486 -15.332 -21.763  0.00  0.00    +0.137 C 
ATOM     12  C   UNL     1      33.965 -14.744 -22.938  0.00  0.00    +0.199 C 
ATOM     13  C   UNL     1      33.647 -13.405 -23.157  0.00  0.00    +0.187 C 
ATOM     14  C   UNL     1      32.507 -13.325 -21.213  0.00  0.00    +0.207 C 
ATOM     15  H   UNL     1      31.407 -13.028 -19.466  0.00  0.00    +0.156 HD
ATOM     16  H   UNL     1      31.521 -11.647 -20.461  0.00  0.00    +0.156 HD
ATOM     17  N   UNL     1      34.109 -12.763 -24.332  0.00  0.00    -0.334 N 
ATOM     18  H   UNL     1      33.888 -11.817 -24.495  0.00  0.00    +0.144 HD
ATOM     19  H   UNL     1      34.648 -13.262 -24.987  0.00  0.00    +0.144 HD
ENDBRANCH   1   8
BRANCH   1  20
ATOM     20  C   UNL     1      36.096 -18.936 -21.199  0.00  0.00    +0.096 C 
BRANCH  20  22
ATOM     21  O   UNL     1      36.764 -21.693 -20.760  0.00  0.00    -0.270 OA
ATOM     22  N   UNL     1      35.959 -19.668 -19.966  0.00  0.00    -0.300 N 
ATOM     23  C   UNL     1      36.310 -21.007 -19.848  0.00  0.00    +0.246 C 
ATOM     24  H   UNL     1      35.602 -19.201 -19.176  0.00  0.00    +0.150 HD
BRANCH  23  25
ATOM     25  C   UNL     1      36.084 -21.625 -18.516  0.00  0.00    +0.054 C 
ATOM     26  C   UNL     1      37.038 -21.483 -17.510  0.00  0.00    +0.008 C 
ATOM     27  C   UNL     1      34.915 -22.348 -18.274  0.00  0.00    +0.008 C 
ATOM     28  C   UNL     1      36.825 -22.065 -16.260  0.00  0.00    +0.038 C 
ATOM     29  C   UNL     1      34.702 -22.930 -17.024  0.00  0.00    +0.038 C 
ATOM     30  C   UNL     1      35.657 -22.788 -16.018  0.00  0.00    +0.145 C 
BRANCH  30  31
ATOM     31  O   UNL     1      35.450 -23.358 -14.799  0.00  0.00    -0.453 OA
BRANCH  31  32
ATOM     32  C   UNL     1      36.474 -24.121 -14.263  0.00  0.00    +0.145 C 
ATOM     33  C   UNL     1      36.888 -25.284 -14.911  0.00  0.00    +0.037 C 
ATOM     34  C   UNL     1      37.088 -23.728 -13.074  0.00  0.00    +0.037 C 
ATOM     35  C   UNL     1      37.918 -26.055 -14.371  0.00  0.00    +0.003 C 
ATOM     36  C   UNL     1      38.119 -24.498 -12.534  0.00  0.00    +0.003 C 
ATOM     37  C   UNL     1      38.533 -25.661 -13.182  0.00  0.00    +0.000 C 
ENDBRANCH  31  32
ENDBRANCH  30  31
ENDBRANCH  23  25
ENDBRANCH  20  22
ENDBRANCH   1  20
TORSDOF 6
ENDMDL
MODEL 7
REMARK VINA RESULT:     -11.6      2.430      5.026
REMARK  Name = 25023705
REMARK  6 active torsions:
REMARK  status: ('A' for Active; 'I' for Inactive)
REMARK    1  A    between atoms: C_1  and  C_8
REMARK    2  A    between atoms: C_1  and  C_20
REMARK    3  A    between atoms: C_20  and  N_22
REMARK    4  A    between atoms: C_23  and  C_25
REMARK    5  A    between atoms: C_30  and  O_31
REMARK    6  A    between atoms: O_31  and  C_32
REMARK                            x       y       z     vdW  Elec       q    Type
REMARK                         _______ _______ _______ _____ _____    ______ ____
ROOT
ATOM      1  C   UNL     1      34.517 -23.626 -15.415  0.00  0.00    +0.066 C 
ATOM      2  C   UNL     1      35.325 -24.538 -14.460  0.00  0.00    +0.009 C 
ATOM      3  C   UNL     1      34.893 -22.169 -15.052  0.00  0.00    +0.009 C 
ENDROOT
BRANCH   1   8
ATOM      4  N   UNL     1      32.168 -23.287 -16.076  0.00  0.00    -0.347 NA
ATOM      5  N   UNL     1      30.002 -22.882 -16.789  0.00  0.00    -0.266 NA
ATOM      6  N   UNL     1      28.118 -23.999 -15.788  0.00  0.00    -0.316 NA
ATOM      7  N   UNL     1      27.814 -22.458 -17.525  0.00  0.00    -0.283 N 
ATOM      8  C   UNL     1      33.018 -23.944 -15.249  0.00  0.00    +0.122 C 
ATOM      9  C   UNL     1      32.620 -24.854 -14.294  0.00  0.00    +0.026 C 
ATOM     10  C   UNL     1      31.263 -25.103 -14.186  0.00  0.00    +0.001 C 
ATOM     11  C   UNL     1      30.852 -23.523 -15.978  0.00  0.00    +0.137 C 
ATOM     12  C   UNL     1      30.368 -24.434 -15.033  0.00  0.00    +0.199 C 
ATOM     13  C   UNL     1      28.990 -24.631 -14.984  0.00  0.00    +0.187 C 
ATOM     14  C   UNL     1      28.686 -23.149 -16.656  0.00  0.00    +0.207 C 
ATOM     15  H   UNL     1      28.178 -21.821 -18.182  0.00  0.00    +0.156 HD
ATOM     16  H   UNL     1      26.843 -22.613 -17.473  0.00  0.00    +0.156 HD
ATOM     17  N   UNL     1      28.449 -25.544 -14.045  0.00  0.00    -0.334 N 
ATOM     18  H   UNL     1      27.476 -25.689 -14.004  0.00  0.00    +0.144 HD
ATOM     19  H   UNL     1      29.046 -26.032 -13.433  0.00  0.00    +0.144 HD
ENDBRANCH   1   8
BRANCH   1  20
ATOM     20  C   UNL     1      34.986 -23.910 -16.869  0.00  0.00    +0.096 C 
BRANCH  20  22
ATOM     21  O   UNL     1      33.916 -23.427 -19.489  0.00  0.00    -0.270 OA
ATOM     22  N   UNL     1      35.165 -22.724 -17.666  0.00  0.00    -0.300 N 
ATOM     23  C   UNL     1      34.606 -22.580 -18.929  0.00  0.00    +0.246 C 
ATOM     24  H   UNL     1      35.706 -21.986 -17.301  0.00  0.00    +0.150 HD
BRANCH  23  25
ATOM     25  C   UNL     1      34.907 -21.306 -19.633  0.00  0.00    +0.054 C 
ATOM     26  C   UNL     1      36.229 -20.894 -19.794  0.00  0.00    +0.008 C 
ATOM     27  C   UNL     1      33.865 -20.523 -20.132  0.00  0.00    +0.008 C 
ATOM     28  C   UNL     1      36.510 -19.698 -20.454  0.00  0.00    +0.038 C 
ATOM     29  C   UNL     1      34.147 -19.327 -20.792  0.00  0.00    +0.038 C 
ATOM     30  C   UNL     1      35.469 -18.914 -20.952  0.00  0.00    +0.145 C 
BRANCH  30  31
ATOM     31  O   UNL     1      35.744 -17.746 -21.594  0.00  0.00    -0.453 OA
BRANCH  31  32
ATOM     32  C   UNL     1      35.205 -17.563 -22.857  0.00  0.00    +0.145 C 
ATOM     33  C   UNL     1      34.764 -16.300 -23.250  0.00  0.00    +0.037 C 
ATOM     34  C   UNL     1      35.101 -18.643 -23.735  0.00  0.00    +0.037 C 
ATOM     35  C   UNL     1      34.219 -16.115 -24.521  0.00  0.00    +0.003 C 
ATOM     36  C   UNL     1      34.557 -18.458 -25.006  0.00  0.00    +0.003 C 
ATOM     37  C   UNL     1      34.116 -17.195 -25.398  0.00  0.00    +0.000 C 
ENDBRANCH  31  32
ENDBRANCH  30  31
ENDBRANCH  23  25
ENDBRANCH  20  22
ENDBRANCH   1  20
TORSDOF 6
ENDMDL
MODEL 8
REMARK VINA RESULT:     -11.4      5.829     11.755
REMARK  Name = 25023705
REMARK  6 active torsions:
REMARK  status: ('A' for Active; 'I' for Inactive)
REMARK    1  A    between atoms: C_1  and  C_8
REMARK    2  A    between atoms: C_1  and  C_20
REMARK    3  A    between atoms: C_20  and  N_22
REMARK    4  A    between atoms: C_23  and  C_25
REMARK    5  A    between atoms: C_30  and  O_31
REMARK    6  A    between atoms: O_31  and  C_32
REMARK                            x       y       z     vdW  Elec       q    Type
REMARK                         _______ _______ _______ _____ _____    ______ ____
ROOT
ATOM      1  C   UNL     1      34.179 -15.905 -21.475  0.00  0.00    +0.066 C 
ATOM      2  C   UNL     1      32.835 -16.580 -21.109  0.00  0.00    +0.009 C 
ATOM      3  C   UNL     1      34.593 -15.058 -20.247  0.00  0.00    +0.009 C 
ENDROOT
BRANCH   1   8
ATOM      4  N   UNL     1      34.086 -13.738 -22.642  0.00  0.00    -0.347 NA
ATOM      5  N   UNL     1      34.026 -11.642 -23.624  0.00  0.00    -0.266 NA
ATOM      6  N   UNL     1      33.597 -11.366 -25.977  0.00  0.00    -0.316 NA
ATOM      7  N   UNL     1      33.968  -9.508 -24.601  0.00  0.00    -0.283 N 
ATOM      8  C   UNL     1      33.985 -15.084 -22.764  0.00  0.00    +0.122 C 
ATOM      9  C   UNL     1      33.723 -15.737 -23.949  0.00  0.00    +0.026 C 
ATOM     10  C   UNL     1      33.556 -14.953 -25.078  0.00  0.00    +0.001 C 
ATOM     11  C   UNL     1      33.927 -12.972 -23.730  0.00  0.00    +0.137 C 
ATOM     12  C   UNL     1      33.658 -13.558 -24.972  0.00  0.00    +0.199 C 
ATOM     13  C   UNL     1      33.503 -12.704 -26.061  0.00  0.00    +0.187 C 
ATOM     14  C   UNL     1      33.858 -10.909 -24.744  0.00  0.00    +0.207 C 
ATOM     15  H   UNL     1      34.157  -9.118 -23.717  0.00  0.00    +0.156 HD
ATOM     16  H   UNL     1      33.854  -8.923 -25.385  0.00  0.00    +0.156 HD
ATOM     17  N   UNL     1      33.230 -13.248 -27.340  0.00  0.00    -0.334 N 
ATOM     18  H   UNL     1      33.118 -12.651 -28.115  0.00  0.00    +0.144 HD
ATOM     19  H   UNL     1      33.150 -14.223 -27.454  0.00  0.00    +0.144 HD
ENDBRANCH   1   8
BRANCH   1  20
ATOM     20  C   UNL     1      35.241 -17.022 -21.684  0.00  0.00    +0.096 C 
BRANCH  20  22
ATOM     21  O   UNL     1      34.851 -19.741 -22.518  0.00  0.00    -0.270 OA
ATOM     22  N   UNL     1      35.058 -18.166 -20.828  0.00  0.00    -0.300 N 
ATOM     23  C   UNL     1      34.876 -19.450 -21.325  0.00  0.00    +0.246 C 
ATOM     24  H   UNL     1      35.063 -18.033 -19.852  0.00  0.00    +0.150 HD
BRANCH  23  25
ATOM     25  C   UNL     1      34.675 -20.518 -20.312  0.00  0.00    +0.054 C 
ATOM     26  C   UNL     1      33.387 -20.957 -20.008  0.00  0.00    +0.008 C 
ATOM     27  C   UNL     1      35.776 -21.081 -19.665  0.00  0.00    +0.008 C 
ATOM     28  C   UNL     1      33.199 -21.959 -19.056  0.00  0.00    +0.038 C 
ATOM     29  C   UNL     1      35.587 -22.084 -18.714  0.00  0.00    +0.038 C 
ATOM     30  C   UNL     1      34.298 -22.522 -18.409  0.00  0.00    +0.145 C 
BRANCH  30  31
ATOM     31  O   UNL     1      34.115 -23.498 -17.478  0.00  0.00    -0.453 OA
BRANCH  31  32
ATOM     32  C   UNL     1      33.133 -23.299 -16.521  0.00  0.00    +0.145 C 
ATOM     33  C   UNL     1      31.803 -23.146 -16.910  0.00  0.00    +0.037 C 
ATOM     34  C   UNL     1      33.476 -23.249 -15.170  0.00  0.00    +0.037 C 
ATOM     35  C   UNL     1      30.814 -22.944 -15.947  0.00  0.00    +0.003 C 
ATOM     36  C   UNL     1      32.487 -23.047 -14.207  0.00  0.00    +0.003 C 
ATOM     37  C   UNL     1      31.157 -22.894 -14.595  0.00  0.00    +0.000 C 
ENDBRANCH  31  32
ENDBRANCH  30  31
ENDBRANCH  23  25
ENDBRANCH  20  22
ENDBRANCH   1  20
TORSDOF 6
ENDMDL
MODEL 9
REMARK VINA RESULT:     -11.3      1.033      2.170
REMARK  Name = 25023705
REMARK  6 active torsions:
REMARK  status: ('A' for Active; 'I' for Inactive)
REMARK    1  A    between atoms: C_1  and  C_8
REMARK    2  A    between atoms: C_1  and  C_20
REMARK    3  A    between atoms: C_20  and  N_22
REMARK    4  A    between atoms: C_23  and  C_25
REMARK    5  A    between atoms: C_30  and  O_31
REMARK    6  A    between atoms: O_31  and  C_32
REMARK                            x       y       z     vdW  Elec       q    Type
REMARK                         _______ _______ _______ _____ _____    ______ ____
ROOT
ATOM      1  C   UNL     1      32.040 -23.615 -15.550  0.00  0.00    +0.066 C 
ATOM      2  C   UNL     1      31.573 -22.179 -15.211  0.00  0.00    +0.009 C 
ATOM      3  C   UNL     1      30.997 -24.575 -14.927  0.00  0.00    +0.009 C 
ENDROOT
BRANCH   1   8
ATOM      4  N   UNL     1      33.614 -23.778 -13.662  0.00  0.00    -0.347 NA
ATOM      5  N   UNL     1      34.990 -23.914 -11.805  0.00  0.00    -0.266 NA
ATOM      6  N   UNL     1      37.360 -24.279 -12.019  0.00  0.00    -0.316 NA
ATOM      7  N   UNL     1      36.369 -24.048  -9.910  0.00  0.00    -0.283 N 
ATOM      8  C   UNL     1      33.470 -23.811 -15.009  0.00  0.00    +0.122 C 
ATOM      9  C   UNL     1      34.508 -24.002 -15.895  0.00  0.00    +0.026 C 
ATOM     10  C   UNL     1      35.772 -24.172 -15.357  0.00  0.00    +0.001 C 
ATOM     11  C   UNL     1      34.834 -23.943 -13.134  0.00  0.00    +0.137 C 
ATOM     12  C   UNL     1      35.942 -24.142 -13.966  0.00  0.00    +0.199 C 
ATOM     13  C   UNL     1      37.181 -24.305 -13.350  0.00  0.00    +0.187 C 
ATOM     14  C   UNL     1      36.236 -24.083 -11.315  0.00  0.00    +0.207 C 
ATOM     15  H   UNL     1      35.576 -23.905  -9.345  0.00  0.00    +0.156 HD
ATOM     16  H   UNL     1      37.256 -24.165  -9.497  0.00  0.00    +0.156 HD
ATOM     17  N   UNL     1      38.333 -24.511 -14.149  0.00  0.00    -0.334 N 
ATOM     18  H   UNL     1      39.213 -24.627 -13.722  0.00  0.00    +0.144 HD
ATOM     19  H   UNL     1      38.254 -24.537 -15.130  0.00  0.00    +0.144 HD
ENDBRANCH   1   8
BRANCH   1  20
ATOM     20  C   UNL     1      32.005 -23.784 -17.095  0.00  0.00    +0.096 C 
BRANCH  20  22
ATOM     21  O   UNL     1      33.771 -24.108 -19.335  0.00  0.00    -0.270 OA
ATOM     22  N   UNL     1      32.686 -22.736 -17.811  0.00  0.00    -0.300 N 
ATOM     23  C   UNL     1      33.526 -22.991 -18.888  0.00  0.00    +0.246 C 
ATOM     24  H   UNL     1      32.551 -21.804 -17.526  0.00  0.00    +0.150 HD
BRANCH  23  25
ATOM     25  C   UNL     1      34.175 -21.804 -19.503  0.00  0.00    +0.054 C 
ATOM     26  C   UNL     1      33.394 -20.806 -20.085  0.00  0.00    +0.008 C 
ATOM     27  C   UNL     1      35.566 -21.689 -19.496  0.00  0.00    +0.008 C 
ATOM     28  C   UNL     1      34.005 -19.692 -20.663  0.00  0.00    +0.038 C 
ATOM     29  C   UNL     1      36.175 -20.575 -20.073  0.00  0.00    +0.038 C 
ATOM     30  C   UNL     1      35.395 -19.577 -20.657  0.00  0.00    +0.145 C 
BRANCH  30  31
ATOM     31  O   UNL     1      35.990 -18.492 -21.222  0.00  0.00    -0.453 OA
BRANCH  31  32
ATOM     32  C   UNL     1      35.437 -17.988 -22.388  0.00  0.00    +0.145 C 
ATOM     33  C   UNL     1      35.322 -18.804 -23.513  0.00  0.00    +0.037 C 
ATOM     34  C   UNL     1      34.998 -16.665 -22.437  0.00  0.00    +0.037 C 
ATOM     35  C   UNL     1      34.766 -18.298 -24.689  0.00  0.00    +0.003 C 
ATOM     36  C   UNL     1      34.442 -16.158 -23.613  0.00  0.00    +0.003 C 
ATOM     37  C   UNL     1      34.327 -16.974 -24.738  0.00  0.00    +0.000 C 
ENDBRANCH  31  32
ENDBRANCH  30  31
ENDBRANCH  23  25
ENDBRANCH  20  22
ENDBRANCH   1  20
TORSDOF 6
ENDMDL
