MODEL 1
REMARK VINA RESULT:     -10.7      0.000      0.000
REMARK  Name = 177336
REMARK  6 active torsions:
REMARK  status: ('A' for Active; 'I' for Inactive)
REMARK    1  A    between atoms: N_2  and  C_18
REMARK    2  A    between atoms: C_3  and  C_7
REMARK    3  A    between atoms: C_18  and  C_20
REMARK    4  A    between atoms: N_19  and  C_26
REMARK    5  A    between atoms: C_26  and  C_27
REMARK    6  A    between atoms: C_27  and  C_28
REMARK                            x       y       z     vdW  Elec       q    Type
REMARK                         _______ _______ _______ _____ _____    ______ ____
ROOT
ATOM      1  O   UNL     1      33.422 -23.265 -19.095  0.00  0.00    -0.270 OA
ATOM      2  N   UNL     1      35.303 -22.112 -18.425  0.00  0.00    -0.301 N 
ATOM      3  C   UNL     1      34.163 -22.888 -18.163  0.00  0.00    +0.250 C 
ATOM      4  H   UNL     1      35.864 -21.833 -17.665  0.00  0.00    +0.150 HD
ENDROOT
BRANCH   3   7
ATOM      5  O   UNL     1      36.174 -23.664 -16.010  0.00  0.00    -0.461 OA
ATOM      6  N   UNL     1      34.209 -23.730 -14.660  0.00  0.00    -0.299 N 
ATOM      7  C   UNL     1      33.889 -23.191 -16.786  0.00  0.00    +0.106 A 
ATOM      8  C   UNL     1      34.850 -23.545 -15.863  0.00  0.00    +0.210 A 
ATOM      9  C   UNL     1      34.905 -24.088 -13.437  0.00  0.00    +0.113 C 
ATOM     10  C   UNL     1      32.626 -23.193 -16.130  0.00  0.00    +0.025 A 
ATOM     11  C   UNL     1      32.852 -23.541 -14.795  0.00  0.00    +0.063 A 
ATOM     12  C   UNL     1      36.398 -23.826 -13.578  0.00  0.00    +0.072 C 
ATOM     13  C   UNL     1      36.867 -24.319 -14.941  0.00  0.00    +0.209 C 
ATOM     14  C   UNL     1      31.307 -22.931 -16.554  0.00  0.00    +0.002 C 
ATOM     15  C   UNL     1      31.807 -23.642 -13.865  0.00  0.00    +0.017 C 
ATOM     16  C   UNL     1      30.259 -23.028 -15.632  0.00  0.00    +0.000 C 
ATOM     17  C   UNL     1      30.508 -23.379 -14.307  0.00  0.00    +0.001 C 
ENDBRANCH   3   7
BRANCH   2  18
ATOM     18  C   UNL     1      35.696 -21.700 -19.754  0.00  0.00    +0.089 C 
BRANCH  18  20
ATOM     19  N   UNL     1      34.657 -18.109 -21.918  0.00  0.00    +0.387 N 
ATOM     20  C   UNL     1      35.317 -20.247 -20.023  0.00  0.00    +0.015 C 
ATOM     21  C   UNL     1      36.380 -19.550 -20.880  0.00  0.00    -0.021 C 
ATOM     22  C   UNL     1      33.952 -20.151 -20.713  0.00  0.00    -0.021 C 
ATOM     23  C   UNL     1      35.958 -18.123 -21.237  0.00  0.00    -0.077 C 
ATOM     24  C   UNL     1      33.611 -18.705 -21.076  0.00  0.00    -0.077 C 
ATOM     25  H   UNL     1      34.738 -18.673 -22.763  0.00  0.00    -0.080 HD
BRANCH  19  26
ATOM     26  C   UNL     1      34.293 -16.745 -22.298  0.00  0.00    -0.077 C 
BRANCH  26  27
ATOM     27  C   UNL     1      34.579 -15.780 -21.149  0.00  0.00    -0.023 C 
BRANCH  27  28
ATOM     28  C   UNL     1      33.297 -15.095 -20.670  0.00  0.00    -0.002 C 
ATOM     29  C   UNL     1      32.532 -14.473 -21.827  0.00  0.00    -0.000 C 
ENDBRANCH  27  28
ENDBRANCH  26  27
ENDBRANCH  19  26
ENDBRANCH  18  20
ENDBRANCH   2  18
TORSDOF 6
ENDMDL
MODEL 2
REMARK VINA RESULT:     -10.3      5.549     12.336
REMARK  Name = 177336
REMARK  6 active torsions:
REMARK  status: ('A' for Active; 'I' for Inactive)
REMARK    1  A    between atoms: N_2  and  C_18
REMARK    2  A    between atoms: C_3  and  C_7
REMARK    3  A    between atoms: C_18  and  C_20
REMARK    4  A    between atoms: N_19  and  C_26
REMARK    5  A    between atoms: C_26  and  C_27
REMARK    6  A    between atoms: C_27  and  C_28
REMARK                            x       y       z     vdW  Elec       q    Type
REMARK                         _______ _______ _______ _____ _____    ______ ____
ROOT
ATOM      1  O   UNL     1      33.800 -12.228 -25.541  0.00  0.00    -0.270 OA
ATOM      2  N   UNL     1      33.374 -13.501 -23.665  0.00  0.00    -0.301 N 
ATOM      3  C   UNL     1      33.477 -12.271 -24.335  0.00  0.00    +0.250 C 
ATOM      4  H   UNL     1      33.118 -13.496 -22.715  0.00  0.00    +0.150 HD
ENDROOT
BRANCH   3   7
ATOM      5  O   UNL     1      31.656 -12.014 -21.906  0.00  0.00    -0.461 OA
ATOM      6  N   UNL     1      32.418  -9.756 -21.983  0.00  0.00    -0.299 N 
ATOM      7  C   UNL     1      33.225 -11.090 -23.558  0.00  0.00    +0.106 A 
ATOM      8  C   UNL     1      32.378 -11.041 -22.472  0.00  0.00    +0.210 A 
ATOM      9  C   UNL     1      31.668  -9.328 -20.816  0.00  0.00    +0.113 C 
ATOM     10  C   UNL     1      33.769  -9.789 -23.752  0.00  0.00    +0.025 A 
ATOM     11  C   UNL     1      33.242  -8.966 -22.752  0.00  0.00    +0.063 A 
ATOM     12  C   UNL     1      31.198 -10.532 -20.013  0.00  0.00    +0.072 C 
ATOM     13  C   UNL     1      30.660 -11.592 -20.967  0.00  0.00    +0.209 C 
ATOM     14  C   UNL     1      34.663  -9.235 -24.691  0.00  0.00    +0.002 C 
ATOM     15  C   UNL     1      33.572  -7.606 -22.657  0.00  0.00    +0.017 C 
ATOM     16  C   UNL     1      34.999  -7.880 -24.602  0.00  0.00    +0.000 C 
ATOM     17  C   UNL     1      34.459  -7.079 -23.599  0.00  0.00    +0.001 C 
ENDBRANCH   3   7
BRANCH   2  18
ATOM     18  C   UNL     1      33.626 -14.775 -24.301  0.00  0.00    +0.089 C 
BRANCH  18  20
ATOM     19  N   UNL     1      35.098 -17.983 -21.811  0.00  0.00    +0.387 N 
ATOM     20  C   UNL     1      34.590 -15.628 -23.481  0.00  0.00    +0.015 C 
ATOM     21  C   UNL     1      34.144 -15.709 -22.016  0.00  0.00    -0.021 C 
ATOM     22  C   UNL     1      34.712 -17.039 -24.065  0.00  0.00    -0.021 C 
ATOM     23  C   UNL     1      35.050 -16.643 -21.211  0.00  0.00    -0.077 C 
ATOM     24  C   UNL     1      35.598 -17.928 -23.191  0.00  0.00    -0.077 C 
ATOM     25  H   UNL     1      34.148 -18.351 -21.836  0.00  0.00    -0.080 HD
BRANCH  19  26
ATOM     26  C   UNL     1      35.925 -18.877 -21.002  0.00  0.00    -0.077 C 
BRANCH  26  27
ATOM     27  C   UNL     1      35.228 -20.224 -20.819  0.00  0.00    -0.023 C 
BRANCH  27  28
ATOM     28  C   UNL     1      33.720 -20.044 -20.628  0.00  0.00    -0.002 C 
ATOM     29  C   UNL     1      33.150 -21.090 -19.683  0.00  0.00    -0.000 C 
ENDBRANCH  27  28
ENDBRANCH  26  27
ENDBRANCH  19  26
ENDBRANCH  18  20
ENDBRANCH   2  18
TORSDOF 6
ENDMDL
MODEL 3
REMARK VINA RESULT:     -10.3      6.181     12.473
REMARK  Name = 177336
REMARK  6 active torsions:
REMARK  status: ('A' for Active; 'I' for Inactive)
REMARK    1  A    between atoms: N_2  and  C_18
REMARK    2  A    between atoms: C_3  and  C_7
REMARK    3  A    between atoms: C_18  and  C_20
REMARK    4  A    between atoms: N_19  and  C_26
REMARK    5  A    between atoms: C_26  and  C_27
REMARK    6  A    between atoms: C_27  and  C_28
REMARK                            x       y       z     vdW  Elec       q    Type
REMARK                         _______ _______ _______ _____ _____    ______ ____
ROOT
ATOM      1  O   UNL     1      33.985 -11.721 -25.784  0.00  0.00    -0.270 OA
ATOM      2  N   UNL     1      33.270 -13.212 -24.176  0.00  0.00    -0.301 N 
ATOM      3  C   UNL     1      33.514 -11.910 -24.643  0.00  0.00    +0.250 C 
ATOM      4  H   UNL     1      32.898 -13.322 -23.272  0.00  0.00    +0.150 HD
ENDROOT
BRANCH   3   7
ATOM      5  O   UNL     1      31.802 -12.029 -22.126  0.00  0.00    -0.461 OA
ATOM      6  N   UNL     1      32.411  -9.727 -21.998  0.00  0.00    -0.299 N 
ATOM      7  C   UNL     1      33.224 -10.834 -23.737  0.00  0.00    +0.106 A 
ATOM      8  C   UNL     1      32.431 -10.955 -22.616  0.00  0.00    +0.210 A 
ATOM      9  C   UNL     1      31.694  -9.472 -20.762  0.00  0.00    +0.113 C 
ATOM     10  C   UNL     1      33.672  -9.485 -23.817  0.00  0.00    +0.025 A 
ATOM     11  C   UNL     1      33.143  -8.807 -22.715  0.00  0.00    +0.063 A 
ATOM     12  C   UNL     1      31.344 -10.782 -20.069  0.00  0.00    +0.072 C 
ATOM     13  C   UNL     1      30.830 -11.774 -21.106  0.00  0.00    +0.209 C 
ATOM     14  C   UNL     1      34.480  -8.779 -24.731  0.00  0.00    +0.002 C 
ATOM     15  C   UNL     1      33.388  -7.443 -22.492  0.00  0.00    +0.017 C 
ATOM     16  C   UNL     1      34.731  -7.419 -24.515  0.00  0.00    +0.000 C 
ATOM     17  C   UNL     1      34.191  -6.764 -23.412  0.00  0.00    +0.001 C 
ENDBRANCH   3   7
BRANCH   2  18
ATOM     18  C   UNL     1      33.537 -14.399 -24.957  0.00  0.00    +0.089 C 
BRANCH  18  20
ATOM     19  N   UNL     1      35.688 -17.379 -22.688  0.00  0.00    +0.387 N 
ATOM     20  C   UNL     1      33.800 -15.608 -24.064  0.00  0.00    +0.015 C 
ATOM     21  C   UNL     1      34.620 -16.671 -24.804  0.00  0.00    -0.021 C 
ATOM     22  C   UNL     1      34.526 -15.197 -22.779  0.00  0.00    -0.021 C 
ATOM     23  C   UNL     1      34.972 -17.842 -23.883  0.00  0.00    -0.077 C 
ATOM     24  C   UNL     1      34.882 -16.416 -21.926  0.00  0.00    -0.077 C 
ATOM     25  H   UNL     1      36.537 -16.904 -22.993  0.00  0.00    -0.080 HD
BRANCH  19  26
ATOM     26  C   UNL     1      36.063 -18.513 -21.844  0.00  0.00    -0.077 C 
BRANCH  26  27
ATOM     27  C   UNL     1      35.018 -19.622 -21.953  0.00  0.00    -0.023 C 
BRANCH  27  28
ATOM     28  C   UNL     1      34.442 -19.976 -20.580  0.00  0.00    -0.002 C 
ATOM     29  C   UNL     1      32.927 -20.093 -20.625  0.00  0.00    -0.000 C 
ENDBRANCH  27  28
ENDBRANCH  26  27
ENDBRANCH  19  26
ENDBRANCH  18  20
ENDBRANCH   2  18
TORSDOF 6
ENDMDL
MODEL 4
REMARK VINA RESULT:     -10.0      6.726     10.315
REMARK  Name = 177336
REMARK  6 active torsions:
REMARK  status: ('A' for Active; 'I' for Inactive)
REMARK    1  A    between atoms: N_2  and  C_18
REMARK    2  A    between atoms: C_3  and  C_7
REMARK    3  A    between atoms: C_18  and  C_20
REMARK    4  A    between atoms: N_19  and  C_26
REMARK    5  A    between atoms: C_26  and  C_27
REMARK    6  A    between atoms: C_27  and  C_28
REMARK                            x       y       z     vdW  Elec       q    Type
REMARK                         _______ _______ _______ _____ _____    ______ ____
ROOT
ATOM      1  O   UNL     1      34.739 -14.365 -20.260  0.00  0.00    -0.270 OA
ATOM      2  N   UNL     1      32.599 -13.904 -20.985  0.00  0.00    -0.301 N 
ATOM      3  C   UNL     1      33.842 -14.547 -21.109  0.00  0.00    +0.250 C 
ATOM      4  H   UNL     1      31.916 -14.071 -21.674  0.00  0.00    +0.150 HD
ENDROOT
BRANCH   3   7
ATOM      5  O   UNL     1      35.030 -17.352 -21.183  0.00  0.00    -0.461 OA
ATOM      6  N   UNL     1      34.562 -17.133 -23.511  0.00  0.00    -0.299 N 
ATOM      7  C   UNL     1      34.024 -15.383 -22.262  0.00  0.00    +0.106 A 
ATOM      8  C   UNL     1      34.579 -16.645 -22.225  0.00  0.00    +0.210 A 
ATOM      9  C   UNL     1      35.046 -18.456 -23.864  0.00  0.00    +0.113 C 
ATOM     10  C   UNL     1      33.691 -15.087 -23.613  0.00  0.00    +0.025 A 
ATOM     11  C   UNL     1      34.044 -16.200 -24.382  0.00  0.00    +0.063 A 
ATOM     12  C   UNL     1      35.169 -19.327 -22.622  0.00  0.00    +0.072 C 
ATOM     13  C   UNL     1      35.804 -18.513 -21.501  0.00  0.00    +0.209 C 
ATOM     14  C   UNL     1      33.121 -13.968 -24.254  0.00  0.00    +0.002 C 
ATOM     15  C   UNL     1      33.853 -16.237 -25.771  0.00  0.00    +0.017 C 
ATOM     16  C   UNL     1      32.925 -13.997 -25.639  0.00  0.00    +0.000 C 
ATOM     17  C   UNL     1      33.287 -15.116 -26.384  0.00  0.00    +0.001 C 
ENDBRANCH   3   7
BRANCH   2  18
ATOM     18  C   UNL     1      32.273 -13.009 -19.898  0.00  0.00    +0.089 C 
BRANCH  18  20
ATOM     19  N   UNL     1      32.055  -9.073 -21.665  0.00  0.00    +0.387 N 
ATOM     20  C   UNL     1      31.685 -11.697 -20.411  0.00  0.00    +0.015 C 
ATOM     21  C   UNL     1      32.268 -10.499 -19.654  0.00  0.00    -0.021 C 
ATOM     22  C   UNL     1      31.935 -11.532 -21.914  0.00  0.00    -0.021 C 
ATOM     23  C   UNL     1      31.759  -9.176 -20.230  0.00  0.00    -0.077 C 
ATOM     24  C   UNL     1      31.436 -10.175 -22.415  0.00  0.00    -0.077 C 
ATOM     25  H   UNL     1      33.065  -9.142 -21.783  0.00  0.00    -0.080 HD
BRANCH  19  26
ATOM     26  C   UNL     1      31.608  -7.783 -22.189  0.00  0.00    -0.077 C 
BRANCH  26  27
ATOM     27  C   UNL     1      32.807  -6.869 -22.440  0.00  0.00    -0.023 C 
BRANCH  27  28
ATOM     28  C   UNL     1      34.041  -7.676 -22.850  0.00  0.00    -0.002 C 
ATOM     29  C   UNL     1      34.627  -7.171 -24.158  0.00  0.00    -0.000 C 
ENDBRANCH  27  28
ENDBRANCH  26  27
ENDBRANCH  19  26
ENDBRANCH  18  20
ENDBRANCH   2  18
TORSDOF 6
ENDMDL
MODEL 5
REMARK VINA RESULT:     -10.0      1.104      3.170
REMARK  Name = 177336
REMARK  6 active torsions:
REMARK  status: ('A' for Active; 'I' for Inactive)
REMARK    1  A    between atoms: N_2  and  C_18
REMARK    2  A    between atoms: C_3  and  C_7
REMARK    3  A    between atoms: C_18  and  C_20
REMARK    4  A    between atoms: N_19  and  C_26
REMARK    5  A    between atoms: C_26  and  C_27
REMARK    6  A    between atoms: C_27  and  C_28
REMARK                            x       y       z     vdW  Elec       q    Type
REMARK                         _______ _______ _______ _____ _____    ______ ____
ROOT
ATOM      1  O   UNL     1      36.232 -22.412 -17.345  0.00  0.00    -0.270 OA
ATOM      2  N   UNL     1      34.187 -22.787 -18.343  0.00  0.00    -0.301 N 
ATOM      3  C   UNL     1      35.041 -22.768 -17.227  0.00  0.00    +0.250 C 
ATOM      4  H   UNL     1      33.254 -23.073 -18.212  0.00  0.00    +0.150 HD
ENDROOT
BRANCH   3   7
ATOM      5  O   UNL     1      32.095 -23.190 -16.572  0.00  0.00    -0.461 OA
ATOM      6  N   UNL     1      32.994 -23.810 -14.452  0.00  0.00    -0.299 N 
ATOM      7  C   UNL     1      34.482 -23.202 -15.978  0.00  0.00    +0.106 A 
ATOM      8  C   UNL     1      33.133 -23.364 -15.746  0.00  0.00    +0.210 A 
ATOM      9  C   UNL     1      31.708 -24.120 -13.853  0.00  0.00    +0.113 C 
ATOM     10  C   UNL     1      35.178 -23.528 -14.780  0.00  0.00    +0.025 A 
ATOM     11  C   UNL     1      34.220 -23.903 -13.833  0.00  0.00    +0.063 A 
ATOM     12  C   UNL     1      30.643 -24.279 -14.929  0.00  0.00    +0.072 C 
ATOM     13  C   UNL     1      30.802 -23.166 -15.958  0.00  0.00    +0.209 C 
ATOM     14  C   UNL     1      36.540 -23.537 -14.415  0.00  0.00    +0.002 C 
ATOM     15  C   UNL     1      34.572 -24.283 -12.529  0.00  0.00    +0.017 C 
ATOM     16  C   UNL     1      36.899 -23.918 -13.118  0.00  0.00    +0.000 C 
ATOM     17  C   UNL     1      35.927 -24.284 -12.190  0.00  0.00    +0.001 C 
ENDBRANCH   3   7
BRANCH   2  18
ATOM     18  C   UNL     1      34.608 -22.408 -19.672  0.00  0.00    +0.089 C 
BRANCH  18  20
ATOM     19  N   UNL     1      34.380 -18.587 -21.674  0.00  0.00    +0.387 N 
ATOM     20  C   UNL     1      34.524 -20.898 -19.875  0.00  0.00    +0.015 C 
ATOM     21  C   UNL     1      35.744 -20.377 -20.646  0.00  0.00    -0.021 C 
ATOM     22  C   UNL     1      33.240 -20.511 -20.616  0.00  0.00    -0.021 C 
ATOM     23  C   UNL     1      35.618 -18.881 -20.940  0.00  0.00    -0.077 C 
ATOM     24  C   UNL     1      33.198 -19.011 -20.912  0.00  0.00    -0.077 C 
ATOM     25  H   UNL     1      34.397 -19.116 -22.545  0.00  0.00    -0.080 HD
BRANCH  19  26
ATOM     26  C   UNL     1      34.299 -17.162 -21.992  0.00  0.00    -0.077 C 
BRANCH  26  27
ATOM     27  C   UNL     1      34.856 -16.329 -20.839  0.00  0.00    -0.023 C 
BRANCH  27  28
ATOM     28  C   UNL     1      34.217 -14.939 -20.802  0.00  0.00    -0.002 C 
ATOM     29  C   UNL     1      32.710 -15.024 -20.623  0.00  0.00    -0.000 C 
ENDBRANCH  27  28
ENDBRANCH  26  27
ENDBRANCH  19  26
ENDBRANCH  18  20
ENDBRANCH   2  18
TORSDOF 6
ENDMDL
MODEL 6
REMARK VINA RESULT:      -9.9      6.973     10.581
REMARK  Name = 177336
REMARK  6 active torsions:
REMARK  status: ('A' for Active; 'I' for Inactive)
REMARK    1  A    between atoms: N_2  and  C_18
REMARK    2  A    between atoms: C_3  and  C_7
REMARK    3  A    between atoms: C_18  and  C_20
REMARK    4  A    between atoms: N_19  and  C_26
REMARK    5  A    between atoms: C_26  and  C_27
REMARK    6  A    between atoms: C_27  and  C_28
REMARK                            x       y       z     vdW  Elec       q    Type
REMARK                         _______ _______ _______ _____ _____    ______ ____
ROOT
ATOM      1  O   UNL     1      34.648 -14.549 -20.296  0.00  0.00    -0.270 OA
ATOM      2  N   UNL     1      32.565 -13.936 -21.071  0.00  0.00    -0.301 N 
ATOM      3  C   UNL     1      33.767 -14.655 -21.174  0.00  0.00    +0.250 C 
ATOM      4  H   UNL     1      31.893 -14.044 -21.783  0.00  0.00    +0.150 HD
ENDROOT
BRANCH   3   7
ATOM      5  O   UNL     1      33.107 -13.919 -24.056  0.00  0.00    -0.461 OA
ATOM      6  N   UNL     1      33.923 -16.123 -24.460  0.00  0.00    -0.299 N 
ATOM      7  C   UNL     1      33.931 -15.476 -22.341  0.00  0.00    +0.106 A 
ATOM      8  C   UNL     1      33.602 -15.082 -23.620  0.00  0.00    +0.210 A 
ATOM      9  C   UNL     1      33.741 -16.065 -25.899  0.00  0.00    +0.113 C 
ATOM     10  C   UNL     1      34.436 -16.805 -22.404  0.00  0.00    +0.025 A 
ATOM     11  C   UNL     1      34.416 -17.193 -23.748  0.00  0.00    +0.063 A 
ATOM     12  C   UNL     1      33.557 -14.625 -26.356  0.00  0.00    +0.072 C 
ATOM     13  C   UNL     1      32.609 -13.913 -25.399  0.00  0.00    +0.209 C 
ATOM     14  C   UNL     1      34.908 -17.717 -21.438  0.00  0.00    +0.002 C 
ATOM     15  C   UNL     1      34.847 -18.462 -24.163  0.00  0.00    +0.017 C 
ATOM     16  C   UNL     1      35.341 -18.984 -21.844  0.00  0.00    +0.000 C 
ATOM     17  C   UNL     1      35.309 -19.348 -23.187  0.00  0.00    +0.001 C 
ENDBRANCH   3   7
BRANCH   2  18
ATOM     18  C   UNL     1      32.264 -13.045 -19.973  0.00  0.00    +0.089 C 
BRANCH  18  20
ATOM     19  N   UNL     1      32.073  -9.085 -21.688  0.00  0.00    +0.387 N 
ATOM     20  C   UNL     1      31.685 -11.723 -20.469  0.00  0.00    +0.015 C 
ATOM     21  C   UNL     1      32.277 -10.538 -19.696  0.00  0.00    -0.021 C 
ATOM     22  C   UNL     1      31.935 -11.540 -21.970  0.00  0.00    -0.021 C 
ATOM     23  C   UNL     1      31.776  -9.205 -20.255  0.00  0.00    -0.077 C 
ATOM     24  C   UNL     1      31.446 -10.173 -22.452  0.00  0.00    -0.077 C 
ATOM     25  H   UNL     1      33.083  -9.160 -21.808  0.00  0.00    -0.080 HD
BRANCH  19  26
ATOM     26  C   UNL     1      31.635  -7.786 -22.196  0.00  0.00    -0.077 C 
BRANCH  26  27
ATOM     27  C   UNL     1      32.833  -6.853 -22.369  0.00  0.00    -0.023 C 
BRANCH  27  28
ATOM     28  C   UNL     1      34.058  -7.616 -22.879  0.00  0.00    -0.002 C 
ATOM     29  C   UNL     1      34.493  -7.119 -24.248  0.00  0.00    -0.000 C 
ENDBRANCH  27  28
ENDBRANCH  26  27
ENDBRANCH  19  26
ENDBRANCH  18  20
ENDBRANCH   2  18
TORSDOF 6
ENDMDL
MODEL 7
REMARK VINA RESULT:      -9.9      6.346     12.334
REMARK  Name = 177336
REMARK  6 active torsions:
REMARK  status: ('A' for Active; 'I' for Inactive)
REMARK    1  A    between atoms: N_2  and  C_18
REMARK    2  A    between atoms: C_3  and  C_7
REMARK    3  A    between atoms: C_18  and  C_20
REMARK    4  A    between atoms: N_19  and  C_26
REMARK    5  A    between atoms: C_26  and  C_27
REMARK    6  A    between atoms: C_27  and  C_28
REMARK                            x       y       z     vdW  Elec       q    Type
REMARK                         _______ _______ _______ _____ _____    ______ ____
ROOT
ATOM      1  O   UNL     1      34.120 -11.459 -25.587  0.00  0.00    -0.270 OA
ATOM      2  N   UNL     1      33.268 -13.087 -24.193  0.00  0.00    -0.301 N 
ATOM      3  C   UNL     1      33.552 -11.749 -24.514  0.00  0.00    +0.250 C 
ATOM      4  H   UNL     1      32.819 -13.278 -23.338  0.00  0.00    +0.150 HD
ENDROOT
BRANCH   3   7
ATOM      5  O   UNL     1      34.202  -8.773 -24.572  0.00  0.00    -0.461 OA
ATOM      6  N   UNL     1      32.972  -8.799 -22.529  0.00  0.00    -0.299 N 
ATOM      7  C   UNL     1      33.183 -10.759 -23.540  0.00  0.00    +0.106 A 
ATOM      8  C   UNL     1      33.520  -9.425 -23.624  0.00  0.00    +0.210 A 
ATOM      9  C   UNL     1      33.094  -7.372 -22.287  0.00  0.00    +0.113 C 
ATOM     10  C   UNL     1      32.438 -10.951 -22.343  0.00  0.00    +0.025 A 
ATOM     11  C   UNL     1      32.323  -9.705 -21.721  0.00  0.00    +0.063 A 
ATOM     12  C   UNL     1      33.522  -6.651 -23.558  0.00  0.00    +0.072 C 
ATOM     13  C   UNL     1      34.630  -7.448 -24.237  0.00  0.00    +0.209 C 
ATOM     14  C   UNL     1      31.850 -12.077 -21.731  0.00  0.00    +0.002 C 
ATOM     15  C   UNL     1      31.644  -9.540 -20.505  0.00  0.00    +0.017 C 
ATOM     16  C   UNL     1      31.170 -11.921 -20.518  0.00  0.00    +0.000 C 
ATOM     17  C   UNL     1      31.071 -10.670 -19.916  0.00  0.00    +0.001 C 
ENDBRANCH   3   7
BRANCH   2  18
ATOM     18  C   UNL     1      33.603 -14.198 -25.055  0.00  0.00    +0.089 C 
BRANCH  18  20
ATOM     19  N   UNL     1      35.605 -17.422 -22.992  0.00  0.00    +0.387 N 
ATOM     20  C   UNL     1      33.807 -15.482 -24.257  0.00  0.00    +0.015 C 
ATOM     21  C   UNL     1      34.605 -16.512 -25.065  0.00  0.00    -0.021 C 
ATOM     22  C   UNL     1      34.519 -15.200 -22.930  0.00  0.00    -0.021 C 
ATOM     23  C   UNL     1      34.899 -17.764 -24.234  0.00  0.00    -0.077 C 
ATOM     24  C   UNL     1      34.815 -16.495 -22.171  0.00  0.00    -0.077 C 
ATOM     25  H   UNL     1      36.476 -16.955 -23.244  0.00  0.00    -0.080 HD
BRANCH  19  26
ATOM     26  C   UNL     1      35.924 -18.632 -22.236  0.00  0.00    -0.077 C 
BRANCH  26  27
ATOM     27  C   UNL     1      34.670 -19.484 -22.046  0.00  0.00    -0.023 C 
BRANCH  27  28
ATOM     28  C   UNL     1      34.598 -20.053 -20.627  0.00  0.00    -0.002 C 
ATOM     29  C   UNL     1      33.173 -20.422 -20.247  0.00  0.00    -0.000 C 
ENDBRANCH  27  28
ENDBRANCH  26  27
ENDBRANCH  19  26
ENDBRANCH  18  20
ENDBRANCH   2  18
TORSDOF 6
ENDMDL
MODEL 8
REMARK VINA RESULT:      -9.5      7.599     11.036
REMARK  Name = 177336
REMARK  6 active torsions:
REMARK  status: ('A' for Active; 'I' for Inactive)
REMARK    1  A    between atoms: N_2  and  C_18
REMARK    2  A    between atoms: C_3  and  C_7
REMARK    3  A    between atoms: C_18  and  C_20
REMARK    4  A    between atoms: N_19  and  C_26
REMARK    5  A    between atoms: C_26  and  C_27
REMARK    6  A    between atoms: C_27  and  C_28
REMARK                            x       y       z     vdW  Elec       q    Type
REMARK                         _______ _______ _______ _____ _____    ______ ____
ROOT
ATOM      1  O   UNL     1      33.232 -13.433 -25.913  0.00  0.00    -0.270 OA
ATOM      2  N   UNL     1      34.321 -12.127 -24.355  0.00  0.00    -0.301 N 
ATOM      3  C   UNL     1      33.723 -13.329 -24.769  0.00  0.00    +0.250 C 
ATOM      4  H   UNL     1      34.698 -12.082 -23.446  0.00  0.00    +0.150 HD
ENDROOT
BRANCH   3   7
ATOM      5  O   UNL     1      34.682 -16.194 -25.158  0.00  0.00    -0.461 OA
ATOM      6  N   UNL     1      33.951 -16.398 -22.898  0.00  0.00    -0.299 N 
ATOM      7  C   UNL     1      33.685 -14.396 -23.810  0.00  0.00    +0.106 A 
ATOM      8  C   UNL     1      34.129 -15.678 -24.056  0.00  0.00    +0.210 A 
ATOM      9  C   UNL     1      34.331 -17.793 -22.765  0.00  0.00    +0.113 C 
ATOM     10  C   UNL     1      33.194 -14.348 -22.475  0.00  0.00    +0.025 A 
ATOM     11  C   UNL     1      33.367 -15.621 -21.923  0.00  0.00    +0.063 A 
ATOM     12  C   UNL     1      35.284 -18.195 -23.883  0.00  0.00    +0.072 C 
ATOM     13  C   UNL     1      34.779 -17.623 -25.201  0.00  0.00    +0.209 C 
ATOM     14  C   UNL     1      32.616 -13.334 -21.684  0.00  0.00    +0.002 C 
ATOM     15  C   UNL     1      32.979 -15.922 -20.609  0.00  0.00    +0.017 C 
ATOM     16  C   UNL     1      32.227 -13.626 -20.372  0.00  0.00    +0.000 C 
ATOM     17  C   UNL     1      32.407 -14.902 -19.845  0.00  0.00    +0.001 C 
ENDBRANCH   3   7
BRANCH   2  18
ATOM     18  C   UNL     1      34.411 -10.954 -25.194  0.00  0.00    +0.089 C 
BRANCH  18  20
ATOM     19  N   UNL     1      33.260  -8.078 -22.184  0.00  0.00    +0.387 N 
ATOM     20  C   UNL     1      33.735  -9.750 -24.545  0.00  0.00    +0.015 C 
ATOM     21  C   UNL     1      32.814 -10.186 -23.399  0.00  0.00    -0.021 C 
ATOM     22  C   UNL     1      34.772  -8.749 -24.023  0.00  0.00    -0.021 C 
ATOM     23  C   UNL     1      32.210  -8.978 -22.680  0.00  0.00    -0.077 C 
ATOM     24  C   UNL     1      34.103  -7.590 -23.283  0.00  0.00    -0.077 C 
ATOM     25  H   UNL     1      33.852  -8.607 -21.545  0.00  0.00    -0.080 HD
BRANCH  19  26
ATOM     26  C   UNL     1      32.669  -6.956 -21.455  0.00  0.00    -0.077 C 
BRANCH  26  27
ATOM     27  C   UNL     1      31.331  -6.564 -22.079  0.00  0.00    -0.023 C 
BRANCH  27  28
ATOM     28  C   UNL     1      31.400  -5.168 -22.702  0.00  0.00    -0.002 C 
ATOM     29  C   UNL     1      31.239  -5.224 -24.213  0.00  0.00    -0.000 C 
ENDBRANCH  27  28
ENDBRANCH  26  27
ENDBRANCH  19  26
ENDBRANCH  18  20
ENDBRANCH   2  18
TORSDOF 6
ENDMDL
MODEL 9
REMARK VINA RESULT:      -9.5      1.900      2.481
REMARK  Name = 177336
REMARK  6 active torsions:
REMARK  status: ('A' for Active; 'I' for Inactive)
REMARK    1  A    between atoms: N_2  and  C_18
REMARK    2  A    between atoms: C_3  and  C_7
REMARK    3  A    between atoms: C_18  and  C_20
REMARK    4  A    between atoms: N_19  and  C_26
REMARK    5  A    between atoms: C_26  and  C_27
REMARK    6  A    between atoms: C_27  and  C_28
REMARK                            x       y       z     vdW  Elec       q    Type
REMARK                         _______ _______ _______ _____ _____    ______ ____
ROOT
ATOM      1  O   UNL     1      37.997 -22.328 -16.054  0.00  0.00    -0.270 OA
ATOM      2  N   UNL     1      36.176 -22.192 -17.463  0.00  0.00    -0.301 N 
ATOM      3  C   UNL     1      36.772 -22.493 -16.227  0.00  0.00    +0.250 C 
ATOM      4  H   UNL     1      35.208 -22.335 -17.562  0.00  0.00    +0.150 HD
ENDROOT
BRANCH   3   7
ATOM      5  O   UNL     1      37.548 -23.301 -13.393  0.00  0.00    -0.461 OA
ATOM      6  N   UNL     1      35.223 -23.810 -13.252  0.00  0.00    -0.299 N 
ATOM      7  C   UNL     1      35.910 -23.021 -15.206  0.00  0.00    +0.106 A 
ATOM      8  C   UNL     1      36.331 -23.375 -13.942  0.00  0.00    +0.210 A 
ATOM      9  C   UNL     1      35.270 -24.245 -11.868  0.00  0.00    +0.113 C 
ATOM     10  C   UNL     1      34.514 -23.278 -15.294  0.00  0.00    +0.025 A 
ATOM     11  C   UNL     1      34.105 -23.780 -14.055  0.00  0.00    +0.063 A 
ATOM     12  C   UNL     1      36.558 -23.777 -11.206  0.00  0.00    +0.072 C 
ATOM     13  C   UNL     1      37.724 -24.006 -12.159  0.00  0.00    +0.209 C 
ATOM     14  C   UNL     1      33.558 -23.131 -16.320  0.00  0.00    +0.002 C 
ATOM     15  C   UNL     1      32.774 -24.145 -13.802  0.00  0.00    +0.017 C 
ATOM     16  C   UNL     1      32.228 -23.491 -16.075  0.00  0.00    +0.000 C 
ATOM     17  C   UNL     1      31.845 -23.991 -14.834  0.00  0.00    +0.001 C 
ENDBRANCH   3   7
BRANCH   2  18
ATOM     18  C   UNL     1      36.915 -21.683 -18.596  0.00  0.00    +0.089 C 
BRANCH  18  20
ATOM     19  N   UNL     1      34.984 -19.551 -21.819  0.00  0.00    +0.387 N 
ATOM     20  C   UNL     1      36.130 -20.601 -19.333  0.00  0.00    +0.015 C 
ATOM     21  C   UNL     1      36.987 -19.943 -20.421  0.00  0.00    -0.021 C 
ATOM     22  C   UNL     1      34.853 -21.173 -19.956  0.00  0.00    -0.021 C 
ATOM     23  C   UNL     1      36.176 -18.928 -21.230  0.00  0.00    -0.077 C 
ATOM     24  C   UNL     1      34.113 -20.118 -20.780  0.00  0.00    -0.077 C 
ATOM     25  H   UNL     1      35.292 -20.314 -22.421  0.00  0.00    -0.080 HD
BRANCH  19  26
ATOM     26  C   UNL     1      34.248 -18.581 -22.630  0.00  0.00    -0.077 C 
BRANCH  26  27
ATOM     27  C   UNL     1      34.937 -18.388 -23.980  0.00  0.00    -0.023 C 
BRANCH  27  28
ATOM     28  C   UNL     1      34.688 -16.983 -24.532  0.00  0.00    -0.002 C 
ATOM     29  C   UNL     1      34.942 -15.918 -23.477  0.00  0.00    -0.000 C 
ENDBRANCH  27  28
ENDBRANCH  26  27
ENDBRANCH  19  26
ENDBRANCH  18  20
ENDBRANCH   2  18
TORSDOF 6
ENDMDL
