MODEL 1
REMARK VINA RESULT:      -6.9      0.000      0.000
REMARK  Name = 7697
REMARK  6 active torsions:
REMARK  status: ('A' for Active; 'I' for Inactive)
REMARK    1  A    between atoms: O_1  and  C_3
REMARK    2  A    between atoms: O_1  and  C_9
REMARK    3  A    between atoms: C_9  and  C_10
REMARK    4  A    between atoms: C_10  and  O_11
REMARK    5  A    between atoms: C_10  and  C_13
REMARK    6  A    between atoms: C_13  and  O_14
REMARK                            x       y       z     vdW  Elec       q    Type
REMARK                         _______ _______ _______ _____ _____    ______ ____
ROOT
ATOM      1  O   UNL     1      35.623 -18.883 -21.710  0.00  0.00    -0.473 OA
ENDROOT
BRANCH   1   3
ATOM      2 CL   UNL     1      33.392 -22.970 -18.133  0.00  0.00    -0.082 Cl
ATOM      3  C   UNL     1      35.103 -19.836 -20.876  0.00  0.00    +0.139 C 
ATOM      4  C   UNL     1      35.957 -20.696 -20.193  0.00  0.00    +0.038 C 
ATOM      5  C   UNL     1      33.724 -19.936 -20.718  0.00  0.00    +0.038 C 
ATOM      6  C   UNL     1      35.427 -21.667 -19.343  0.00  0.00    +0.015 C 
ATOM      7  C   UNL     1      33.194 -20.907 -19.868  0.00  0.00    +0.015 C 
ATOM      8  C   UNL     1      34.045 -21.772 -19.181  0.00  0.00    +0.058 C 
ENDBRANCH   1   3
BRANCH   1   9
ATOM      9  C   UNL     1      34.696 -18.163 -22.517  0.00  0.00    +0.237 C 
BRANCH   9  10
ATOM     10  C   UNL     1      35.392 -17.654 -23.774  0.00  0.00    +0.183 C 
BRANCH  10  11
ATOM     11  O   UNL     1      35.715 -16.273 -23.592  0.00  0.00    -0.378 OA
ATOM     12  H   UNL     1      36.548 -16.073 -24.047  0.00  0.00    +0.211 HD
ENDBRANCH  10  11
BRANCH  10  13
ATOM     13  C   UNL     1      34.489 -17.768 -24.995  0.00  0.00    +0.170 C 
BRANCH  13  14
ATOM     14  O   UNL     1      34.757 -16.678 -25.872  0.00  0.00    -0.379 OA
ATOM     15  H   UNL     1      34.091 -15.986 -25.741  0.00  0.00    +0.211 HD
ENDBRANCH  13  14
ENDBRANCH  10  13
ENDBRANCH   9  10
ENDBRANCH   1   9
TORSDOF 6
ENDMDL
MODEL 2
REMARK VINA RESULT:      -6.8      0.082      1.342
REMARK  Name = 7697
REMARK  6 active torsions:
REMARK  status: ('A' for Active; 'I' for Inactive)
REMARK    1  A    between atoms: O_1  and  C_3
REMARK    2  A    between atoms: O_1  and  C_9
REMARK    3  A    between atoms: C_9  and  C_10
REMARK    4  A    between atoms: C_10  and  O_11
REMARK    5  A    between atoms: C_10  and  C_13
REMARK    6  A    between atoms: C_13  and  O_14
REMARK                            x       y       z     vdW  Elec       q    Type
REMARK                         _______ _______ _______ _____ _____    ______ ____
ROOT
ATOM      1  O   UNL     1      35.627 -18.985 -21.772  0.00  0.00    -0.473 OA
ENDROOT
BRANCH   1   3
ATOM      2 CL   UNL     1      33.362 -22.953 -18.084  0.00  0.00    -0.082 Cl
ATOM      3  C   UNL     1      35.098 -19.911 -20.912  0.00  0.00    +0.139 C 
ATOM      4  C   UNL     1      33.724 -19.953 -20.703  0.00  0.00    +0.038 C 
ATOM      5  C   UNL     1      35.941 -20.802 -20.255  0.00  0.00    +0.038 C 
ATOM      6  C   UNL     1      33.185 -20.896 -19.827  0.00  0.00    +0.015 C 
ATOM      7  C   UNL     1      35.403 -21.744 -19.379  0.00  0.00    +0.015 C 
ATOM      8  C   UNL     1      34.026 -21.791 -19.165  0.00  0.00    +0.058 C 
ENDBRANCH   1   3
BRANCH   1   9
ATOM      9  C   UNL     1      34.704 -18.267 -22.585  0.00  0.00    +0.237 C 
BRANCH   9  10
ATOM     10  C   UNL     1      35.418 -17.713 -23.812  0.00  0.00    +0.183 C 
BRANCH  10  11
ATOM     11  O   UNL     1      35.720 -16.334 -23.584  0.00  0.00    -0.378 OA
ATOM     12  H   UNL     1      36.024 -16.217 -22.670  0.00  0.00    +0.211 HD
ENDBRANCH  10  11
BRANCH  10  13
ATOM     13  C   UNL     1      34.540 -17.802 -25.054  0.00  0.00    +0.170 C 
BRANCH  13  14
ATOM     14  O   UNL     1      34.728 -16.629 -25.838  0.00  0.00    -0.379 OA
ATOM     15  H   UNL     1      34.163 -16.671 -26.624  0.00  0.00    +0.211 HD
ENDBRANCH  13  14
ENDBRANCH  10  13
ENDBRANCH   9  10
ENDBRANCH   1   9
TORSDOF 6
ENDMDL
MODEL 3
REMARK VINA RESULT:      -6.8      1.504      2.525
REMARK  Name = 7697
REMARK  6 active torsions:
REMARK  status: ('A' for Active; 'I' for Inactive)
REMARK    1  A    between atoms: O_1  and  C_3
REMARK    2  A    between atoms: O_1  and  C_9
REMARK    3  A    between atoms: C_9  and  C_10
REMARK    4  A    between atoms: C_10  and  O_11
REMARK    5  A    between atoms: C_10  and  C_13
REMARK    6  A    between atoms: C_13  and  O_14
REMARK                            x       y       z     vdW  Elec       q    Type
REMARK                         _______ _______ _______ _____ _____    ______ ____
ROOT
ATOM      1  O   UNL     1      35.142 -18.784 -21.882  0.00  0.00    -0.473 OA
ENDROOT
BRANCH   1   3
ATOM      2 CL   UNL     1      33.456 -22.970 -18.124  0.00  0.00    -0.082 Cl
ATOM      3  C   UNL     1      34.749 -19.761 -21.005  0.00  0.00    +0.139 C 
ATOM      4  C   UNL     1      33.399 -19.921 -20.712  0.00  0.00    +0.038 C 
ATOM      5  C   UNL     1      35.703 -20.584 -20.417  0.00  0.00    +0.038 C 
ATOM      6  C   UNL     1      32.998 -20.915 -19.820  0.00  0.00    +0.015 C 
ATOM      7  C   UNL     1      35.302 -21.578 -19.524  0.00  0.00    +0.015 C 
ATOM      8  C   UNL     1      33.951 -21.743 -19.225  0.00  0.00    +0.058 C 
ENDBRANCH   1   3
BRANCH   1   9
ATOM      9  C   UNL     1      35.322 -17.477 -21.345  0.00  0.00    +0.237 C 
BRANCH   9  10
ATOM     10  C   UNL     1      34.737 -16.442 -22.299  0.00  0.00    +0.183 C 
BRANCH  10  11
ATOM     11  O   UNL     1      35.666 -16.223 -23.364  0.00  0.00    -0.378 OA
ATOM     12  H   UNL     1      35.810 -17.054 -23.843  0.00  0.00    +0.211 HD
ENDBRANCH  10  11
BRANCH  10  13
ATOM     13  C   UNL     1      34.503 -15.110 -21.599  0.00  0.00    +0.170 C 
BRANCH  13  14
ATOM     14  O   UNL     1      34.853 -15.242 -20.225  0.00  0.00    -0.379 OA
ATOM     15  H   UNL     1      35.277 -14.426 -19.919  0.00  0.00    +0.211 HD
ENDBRANCH  13  14
ENDBRANCH  10  13
ENDBRANCH   9  10
ENDBRANCH   1   9
TORSDOF 6
ENDMDL
MODEL 4
REMARK VINA RESULT:      -6.7      4.468      6.774
REMARK  Name = 7697
REMARK  6 active torsions:
REMARK  status: ('A' for Active; 'I' for Inactive)
REMARK    1  A    between atoms: O_1  and  C_3
REMARK    2  A    between atoms: O_1  and  C_9
REMARK    3  A    between atoms: C_9  and  C_10
REMARK    4  A    between atoms: C_10  and  O_11
REMARK    5  A    between atoms: C_10  and  C_13
REMARK    6  A    between atoms: C_13  and  O_14
REMARK                            x       y       z     vdW  Elec       q    Type
REMARK                         _______ _______ _______ _____ _____    ______ ____
ROOT
ATOM      1  O   UNL     1      32.809 -22.273 -18.798  0.00  0.00    -0.473 OA
ENDROOT
BRANCH   1   3
ATOM      2 CL   UNL     1      36.310 -18.614 -21.770  0.00  0.00    -0.082 Cl
ATOM      3  C   UNL     1      33.626 -21.419 -19.491  0.00  0.00    +0.139 C 
ATOM      4  C   UNL     1      35.006 -21.580 -19.425  0.00  0.00    +0.038 C 
ATOM      5  C   UNL     1      33.068 -20.401 -20.256  0.00  0.00    +0.038 C 
ATOM      6  C   UNL     1      35.838 -20.711 -20.131  0.00  0.00    +0.015 C 
ATOM      7  C   UNL     1      33.900 -19.532 -20.963  0.00  0.00    +0.015 C 
ATOM      8  C   UNL     1      35.284 -19.686 -20.900  0.00  0.00    +0.058 C 
ENDBRANCH   1   3
BRANCH   1   9
ATOM      9  C   UNL     1      33.449 -23.269 -18.006  0.00  0.00    +0.237 C 
BRANCH   9  10
ATOM     10  C   UNL     1      33.103 -23.062 -16.536  0.00  0.00    +0.183 C 
BRANCH  10  11
ATOM     11  O   UNL     1      33.950 -23.897 -15.743  0.00  0.00    -0.378 OA
ATOM     12  H   UNL     1      34.701 -24.196 -16.279  0.00  0.00    +0.211 HD
ENDBRANCH  10  11
BRANCH  10  13
ATOM     13  C   UNL     1      31.658 -23.447 -16.246  0.00  0.00    +0.170 C 
BRANCH  13  14
ATOM     14  O   UNL     1      30.793 -22.592 -16.987  0.00  0.00    -0.379 OA
ATOM     15  H   UNL     1      30.553 -23.022 -17.822  0.00  0.00    +0.211 HD
ENDBRANCH  13  14
ENDBRANCH  10  13
ENDBRANCH   9  10
ENDBRANCH   1   9
TORSDOF 6
ENDMDL
MODEL 5
REMARK VINA RESULT:      -6.7      7.819      9.123
REMARK  Name = 7697
REMARK  6 active torsions:
REMARK  status: ('A' for Active; 'I' for Inactive)
REMARK    1  A    between atoms: O_1  and  C_3
REMARK    2  A    between atoms: O_1  and  C_9
REMARK    3  A    between atoms: C_9  and  C_10
REMARK    4  A    between atoms: C_10  and  O_11
REMARK    5  A    between atoms: C_10  and  C_13
REMARK    6  A    between atoms: C_13  and  O_14
REMARK                            x       y       z     vdW  Elec       q    Type
REMARK                         _______ _______ _______ _____ _____    ______ ____
ROOT
ATOM      1  O   UNL     1      29.042 -22.483 -16.982  0.00  0.00    -0.473 OA
ENDROOT
BRANCH   1   3
ATOM      2 CL   UNL     1      33.678 -23.974 -13.701  0.00  0.00    -0.082 Cl
ATOM      3  C   UNL     1      30.124 -22.831 -16.217  0.00  0.00    +0.139 C 
ATOM      4  C   UNL     1      29.962 -23.047 -14.852  0.00  0.00    +0.038 C 
ATOM      5  C   UNL     1      31.374 -22.967 -16.812  0.00  0.00    +0.038 C 
ATOM      6  C   UNL     1      31.063 -23.401 -14.073  0.00  0.00    +0.015 C 
ATOM      7  C   UNL     1      32.475 -23.321 -16.032  0.00  0.00    +0.015 C 
ATOM      8  C   UNL     1      32.320 -23.537 -14.663  0.00  0.00    +0.058 C 
ENDBRANCH   1   3
BRANCH   1   9
ATOM      9  C   UNL     1      27.768 -22.931 -16.531  0.00  0.00    +0.237 C 
BRANCH   9  10
ATOM     10  C   UNL     1      26.786 -21.765 -16.515  0.00  0.00    +0.183 C 
BRANCH  10  11
ATOM     11  O   UNL     1      25.676 -22.111 -15.683  0.00  0.00    -0.378 OA
ATOM     12  H   UNL     1      25.107 -21.334 -15.566  0.00  0.00    +0.211 HD
ENDBRANCH  10  11
BRANCH  10  13
ATOM     13  C   UNL     1      26.252 -21.469 -17.911  0.00  0.00    +0.170 C 
BRANCH  13  14
ATOM     14  O   UNL     1      25.977 -20.076 -18.015  0.00  0.00    -0.379 OA
ATOM     15  H   UNL     1      25.425 -19.799 -17.268  0.00  0.00    +0.211 HD
ENDBRANCH  13  14
ENDBRANCH  10  13
ENDBRANCH   9  10
ENDBRANCH   1   9
TORSDOF 6
ENDMDL
MODEL 6
REMARK VINA RESULT:      -6.7      1.515      1.796
REMARK  Name = 7697
REMARK  6 active torsions:
REMARK  status: ('A' for Active; 'I' for Inactive)
REMARK    1  A    between atoms: O_1  and  C_3
REMARK    2  A    between atoms: O_1  and  C_9
REMARK    3  A    between atoms: C_9  and  C_10
REMARK    4  A    between atoms: C_10  and  O_11
REMARK    5  A    between atoms: C_10  and  C_13
REMARK    6  A    between atoms: C_13  and  O_14
REMARK                            x       y       z     vdW  Elec       q    Type
REMARK                         _______ _______ _______ _____ _____    ______ ____
ROOT
ATOM      1  O   UNL     1      34.630 -18.353 -21.804  0.00  0.00    -0.473 OA
ENDROOT
BRANCH   1   3
ATOM      2 CL   UNL     1      33.637 -23.028 -18.393  0.00  0.00    -0.082 Cl
ATOM      3  C   UNL     1      34.398 -19.444 -21.008  0.00  0.00    +0.139 C 
ATOM      4  C   UNL     1      35.469 -20.212 -20.562  0.00  0.00    +0.038 C 
ATOM      5  C   UNL     1      33.094 -19.773 -20.652  0.00  0.00    +0.038 C 
ATOM      6  C   UNL     1      35.233 -21.322 -19.751  0.00  0.00    +0.015 C 
ATOM      7  C   UNL     1      32.859 -20.883 -19.841  0.00  0.00    +0.015 C 
ATOM      8  C   UNL     1      33.927 -21.658 -19.392  0.00  0.00    +0.058 C 
ENDBRANCH   1   3
BRANCH   1   9
ATOM      9  C   UNL     1      35.243 -17.227 -21.184  0.00  0.00    +0.237 C 
BRANCH   9  10
ATOM     10  C   UNL     1      34.495 -15.956 -21.565  0.00  0.00    +0.183 C 
BRANCH  10  11
ATOM     11  O   UNL     1      33.137 -16.075 -21.134  0.00  0.00    -0.378 OA
ATOM     12  H   UNL     1      32.681 -15.229 -21.268  0.00  0.00    +0.211 HD
ENDBRANCH  10  11
BRANCH  10  13
ATOM     13  C   UNL     1      34.492 -15.744 -23.074  0.00  0.00    +0.170 C 
BRANCH  13  14
ATOM     14  O   UNL     1      35.726 -16.211 -23.609  0.00  0.00    -0.379 OA
ATOM     15  H   UNL     1      35.893 -17.112 -23.295  0.00  0.00    +0.211 HD
ENDBRANCH  13  14
ENDBRANCH  10  13
ENDBRANCH   9  10
ENDBRANCH   1   9
TORSDOF 6
ENDMDL
MODEL 7
REMARK VINA RESULT:      -6.7      4.789      7.153
REMARK  Name = 7697
REMARK  6 active torsions:
REMARK  status: ('A' for Active; 'I' for Inactive)
REMARK    1  A    between atoms: O_1  and  C_3
REMARK    2  A    between atoms: O_1  and  C_9
REMARK    3  A    between atoms: C_9  and  C_10
REMARK    4  A    between atoms: C_10  and  O_11
REMARK    5  A    between atoms: C_10  and  C_13
REMARK    6  A    between atoms: C_13  and  O_14
REMARK                            x       y       z     vdW  Elec       q    Type
REMARK                         _______ _______ _______ _____ _____    ______ ____
ROOT
ATOM      1  O   UNL     1      34.603 -23.181 -18.011  0.00  0.00    -0.473 OA
ENDROOT
BRANCH   1   3
ATOM      2 CL   UNL     1      34.389 -18.742 -21.848  0.00  0.00    -0.082 Cl
ATOM      3  C   UNL     1      34.553 -22.145 -18.906  0.00  0.00    +0.139 C 
ATOM      4  C   UNL     1      33.323 -21.615 -19.278  0.00  0.00    +0.038 C 
ATOM      5  C   UNL     1      35.734 -21.633 -19.433  0.00  0.00    +0.038 C 
ATOM      6  C   UNL     1      33.272 -20.560 -20.190  0.00  0.00    +0.015 C 
ATOM      7  C   UNL     1      35.683 -20.578 -20.345  0.00  0.00    +0.015 C 
ATOM      8  C   UNL     1      34.452 -20.042 -20.724  0.00  0.00    +0.058 C 
ENDBRANCH   1   3
BRANCH   1   9
ATOM      9  C   UNL     1      33.612 -23.191 -16.988  0.00  0.00    +0.237 C 
BRANCH   9  10
ATOM     10  C   UNL     1      34.265 -23.461 -15.638  0.00  0.00    +0.183 C 
BRANCH  10  11
ATOM     11  O   UNL     1      33.447 -22.895 -14.611  0.00  0.00    -0.378 OA
ATOM     12  H   UNL     1      32.524 -22.876 -14.908  0.00  0.00    +0.211 HD
ENDBRANCH  10  11
BRANCH  10  13
ATOM     13  C   UNL     1      35.643 -22.818 -15.548  0.00  0.00    +0.170 C 
BRANCH  13  14
ATOM     14  O   UNL     1      36.614 -23.736 -16.040  0.00  0.00    -0.379 OA
ATOM     15  H   UNL     1      36.929 -23.441 -16.908  0.00  0.00    +0.211 HD
ENDBRANCH  13  14
ENDBRANCH  10  13
ENDBRANCH   9  10
ENDBRANCH   1   9
TORSDOF 6
ENDMDL
MODEL 8
REMARK VINA RESULT:      -6.6      4.435      7.195
REMARK  Name = 7697
REMARK  6 active torsions:
REMARK  status: ('A' for Active; 'I' for Inactive)
REMARK    1  A    between atoms: O_1  and  C_3
REMARK    2  A    between atoms: O_1  and  C_9
REMARK    3  A    between atoms: C_9  and  C_10
REMARK    4  A    between atoms: C_10  and  O_11
REMARK    5  A    between atoms: C_10  and  C_13
REMARK    6  A    between atoms: C_13  and  O_14
REMARK                            x       y       z     vdW  Elec       q    Type
REMARK                         _______ _______ _______ _____ _____    ______ ____
ROOT
ATOM      1  O   UNL     1      32.723 -22.188 -18.880  0.00  0.00    -0.473 OA
ENDROOT
BRANCH   1   3
ATOM      2 CL   UNL     1      36.299 -18.558 -21.798  0.00  0.00    -0.082 Cl
ATOM      3  C   UNL     1      33.558 -21.341 -19.560  0.00  0.00    +0.139 C 
ATOM      4  C   UNL     1      33.022 -20.290 -20.297  0.00  0.00    +0.038 C 
ATOM      5  C   UNL     1      34.933 -21.540 -19.508  0.00  0.00    +0.038 C 
ATOM      6  C   UNL     1      33.871 -19.428 -20.990  0.00  0.00    +0.015 C 
ATOM      7  C   UNL     1      35.783 -20.677 -20.201  0.00  0.00    +0.015 C 
ATOM      8  C   UNL     1      35.252 -19.622 -20.943  0.00  0.00    +0.058 C 
ENDBRANCH   1   3
BRANCH   1   9
ATOM      9  C   UNL     1      33.311 -22.971 -17.846  0.00  0.00    +0.237 C 
BRANCH   9  10
ATOM     10  C   UNL     1      32.242 -23.390 -16.844  0.00  0.00    +0.183 C 
BRANCH  10  11
ATOM     11  O   UNL     1      31.098 -22.550 -17.014  0.00  0.00    -0.378 OA
ATOM     12  H   UNL     1      30.398 -23.046 -17.468  0.00  0.00    +0.211 HD
ENDBRANCH  10  11
BRANCH  10  13
ATOM     13  C   UNL     1      32.731 -23.232 -15.409  0.00  0.00    +0.170 C 
BRANCH  13  14
ATOM     14  O   UNL     1      32.031 -24.152 -14.578  0.00  0.00    -0.379 OA
ATOM     15  H   UNL     1      32.240 -25.058 -14.851  0.00  0.00    +0.211 HD
ENDBRANCH  13  14
ENDBRANCH  10  13
ENDBRANCH   9  10
ENDBRANCH   1   9
TORSDOF 6
ENDMDL
MODEL 9
REMARK VINA RESULT:      -6.6      4.813      7.243
REMARK  Name = 7697
REMARK  6 active torsions:
REMARK  status: ('A' for Active; 'I' for Inactive)
REMARK    1  A    between atoms: O_1  and  C_3
REMARK    2  A    between atoms: O_1  and  C_9
REMARK    3  A    between atoms: C_9  and  C_10
REMARK    4  A    between atoms: C_10  and  O_11
REMARK    5  A    between atoms: C_10  and  C_13
REMARK    6  A    between atoms: C_13  and  O_14
REMARK                            x       y       z     vdW  Elec       q    Type
REMARK                         _______ _______ _______ _____ _____    ______ ____
ROOT
ATOM      1  O   UNL     1      35.922 -22.693 -17.489  0.00  0.00    -0.473 OA
ENDROOT
BRANCH   1   3
ATOM      2 CL   UNL     1      33.961 -19.412 -21.945  0.00  0.00    -0.082 Cl
ATOM      3  C   UNL     1      35.464 -21.928 -18.528  0.00  0.00    +0.139 C 
ATOM      4  C   UNL     1      36.366 -21.200 -19.298  0.00  0.00    +0.038 C 
ATOM      5  C   UNL     1      34.102 -21.886 -18.806  0.00  0.00    +0.038 C 
ATOM      6  C   UNL     1      35.900 -20.421 -20.357  0.00  0.00    +0.015 C 
ATOM      7  C   UNL     1      33.636 -21.106 -19.865  0.00  0.00    +0.015 C 
ATOM      8  C   UNL     1      34.535 -20.373 -20.640  0.00  0.00    +0.058 C 
ENDBRANCH   1   3
BRANCH   1   9
ATOM      9  C   UNL     1      37.054 -22.200 -16.780  0.00  0.00    +0.237 C 
BRANCH   9  10
ATOM     10  C   UNL     1      37.197 -22.938 -15.455  0.00  0.00    +0.183 C 
BRANCH  10  11
ATOM     11  O   UNL     1      38.393 -23.720 -15.491  0.00  0.00    -0.378 OA
ATOM     12  H   UNL     1      39.060 -23.264 -16.028  0.00  0.00    +0.211 HD
ENDBRANCH  10  11
BRANCH  10  13
ATOM     13  C   UNL     1      36.025 -23.882 -15.215  0.00  0.00    +0.170 C 
BRANCH  13  14
ATOM     14  O   UNL     1      36.348 -25.163 -15.746  0.00  0.00    -0.379 OA
ATOM     15  H   UNL     1      37.285 -25.352 -15.587  0.00  0.00    +0.211 HD
ENDBRANCH  13  14
ENDBRANCH  10  13
ENDBRANCH   9  10
ENDBRANCH   1   9
TORSDOF 6
ENDMDL
