MODEL 1
REMARK VINA RESULT:      -9.7      0.000      0.000
REMARK  Name = 216385
REMARK  5 active torsions:
REMARK  status: ('A' for Active; 'I' for Inactive)
REMARK    1  A    between atoms: O_1  and  C_4
REMARK    2  A    between atoms: O_1  and  C_18
REMARK    3  A    between atoms: C_15  and  O_20
REMARK    4  A    between atoms: C_16  and  O_22
REMARK    5  A    between atoms: C_17  and  O_24
REMARK                            x       y       z     vdW  Elec       q    Type
REMARK                         _______ _______ _______ _____ _____    ______ ____
ROOT
ATOM      1  O   UNL     1      36.539 -23.460 -15.561  0.00  0.00    -0.466 OA
ENDROOT
BRANCH   1   4
ATOM      2  O   UNL     1      36.967 -20.520 -19.294  0.00  0.00    -0.421 OA
ATOM      3  O   UNL     1      37.189 -19.109 -21.079  0.00  0.00    -0.244 OA
ATOM      4  C   UNL     1      35.976 -22.837 -16.631  0.00  0.00    +0.143 C 
ATOM      5  C   UNL     1      36.740 -21.993 -17.430  0.00  0.00    +0.074 C 
ATOM      6  C   UNL     1      34.798 -21.551 -18.848  0.00  0.00    +0.031 C 
ATOM      7  C   UNL     1      34.631 -23.043 -16.931  0.00  0.00    +0.037 C 
ATOM      8  C   UNL     1      36.143 -21.363 -18.523  0.00  0.00    +0.151 C 
ATOM      9  C   UNL     1      34.046 -22.406 -18.031  0.00  0.00    +0.006 C 
ATOM     10  C   UNL     1      34.251 -20.849 -20.017  0.00  0.00    -0.012 C 
ATOM     11  C   UNL     1      35.060 -20.053 -20.732  0.00  0.00    +0.078 C 
ATOM     12  C   UNL     1      32.810 -21.030 -20.392  0.00  0.00    +0.031 C 
ATOM     13  C   UNL     1      36.480 -19.846 -20.402  0.00  0.00    +0.346 C 
ENDBRANCH   1   4
BRANCH   1  18
ATOM     14  S   UNL     1      35.129 -24.280 -13.428  0.00  0.00    -0.093 S 
ATOM     15  C   UNL     1      37.988 -25.682 -14.015  0.00  0.00    +0.169 C 
ATOM     16  C   UNL     1      36.840 -25.801 -15.031  0.00  0.00    +0.191 C 
ATOM     17  C   UNL     1      37.537 -25.404 -12.575  0.00  0.00    +0.151 C 
ATOM     18  C   UNL     1      35.873 -24.611 -15.056  0.00  0.00    +0.243 C 
ATOM     19  C   UNL     1      36.646 -24.170 -12.431  0.00  0.00    +0.093 C 
BRANCH  15  20
ATOM     20  O   UNL     1      38.872 -24.648 -14.442  0.00  0.00    -0.379 OA
ATOM     21  H   UNL     1      39.216 -24.860 -15.323  0.00  0.00    +0.211 HD
ENDBRANCH  15  20
BRANCH  16  22
ATOM     22  O   UNL     1      36.122 -27.010 -14.791  0.00  0.00    -0.378 OA
ATOM     23  H   UNL     1      36.750 -27.737 -14.655  0.00  0.00    +0.211 HD
ENDBRANCH  16  22
BRANCH  17  24
ATOM     24  O   UNL     1      36.880 -26.554 -12.048  0.00  0.00    -0.381 OA
ATOM     25  H   UNL     1      35.930 -26.373 -11.961  0.00  0.00    +0.210 HD
ENDBRANCH  17  24
ENDBRANCH   1  18
TORSDOF 5
ENDMDL
MODEL 2
REMARK VINA RESULT:      -9.3      1.377      2.020
REMARK  Name = 216385
REMARK  5 active torsions:
REMARK  status: ('A' for Active; 'I' for Inactive)
REMARK    1  A    between atoms: O_1  and  C_4
REMARK    2  A    between atoms: O_1  and  C_18
REMARK    3  A    between atoms: C_15  and  O_20
REMARK    4  A    between atoms: C_16  and  O_22
REMARK    5  A    between atoms: C_17  and  O_24
REMARK                            x       y       z     vdW  Elec       q    Type
REMARK                         _______ _______ _______ _____ _____    ______ ____
ROOT
ATOM      1  O   UNL     1      35.450 -24.004 -15.541  0.00  0.00    -0.466 OA
ENDROOT
BRANCH   1   4
ATOM      2  O   UNL     1      36.741 -20.951 -18.973  0.00  0.00    -0.421 OA
ATOM      3  O   UNL     1      37.375 -19.490 -20.613  0.00  0.00    -0.244 OA
ATOM      4  C   UNL     1      35.116 -23.247 -16.621  0.00  0.00    +0.143 C 
ATOM      5  C   UNL     1      36.083 -22.478 -17.261  0.00  0.00    +0.074 C 
ATOM      6  C   UNL     1      34.412 -21.682 -18.860  0.00  0.00    +0.031 C 
ATOM      7  C   UNL     1      33.804 -23.240 -17.090  0.00  0.00    +0.037 C 
ATOM      8  C   UNL     1      35.718 -21.709 -18.367  0.00  0.00    +0.151 C 
ATOM      9  C   UNL     1      33.454 -22.464 -18.201  0.00  0.00    +0.006 C 
ATOM     10  C   UNL     1      34.118 -20.844 -20.030  0.00  0.00    -0.012 C 
ATOM     11  C   UNL     1      35.110 -20.135 -20.586  0.00  0.00    +0.078 C 
ATOM     12  C   UNL     1      32.724 -20.794 -20.582  0.00  0.00    +0.031 C 
ATOM     13  C   UNL     1      36.493 -20.153 -20.078  0.00  0.00    +0.346 C 
ENDBRANCH   1   4
BRANCH   1  18
ATOM     14  S   UNL     1      37.870 -25.059 -15.048  0.00  0.00    -0.093 S 
ATOM     15  C   UNL     1      35.905 -24.477 -12.543  0.00  0.00    +0.169 C 
ATOM     16  C   UNL     1      36.402 -23.321 -13.425  0.00  0.00    +0.191 C 
ATOM     17  C   UNL     1      36.804 -25.721 -12.556  0.00  0.00    +0.151 C 
ATOM     18  C   UNL     1      36.675 -23.695 -14.887  0.00  0.00    +0.243 C 
ATOM     19  C   UNL     1      37.075 -26.275 -13.955  0.00  0.00    +0.093 C 
BRANCH  15  20
ATOM     20  O   UNL     1      34.590 -24.840 -12.959  0.00  0.00    -0.379 OA
ATOM     21  H   UNL     1      34.120 -24.050 -13.268  0.00  0.00    +0.211 HD
ENDBRANCH  15  20
BRANCH  16  22
ATOM     22  O   UNL     1      37.571 -22.751 -12.840  0.00  0.00    -0.378 OA
ATOM     23  H   UNL     1      37.361 -22.425 -11.950  0.00  0.00    +0.211 HD
ENDBRANCH  16  22
BRANCH  17  24
ATOM     24  O   UNL     1      38.031 -25.433 -11.891  0.00  0.00    -0.381 OA
ATOM     25  H   UNL     1      38.588 -26.228 -11.879  0.00  0.00    +0.210 HD
ENDBRANCH  17  24
ENDBRANCH   1  18
TORSDOF 5
ENDMDL
MODEL 3
REMARK VINA RESULT:      -9.2      1.939      2.909
REMARK  Name = 216385
REMARK  5 active torsions:
REMARK  status: ('A' for Active; 'I' for Inactive)
REMARK    1  A    between atoms: O_1  and  C_4
REMARK    2  A    between atoms: O_1  and  C_18
REMARK    3  A    between atoms: C_15  and  O_20
REMARK    4  A    between atoms: C_16  and  O_22
REMARK    5  A    between atoms: C_17  and  O_24
REMARK                            x       y       z     vdW  Elec       q    Type
REMARK                         _______ _______ _______ _____ _____    ______ ____
ROOT
ATOM      1  O   UNL     1      36.018 -23.689 -15.294  0.00  0.00    -0.466 OA
ENDROOT
BRANCH   1   4
ATOM      2  O   UNL     1      33.561 -21.865 -18.955  0.00  0.00    -0.421 OA
ATOM      3  O   UNL     1      32.369 -20.998 -20.703  0.00  0.00    -0.244 OA
ATOM      4  C   UNL     1      35.988 -22.923 -16.418  0.00  0.00    +0.143 C 
ATOM      5  C   UNL     1      34.800 -22.771 -17.128  0.00  0.00    +0.074 C 
ATOM      6  C   UNL     1      35.936 -21.332 -18.747  0.00  0.00    +0.031 C 
ATOM      7  C   UNL     1      37.145 -22.288 -16.863  0.00  0.00    +0.037 C 
ATOM      8  C   UNL     1      34.792 -21.981 -18.279  0.00  0.00    +0.151 C 
ATOM      9  C   UNL     1      37.121 -21.498 -18.017  0.00  0.00    +0.006 C 
ATOM     10  C   UNL     1      35.835 -20.520 -19.967  0.00  0.00    -0.012 C 
ATOM     11  C   UNL     1      34.651 -20.427 -20.589  0.00  0.00    +0.078 C 
ATOM     12  C   UNL     1      37.047 -19.811 -20.495  0.00  0.00    +0.031 C 
ATOM     13  C   UNL     1      33.435 -21.105 -20.107  0.00  0.00    +0.346 C 
ENDBRANCH   1   4
BRANCH   1  18
ATOM     14  S   UNL     1      38.274 -25.021 -14.706  0.00  0.00    -0.093 S 
ATOM     15  C   UNL     1      36.071 -24.619 -12.370  0.00  0.00    +0.169 C 
ATOM     16  C   UNL     1      36.756 -23.401 -13.009  0.00  0.00    +0.191 C 
ATOM     17  C   UNL     1      36.868 -25.926 -12.472  0.00  0.00    +0.151 C 
ATOM     18  C   UNL     1      37.175 -23.589 -14.473  0.00  0.00    +0.243 C 
ATOM     19  C   UNL     1      37.264 -26.300 -13.900  0.00  0.00    +0.093 C 
BRANCH  15  20
ATOM     20  O   UNL     1      34.792 -24.796 -12.975  0.00  0.00    -0.379 OA
ATOM     21  H   UNL     1      34.595 -25.743 -13.044  0.00  0.00    +0.211 HD
ENDBRANCH  15  20
BRANCH  16  22
ATOM     22  O   UNL     1      37.886 -23.029 -12.222  0.00  0.00    -0.378 OA
ATOM     23  H   UNL     1      38.682 -23.031 -12.776  0.00  0.00    +0.211 HD
ENDBRANCH  16  22
BRANCH  17  24
ATOM     24  O   UNL     1      38.025 -25.848 -11.642  0.00  0.00    -0.381 OA
ATOM     25  H   UNL     1      37.916 -26.438 -10.879  0.00  0.00    +0.210 HD
ENDBRANCH  17  24
ENDBRANCH   1  18
TORSDOF 5
ENDMDL
MODEL 4
REMARK VINA RESULT:      -9.0      1.548      2.255
REMARK  Name = 216385
REMARK  5 active torsions:
REMARK  status: ('A' for Active; 'I' for Inactive)
REMARK    1  A    between atoms: O_1  and  C_4
REMARK    2  A    between atoms: O_1  and  C_18
REMARK    3  A    between atoms: C_15  and  O_20
REMARK    4  A    between atoms: C_16  and  O_22
REMARK    5  A    between atoms: C_17  and  O_24
REMARK                            x       y       z     vdW  Elec       q    Type
REMARK                         _______ _______ _______ _____ _____    ______ ____
ROOT
ATOM      1  O   UNL     1      36.834 -23.180 -14.812  0.00  0.00    -0.466 OA
ENDROOT
BRANCH   1   4
ATOM      2  O   UNL     1      33.882 -22.335 -18.464  0.00  0.00    -0.421 OA
ATOM      3  O   UNL     1      32.455 -21.939 -20.206  0.00  0.00    -0.244 OA
ATOM      4  C   UNL     1      36.595 -22.579 -16.009  0.00  0.00    +0.143 C 
ATOM      5  C   UNL     1      35.368 -22.750 -16.643  0.00  0.00    +0.074 C 
ATOM      6  C   UNL     1      36.109 -21.330 -18.491  0.00  0.00    +0.031 C 
ATOM      7  C   UNL     1      37.578 -21.792 -16.605  0.00  0.00    +0.037 C 
ATOM      8  C   UNL     1      35.143 -22.125 -17.870  0.00  0.00    +0.151 C 
ATOM      9  C   UNL     1      37.338 -21.172 -17.836  0.00  0.00    +0.006 C 
ATOM     10  C   UNL     1      35.787 -20.710 -19.783  0.00  0.00    -0.012 C 
ATOM     11  C   UNL     1      34.579 -20.927 -20.323  0.00  0.00    +0.078 C 
ATOM     12  C   UNL     1      36.803 -19.851 -20.475  0.00  0.00    +0.031 C 
ATOM     13  C   UNL     1      33.549 -21.763 -19.681  0.00  0.00    +0.346 C 
ENDBRANCH   1   4
BRANCH   1  18
ATOM     14  S   UNL     1      35.391 -24.294 -12.840  0.00  0.00    -0.093 S 
ATOM     15  C   UNL     1      38.139 -25.745 -13.746  0.00  0.00    +0.169 C 
ATOM     16  C   UNL     1      36.977 -25.593 -14.740  0.00  0.00    +0.191 C 
ATOM     17  C   UNL     1      37.722 -25.717 -12.269  0.00  0.00    +0.151 C 
ATOM     18  C   UNL     1      36.094 -24.358 -14.518  0.00  0.00    +0.243 C 
ATOM     19  C   UNL     1      36.921 -24.476 -11.875  0.00  0.00    +0.093 C 
BRANCH  15  20
ATOM     20  O   UNL     1      39.090 -24.711 -13.989  0.00  0.00    -0.379 OA
ATOM     21  H   UNL     1      39.694 -24.987 -14.695  0.00  0.00    +0.211 HD
ENDBRANCH  15  20
BRANCH  16  22
ATOM     22  O   UNL     1      36.179 -26.775 -14.716  0.00  0.00    -0.378 OA
ATOM     23  H   UNL     1      35.776 -26.911 -15.588  0.00  0.00    +0.211 HD
ENDBRANCH  16  22
BRANCH  17  24
ATOM     24  O   UNL     1      36.991 -26.899 -11.954  0.00  0.00    -0.381 OA
ATOM     25  H   UNL     1      36.046 -26.690 -11.895  0.00  0.00    +0.210 HD
ENDBRANCH  17  24
ENDBRANCH   1  18
TORSDOF 5
ENDMDL
MODEL 5
REMARK VINA RESULT:      -8.6      2.984      4.248
REMARK  Name = 216385
REMARK  5 active torsions:
REMARK  status: ('A' for Active; 'I' for Inactive)
REMARK    1  A    between atoms: O_1  and  C_4
REMARK    2  A    between atoms: O_1  and  C_18
REMARK    3  A    between atoms: C_15  and  O_20
REMARK    4  A    between atoms: C_16  and  O_22
REMARK    5  A    between atoms: C_17  and  O_24
REMARK                            x       y       z     vdW  Elec       q    Type
REMARK                         _______ _______ _______ _____ _____    ______ ____
ROOT
ATOM      1  O   UNL     1      35.454 -24.532 -12.951  0.00  0.00    -0.466 OA
ENDROOT
BRANCH   1   4
ATOM      2  O   UNL     1      33.694 -22.990 -17.110  0.00  0.00    -0.421 OA
ATOM      3  O   UNL     1      32.866 -22.252 -19.109  0.00  0.00    -0.244 OA
ATOM      4  C   UNL     1      34.386 -24.140 -13.697  0.00  0.00    +0.143 C 
ATOM      5  C   UNL     1      34.562 -23.761 -15.025  0.00  0.00    +0.074 C 
ATOM      6  C   UNL     1      32.165 -23.328 -15.235  0.00  0.00    +0.031 C 
ATOM      7  C   UNL     1      33.112 -24.115 -13.134  0.00  0.00    +0.037 C 
ATOM      8  C   UNL     1      33.453 -23.362 -15.772  0.00  0.00    +0.151 C 
ATOM      9  C   UNL     1      32.009 -23.714 -13.896  0.00  0.00    +0.006 C 
ATOM     10  C   UNL     1      31.055 -22.895 -16.094  0.00  0.00    -0.012 C 
ATOM     11  C   UNL     1      31.314 -22.548 -17.363  0.00  0.00    +0.078 C 
ATOM     12  C   UNL     1      29.659 -22.848 -15.546  0.00  0.00    +0.031 C 
ATOM     13  C   UNL     1      32.667 -22.578 -17.944  0.00  0.00    +0.346 C 
ENDBRANCH   1   4
BRANCH   1  18
ATOM     14  S   UNL     1      37.332 -23.593 -14.626  0.00  0.00    -0.093 S 
ATOM     15  C   UNL     1      38.261 -25.515 -12.192  0.00  0.00    +0.169 C 
ATOM     16  C   UNL     1      37.601 -24.158 -11.902  0.00  0.00    +0.191 C 
ATOM     17  C   UNL     1      38.940 -25.612 -13.566  0.00  0.00    +0.151 C 
ATOM     18  C   UNL     1      36.598 -23.686 -12.963  0.00  0.00    +0.243 C 
ATOM     19  C   UNL     1      38.019 -25.272 -14.737  0.00  0.00    +0.093 C 
BRANCH  15  20
ATOM     20  O   UNL     1      37.275 -26.538 -12.078  0.00  0.00    -0.379 OA
ATOM     21  H   UNL     1      36.452 -26.243 -12.497  0.00  0.00    +0.211 HD
ENDBRANCH  15  20
BRANCH  16  22
ATOM     22  O   UNL     1      38.614 -23.171 -11.715  0.00  0.00    -0.378 OA
ATOM     23  H   UNL     1      38.680 -22.621 -12.511  0.00  0.00    +0.211 HD
ENDBRANCH  16  22
BRANCH  17  24
ATOM     24  O   UNL     1      40.098 -24.781 -13.589  0.00  0.00    -0.381 OA
ATOM     25  H   UNL     1      40.034 -24.158 -14.330  0.00  0.00    +0.210 HD
ENDBRANCH  17  24
ENDBRANCH   1  18
TORSDOF 5
ENDMDL
MODEL 6
REMARK VINA RESULT:      -8.4      4.197      8.761
REMARK  Name = 216385
REMARK  5 active torsions:
REMARK  status: ('A' for Active; 'I' for Inactive)
REMARK    1  A    between atoms: O_1  and  C_4
REMARK    2  A    between atoms: O_1  and  C_18
REMARK    3  A    between atoms: C_15  and  O_20
REMARK    4  A    between atoms: C_16  and  O_22
REMARK    5  A    between atoms: C_17  and  O_24
REMARK                            x       y       z     vdW  Elec       q    Type
REMARK                         _______ _______ _______ _____ _____    ______ ____
ROOT
ATOM      1  O   UNL     1      34.522 -19.815 -21.256  0.00  0.00    -0.466 OA
ENDROOT
BRANCH   1   4
ATOM      2  O   UNL     1      32.036 -22.285 -18.017  0.00  0.00    -0.421 OA
ATOM      3  O   UNL     1      30.831 -23.464 -16.473  0.00  0.00    -0.244 OA
ATOM      4  C   UNL     1      34.504 -20.629 -20.166  0.00  0.00    +0.143 C 
ATOM      5  C   UNL     1      33.291 -21.054 -19.631  0.00  0.00    +0.074 C 
ATOM      6  C   UNL     1      34.477 -22.316 -17.905  0.00  0.00    +0.031 C 
ATOM      7  C   UNL     1      35.699 -21.039 -19.580  0.00  0.00    +0.037 C 
ATOM      8  C   UNL     1      33.295 -21.888 -18.513  0.00  0.00    +0.151 C 
ATOM      9  C   UNL     1      35.687 -21.877 -18.459  0.00  0.00    +0.006 C 
ATOM     10  C   UNL     1      34.387 -23.194 -16.731  0.00  0.00    -0.012 C 
ATOM     11  C   UNL     1      33.177 -23.556 -16.283  0.00  0.00    +0.078 C 
ATOM     12  C   UNL     1      35.639 -23.671 -16.057  0.00  0.00    +0.031 C 
ATOM     13  C   UNL     1      31.921 -23.113 -16.913  0.00  0.00    +0.346 C 
ENDBRANCH   1   4
BRANCH   1  18
ATOM     14  S   UNL     1      34.947 -17.188 -20.892  0.00  0.00    -0.093 S 
ATOM     15  C   UNL     1      35.323 -18.411 -23.865  0.00  0.00    +0.169 C 
ATOM     16  C   UNL     1      36.218 -18.888 -22.710  0.00  0.00    +0.191 C 
ATOM     17  C   UNL     1      34.717 -17.015 -23.667  0.00  0.00    +0.151 C 
ATOM     18  C   UNL     1      35.562 -18.846 -21.324  0.00  0.00    +0.243 C 
ATOM     19  C   UNL     1      33.933 -16.859 -22.364  0.00  0.00    +0.093 C 
BRANCH  15  20
ATOM     20  O   UNL     1      34.275 -19.359 -24.055  0.00  0.00    -0.379 OA
ATOM     21  H   UNL     1      33.419 -18.908 -24.008  0.00  0.00    +0.211 HD
ENDBRANCH  15  20
BRANCH  16  22
ATOM     22  O   UNL     1      37.424 -18.127 -22.703  0.00  0.00    -0.378 OA
ATOM     23  H   UNL     1      37.496 -17.627 -23.531  0.00  0.00    +0.211 HD
ENDBRANCH  16  22
BRANCH  17  24
ATOM     24  O   UNL     1      35.745 -16.030 -23.748  0.00  0.00    -0.381 OA
ATOM     25  H   UNL     1      35.992 -15.746 -22.854  0.00  0.00    +0.210 HD
ENDBRANCH  17  24
ENDBRANCH   1  18
TORSDOF 5
ENDMDL
MODEL 7
REMARK VINA RESULT:      -8.4      4.150      5.766
REMARK  Name = 216385
REMARK  5 active torsions:
REMARK  status: ('A' for Active; 'I' for Inactive)
REMARK    1  A    between atoms: O_1  and  C_4
REMARK    2  A    between atoms: O_1  and  C_18
REMARK    3  A    between atoms: C_15  and  O_20
REMARK    4  A    between atoms: C_16  and  O_22
REMARK    5  A    between atoms: C_17  and  O_24
REMARK                            x       y       z     vdW  Elec       q    Type
REMARK                         _______ _______ _______ _____ _____    ______ ____
ROOT
ATOM      1  O   UNL     1      35.275 -24.545 -13.209  0.00  0.00    -0.466 OA
ENDROOT
BRANCH   1   4
ATOM      2  O   UNL     1      30.622 -25.275 -13.976  0.00  0.00    -0.421 OA
ATOM      3  O   UNL     1      28.393 -25.635 -14.330  0.00  0.00    -0.244 OA
ATOM      4  C   UNL     1      34.143 -24.250 -13.903  0.00  0.00    +0.143 C 
ATOM      5  C   UNL     1      32.950 -24.900 -13.602  0.00  0.00    +0.074 C 
ATOM      6  C   UNL     1      31.800 -23.631 -15.347  0.00  0.00    +0.031 C 
ATOM      7  C   UNL     1      34.173 -23.295 -14.917  0.00  0.00    +0.037 C 
ATOM      8  C   UNL     1      31.800 -24.583 -14.326  0.00  0.00    +0.151 C 
ATOM      9  C   UNL     1      33.011 -22.987 -15.634  0.00  0.00    +0.006 C 
ATOM     10  C   UNL     1      30.543 -23.359 -16.056  0.00  0.00    -0.012 C 
ATOM     11  C   UNL     1      29.439 -24.032 -15.701  0.00  0.00    +0.078 C 
ATOM     12  C   UNL     1      30.511 -22.341 -17.158  0.00  0.00    +0.031 C 
ATOM     13  C   UNL     1      29.422 -25.039 -14.626  0.00  0.00    +0.346 C 
ENDBRANCH   1   4
BRANCH   1  18
ATOM     14  S   UNL     1      37.215 -23.844 -14.929  0.00  0.00    -0.093 S 
ATOM     15  C   UNL     1      38.070 -25.137 -12.087  0.00  0.00    +0.169 C 
ATOM     16  C   UNL     1      37.311 -23.802 -12.136  0.00  0.00    +0.191 C 
ATOM     17  C   UNL     1      38.854 -25.472 -13.363  0.00  0.00    +0.151 C 
ATOM     18  C   UNL     1      36.365 -23.639 -13.332  0.00  0.00    +0.243 C 
ATOM     19  C   UNL     1      38.006 -25.455 -14.634  0.00  0.00    +0.093 C 
BRANCH  15  20
ATOM     20  O   UNL     1      37.140 -26.183 -11.815  0.00  0.00    -0.379 OA
ATOM     21  H   UNL     1      36.335 -26.044 -12.337  0.00  0.00    +0.211 HD
ENDBRANCH  15  20
BRANCH  16  22
ATOM     22  O   UNL     1      38.248 -22.726 -12.104  0.00  0.00    -0.378 OA
ATOM     23  H   UNL     1      39.121 -23.065 -11.852  0.00  0.00    +0.211 HD
ENDBRANCH  16  22
BRANCH  17  24
ATOM     24  O   UNL     1      39.960 -24.582 -13.493  0.00  0.00    -0.381 OA
ATOM     25  H   UNL     1      39.659 -23.748 -13.888  0.00  0.00    +0.210 HD
ENDBRANCH  17  24
ENDBRANCH   1  18
TORSDOF 5
ENDMDL
MODEL 8
REMARK VINA RESULT:      -8.3      3.293      8.407
REMARK  Name = 216385
REMARK  5 active torsions:
REMARK  status: ('A' for Active; 'I' for Inactive)
REMARK    1  A    between atoms: O_1  and  C_4
REMARK    2  A    between atoms: O_1  and  C_18
REMARK    3  A    between atoms: C_15  and  O_20
REMARK    4  A    between atoms: C_16  and  O_22
REMARK    5  A    between atoms: C_17  and  O_24
REMARK                            x       y       z     vdW  Elec       q    Type
REMARK                         _______ _______ _______ _____ _____    ______ ____
ROOT
ATOM      1  O   UNL     1      34.680 -19.936 -21.239  0.00  0.00    -0.466 OA
ENDROOT
BRANCH   1   4
ATOM      2  O   UNL     1      36.936 -21.934 -17.540  0.00  0.00    -0.421 OA
ATOM      3  O   UNL     1      38.031 -22.883 -15.772  0.00  0.00    -0.244 OA
ATOM      4  C   UNL     1      34.639 -20.716 -20.126  0.00  0.00    +0.143 C 
ATOM      5  C   UNL     1      35.796 -20.940 -19.386  0.00  0.00    +0.074 C 
ATOM      6  C   UNL     1      34.542 -22.336 -17.819  0.00  0.00    +0.031 C 
ATOM      7  C   UNL     1      33.438 -21.295 -19.722  0.00  0.00    +0.037 C 
ATOM      8  C   UNL     1      35.732 -21.744 -18.247  0.00  0.00    +0.151 C 
ATOM      9  C   UNL     1      33.389 -22.098 -18.578  0.00  0.00    +0.006 C 
ATOM     10  C   UNL     1      34.566 -23.167 -16.608  0.00  0.00    -0.012 C 
ATOM     11  C   UNL     1      35.726 -23.330 -15.955  0.00  0.00    +0.078 C 
ATOM     12  C   UNL     1      33.305 -23.817 -16.122  0.00  0.00    +0.031 C 
ATOM     13  C   UNL     1      36.989 -22.711 -16.394  0.00  0.00    +0.346 C 
ENDBRANCH   1   4
BRANCH   1  18
ATOM     14  S   UNL     1      34.954 -17.287 -20.888  0.00  0.00    -0.093 S 
ATOM     15  C   UNL     1      35.508 -18.516 -23.831  0.00  0.00    +0.169 C 
ATOM     16  C   UNL     1      36.381 -18.934 -22.638  0.00  0.00    +0.191 C 
ATOM     17  C   UNL     1      34.823 -17.151 -23.672  0.00  0.00    +0.151 C 
ATOM     18  C   UNL     1      35.670 -18.914 -21.279  0.00  0.00    +0.243 C 
ATOM     19  C   UNL     1      33.982 -17.025 -22.402  0.00  0.00    +0.093 C 
BRANCH  15  20
ATOM     20  O   UNL     1      34.519 -19.519 -24.051  0.00  0.00    -0.379 OA
ATOM     21  H   UNL     1      34.656 -20.249 -23.428  0.00  0.00    +0.211 HD
ENDBRANCH  15  20
BRANCH  16  22
ATOM     22  O   UNL     1      37.544 -18.111 -22.593  0.00  0.00    -0.378 OA
ATOM     23  H   UNL     1      38.245 -18.510 -23.133  0.00  0.00    +0.211 HD
ENDBRANCH  16  22
BRANCH  17  24
ATOM     24  O   UNL     1      35.800 -16.115 -23.725  0.00  0.00    -0.381 OA
ATOM     25  H   UNL     1      36.493 -16.290 -23.068  0.00  0.00    +0.210 HD
ENDBRANCH  17  24
ENDBRANCH   1  18
TORSDOF 5
ENDMDL
MODEL 9
REMARK VINA RESULT:      -8.3      4.104      5.516
REMARK  Name = 216385
REMARK  5 active torsions:
REMARK  status: ('A' for Active; 'I' for Inactive)
REMARK    1  A    between atoms: O_1  and  C_4
REMARK    2  A    between atoms: O_1  and  C_18
REMARK    3  A    between atoms: C_15  and  O_20
REMARK    4  A    between atoms: C_16  and  O_22
REMARK    5  A    between atoms: C_17  and  O_24
REMARK                            x       y       z     vdW  Elec       q    Type
REMARK                         _______ _______ _______ _____ _____    ______ ____
ROOT
ATOM      1  O   UNL     1      34.645 -23.650 -14.093  0.00  0.00    -0.466 OA
ENDROOT
BRANCH   1   4
ATOM      2  O   UNL     1      30.510 -22.544 -16.201  0.00  0.00    -0.421 OA
ATOM      3  O   UNL     1      28.537 -22.002 -17.219  0.00  0.00    -0.244 OA
ATOM      4  C   UNL     1      33.329 -23.921 -14.302  0.00  0.00    +0.143 C 
ATOM      5  C   UNL     1      32.573 -23.108 -15.141  0.00  0.00    +0.074 C 
ATOM      6  C   UNL     1      30.600 -24.492 -14.729  0.00  0.00    +0.031 C 
ATOM      7  C   UNL     1      32.732 -25.014 -13.676  0.00  0.00    +0.037 C 
ATOM      8  C   UNL     1      31.224 -23.404 -15.341  0.00  0.00    +0.151 C 
ATOM      9  C   UNL     1      31.379 -25.298 -13.888  0.00  0.00    +0.006 C 
ATOM     10  C   UNL     1      29.175 -24.729 -14.997  0.00  0.00    -0.012 C 
ATOM     11  C   UNL     1      28.522 -23.896 -15.820  0.00  0.00    +0.078 C 
ATOM     12  C   UNL     1      28.476 -25.890 -14.353  0.00  0.00    +0.031 C 
ATOM     13  C   UNL     1      29.167 -22.744 -16.473  0.00  0.00    +0.346 C 
ENDBRANCH   1   4
BRANCH   1  18
ATOM     14  S   UNL     1      36.332 -23.533 -12.006  0.00  0.00    -0.093 S 
ATOM     15  C   UNL     1      37.375 -24.888 -14.755  0.00  0.00    +0.169 C 
ATOM     16  C   UNL     1      36.196 -25.503 -13.984  0.00  0.00    +0.191 C 
ATOM     17  C   UNL     1      38.321 -24.034 -13.899  0.00  0.00    +0.151 C 
ATOM     18  C   UNL     1      35.347 -24.500 -13.193  0.00  0.00    +0.243 C 
ATOM     19  C   UNL     1      37.620 -22.914 -13.131  0.00  0.00    +0.093 C 
BRANCH  15  20
ATOM     20  O   UNL     1      36.861 -24.097 -15.824  0.00  0.00    -0.379 OA
ATOM     21  H   UNL     1      35.949 -23.835 -15.623  0.00  0.00    +0.211 HD
ENDBRANCH  15  20
BRANCH  16  22
ATOM     22  O   UNL     1      36.683 -26.523 -13.114  0.00  0.00    -0.378 OA
ATOM     23  H   UNL     1      37.225 -26.123 -12.416  0.00  0.00    +0.211 HD
ENDBRANCH  16  22
BRANCH  17  24
ATOM     24  O   UNL     1      39.043 -24.873 -13.001  0.00  0.00    -0.381 OA
ATOM     25  H   UNL     1      38.479 -25.101 -12.245  0.00  0.00    +0.210 HD
ENDBRANCH  17  24
ENDBRANCH   1  18
TORSDOF 5
ENDMDL
