MODEL 1
REMARK VINA RESULT:      -6.8      0.000      0.000
REMARK  Name = 5530
REMARK  2 active torsions:
REMARK  status: ('A' for Active; 'I' for Inactive)
REMARK    1  A    between atoms: C_1  and  C_4
REMARK    2  A    between atoms: C_2  and  N_10
REMARK                            x       y       z     vdW  Elec       q    Type
REMARK                         _______ _______ _______ _____ _____    ______ ____
ROOT
ATOM      1  C   UNL     1      34.422 -18.866 -22.072  0.00  0.00    +0.000 C 
ATOM      2  C   UNL     1      35.675 -18.345 -22.702  0.00  0.00    -0.061 C 
ATOM      3  C   UNL     1      34.752 -19.232 -23.485  0.00  0.00    -0.019 C 
ENDROOT
BRANCH   1   4
ATOM      4  C   UNL     1      34.522 -19.907 -21.008  0.00  0.00    -0.025 C 
ATOM      5  C   UNL     1      35.773 -20.348 -20.578  0.00  0.00    -0.004 C 
ATOM      6  C   UNL     1      33.363 -20.439 -20.444  0.00  0.00    -0.004 C 
ATOM      7  C   UNL     1      35.865 -21.322 -19.584  0.00  0.00    -0.000 C 
ATOM      8  C   UNL     1      33.454 -21.412 -19.450  0.00  0.00    -0.000 C 
ATOM      9  C   UNL     1      34.705 -21.854 -19.019  0.00  0.00    -0.000 C 
ENDBRANCH   1   4
BRANCH   2  10
ATOM     10  N   UNL     1      35.782 -16.923 -23.041  0.00  0.00    +0.382 N 
ATOM     11  H   UNL     1      35.022 -16.665 -23.669  0.00  0.00    -0.089 HD
ATOM     12  H   UNL     1      36.676 -16.749 -23.499  0.00  0.00    -0.089 HD
ATOM     13  H   UNL     1      35.723 -16.366 -22.188  0.00  0.00    -0.089 HD
ENDBRANCH   2  10
TORSDOF 2
ENDMDL
MODEL 2
REMARK VINA RESULT:      -6.8      0.026      1.528
REMARK  Name = 5530
REMARK  2 active torsions:
REMARK  status: ('A' for Active; 'I' for Inactive)
REMARK    1  A    between atoms: C_1  and  C_4
REMARK    2  A    between atoms: C_2  and  N_10
REMARK                            x       y       z     vdW  Elec       q    Type
REMARK                         _______ _______ _______ _____ _____    ______ ____
ROOT
ATOM      1  C   UNL     1      34.409 -18.845 -22.078  0.00  0.00    +0.000 C 
ATOM      2  C   UNL     1      35.660 -18.330 -22.719  0.00  0.00    -0.061 C 
ATOM      3  C   UNL     1      34.723 -19.207 -23.496  0.00  0.00    -0.019 C 
ENDROOT
BRANCH   1   4
ATOM      4  C   UNL     1      34.512 -19.890 -21.020  0.00  0.00    -0.025 C 
ATOM      5  C   UNL     1      33.355 -20.432 -20.460  0.00  0.00    -0.004 C 
ATOM      6  C   UNL     1      35.765 -20.325 -20.590  0.00  0.00    -0.004 C 
ATOM      7  C   UNL     1      33.452 -21.410 -19.470  0.00  0.00    -0.000 C 
ATOM      8  C   UNL     1      35.863 -21.302 -19.600  0.00  0.00    -0.000 C 
ATOM      9  C   UNL     1      34.707 -21.845 -19.040  0.00  0.00    -0.000 C 
ENDBRANCH   1   4
BRANCH   2  10
ATOM     10  N   UNL     1      35.774 -16.908 -23.053  0.00  0.00    +0.382 N 
ATOM     11  H   UNL     1      35.353 -16.738 -23.966  0.00  0.00    -0.089 HD
ATOM     12  H   UNL     1      36.758 -16.642 -23.077  0.00  0.00    -0.089 HD
ATOM     13  H   UNL     1      35.289 -16.354 -22.347  0.00  0.00    -0.089 HD
ENDBRANCH   2  10
TORSDOF 2
ENDMDL
MODEL 3
REMARK VINA RESULT:      -6.3      2.290      4.756
REMARK  Name = 5530
REMARK  2 active torsions:
REMARK  status: ('A' for Active; 'I' for Inactive)
REMARK    1  A    between atoms: C_1  and  C_4
REMARK    2  A    between atoms: C_2  and  N_10
REMARK                            x       y       z     vdW  Elec       q    Type
REMARK                         _______ _______ _______ _____ _____    ______ ____
ROOT
ATOM      1  C   UNL     1      34.386 -18.931 -20.974  0.00  0.00    +0.000 C 
ATOM      2  C   UNL     1      33.668 -20.242 -20.903  0.00  0.00    -0.061 C 
ATOM      3  C   UNL     1      35.150 -20.182 -20.675  0.00  0.00    -0.019 C 
ENDROOT
BRANCH   1   4
ATOM      4  C   UNL     1      34.563 -18.269 -22.298  0.00  0.00    -0.025 C 
ATOM      5  C   UNL     1      34.550 -19.031 -23.466  0.00  0.00    -0.004 C 
ATOM      6  C   UNL     1      34.742 -16.888 -22.368  0.00  0.00    -0.004 C 
ATOM      7  C   UNL     1      34.716 -18.411 -24.705  0.00  0.00    -0.000 C 
ATOM      8  C   UNL     1      34.909 -16.267 -23.606  0.00  0.00    -0.000 C 
ATOM      9  C   UNL     1      34.896 -17.029 -24.775  0.00  0.00    -0.000 C 
ENDBRANCH   1   4
BRANCH   2  10
ATOM     10  N   UNL     1      32.767 -20.519 -19.782  0.00  0.00    +0.382 N 
ATOM     11  H   UNL     1      33.302 -20.901 -19.003  0.00  0.00    -0.089 HD
ATOM     12  H   UNL     1      32.059 -21.194 -20.073  0.00  0.00    -0.089 HD
ATOM     13  H   UNL     1      32.312 -19.654 -19.491  0.00  0.00    -0.089 HD
ENDBRANCH   2  10
TORSDOF 2
ENDMDL
MODEL 4
REMARK VINA RESULT:      -6.2      3.603      5.393
REMARK  Name = 5530
REMARK  2 active torsions:
REMARK  status: ('A' for Active; 'I' for Inactive)
REMARK    1  A    between atoms: C_1  and  C_4
REMARK    2  A    between atoms: C_2  and  N_10
REMARK                            x       y       z     vdW  Elec       q    Type
REMARK                         _______ _______ _______ _____ _____    ______ ____
ROOT
ATOM      1  C   UNL     1      33.785 -23.245 -18.011  0.00  0.00    +0.000 C 
ATOM      2  C   UNL     1      34.048 -23.061 -16.549  0.00  0.00    -0.061 C 
ATOM      3  C   UNL     1      32.638 -23.123 -17.058  0.00  0.00    -0.019 C 
ENDROOT
BRANCH   1   4
ATOM      4  C   UNL     1      34.075 -22.122 -18.948  0.00  0.00    -0.025 C 
ATOM      5  C   UNL     1      35.391 -21.834 -19.307  0.00  0.00    -0.004 C 
ATOM      6  C   UNL     1      33.028 -21.359 -19.465  0.00  0.00    -0.004 C 
ATOM      7  C   UNL     1      35.661 -20.782 -20.184  0.00  0.00    -0.000 C 
ATOM      8  C   UNL     1      33.296 -20.308 -20.341  0.00  0.00    -0.000 C 
ATOM      9  C   UNL     1      34.613 -20.019 -20.701  0.00  0.00    -0.000 C 
ENDBRANCH   1   4
BRANCH   2  10
ATOM     10  N   UNL     1      34.590 -24.172 -15.762  0.00  0.00    +0.382 N 
ATOM     11  H   UNL     1      35.498 -24.443 -16.137  0.00  0.00    -0.089 HD
ATOM     12  H   UNL     1      33.951 -24.966 -15.810  0.00  0.00    -0.089 HD
ATOM     13  H   UNL     1      34.696 -23.880 -14.790  0.00  0.00    -0.089 HD
ENDBRANCH   2  10
TORSDOF 2
ENDMDL
MODEL 5
REMARK VINA RESULT:      -6.1      3.389      5.058
REMARK  Name = 5530
REMARK  2 active torsions:
REMARK  status: ('A' for Active; 'I' for Inactive)
REMARK    1  A    between atoms: C_1  and  C_4
REMARK    2  A    between atoms: C_2  and  N_10
REMARK                            x       y       z     vdW  Elec       q    Type
REMARK                         _______ _______ _______ _____ _____    ______ ____
ROOT
ATOM      1  C   UNL     1      34.532 -14.924 -22.935  0.00  0.00    +0.000 C 
ATOM      2  C   UNL     1      33.661 -13.984 -23.708  0.00  0.00    -0.061 C 
ATOM      3  C   UNL     1      33.250 -14.435 -22.337  0.00  0.00    -0.019 C 
ENDROOT
BRANCH   1   4
ATOM      4  C   UNL     1      34.634 -16.346 -23.373  0.00  0.00    -0.025 C 
ATOM      5  C   UNL     1      34.420 -16.682 -24.709  0.00  0.00    -0.004 C 
ATOM      6  C   UNL     1      34.944 -17.340 -22.445  0.00  0.00    -0.004 C 
ATOM      7  C   UNL     1      34.515 -18.013 -25.118  0.00  0.00    -0.000 C 
ATOM      8  C   UNL     1      35.039 -18.670 -22.852  0.00  0.00    -0.000 C 
ATOM      9  C   UNL     1      34.825 -19.007 -24.189  0.00  0.00    -0.000 C 
ENDBRANCH   1   4
BRANCH   2  10
ATOM     10  N   UNL     1      34.094 -12.601 -23.922  0.00  0.00    +0.382 N 
ATOM     11  H   UNL     1      33.803 -12.027 -23.131  0.00  0.00    -0.089 HD
ATOM     12  H   UNL     1      33.672 -12.241 -24.778  0.00  0.00    -0.089 HD
ATOM     13  H   UNL     1      35.110 -12.573 -24.007  0.00  0.00    -0.089 HD
ENDBRANCH   2  10
TORSDOF 2
ENDMDL
MODEL 6
REMARK VINA RESULT:      -6.1      3.391      5.010
REMARK  Name = 5530
REMARK  2 active torsions:
REMARK  status: ('A' for Active; 'I' for Inactive)
REMARK    1  A    between atoms: C_1  and  C_4
REMARK    2  A    between atoms: C_2  and  N_10
REMARK                            x       y       z     vdW  Elec       q    Type
REMARK                         _______ _______ _______ _____ _____    ______ ____
ROOT
ATOM      1  C   UNL     1      34.520 -14.937 -22.926  0.00  0.00    +0.000 C 
ATOM      2  C   UNL     1      33.659 -13.998 -23.713  0.00  0.00    -0.061 C 
ATOM      3  C   UNL     1      33.226 -14.453 -22.350  0.00  0.00    -0.019 C 
ENDROOT
BRANCH   1   4
ATOM      4  C   UNL     1      34.635 -16.358 -23.365  0.00  0.00    -0.025 C 
ATOM      5  C   UNL     1      34.980 -17.347 -22.444  0.00  0.00    -0.004 C 
ATOM      6  C   UNL     1      34.398 -16.697 -24.697  0.00  0.00    -0.004 C 
ATOM      7  C   UNL     1      35.088 -18.676 -22.855  0.00  0.00    -0.000 C 
ATOM      8  C   UNL     1      34.505 -18.024 -25.109  0.00  0.00    -0.000 C 
ATOM      9  C   UNL     1      34.850 -19.014 -24.188  0.00  0.00    -0.000 C 
ENDBRANCH   1   4
BRANCH   2  10
ATOM     10  N   UNL     1      34.092 -12.613 -23.916  0.00  0.00    +0.382 N 
ATOM     11  H   UNL     1      35.052 -12.506 -23.592  0.00  0.00    -0.089 HD
ATOM     12  H   UNL     1      33.483 -11.986 -23.391  0.00  0.00    -0.089 HD
ATOM     13  H   UNL     1      34.040 -12.384 -24.909  0.00  0.00    -0.089 HD
ENDBRANCH   2  10
TORSDOF 2
ENDMDL
MODEL 7
REMARK VINA RESULT:      -6.1      2.932      4.999
REMARK  Name = 5530
REMARK  2 active torsions:
REMARK  status: ('A' for Active; 'I' for Inactive)
REMARK    1  A    between atoms: C_1  and  C_4
REMARK    2  A    between atoms: C_2  and  N_10
REMARK                            x       y       z     vdW  Elec       q    Type
REMARK                         _______ _______ _______ _____ _____    ______ ____
ROOT
ATOM      1  C   UNL     1      35.620 -18.309 -21.900  0.00  0.00    +0.000 C 
ATOM      2  C   UNL     1      34.953 -19.255 -20.950  0.00  0.00    -0.061 C 
ATOM      3  C   UNL     1      34.786 -19.433 -22.430  0.00  0.00    -0.019 C 
ENDROOT
BRANCH   1   4
ATOM      4  C   UNL     1      35.112 -16.911 -22.010  0.00  0.00    -0.025 C 
ATOM      5  C   UNL     1      34.988 -16.310 -23.263  0.00  0.00    -0.004 C 
ATOM      6  C   UNL     1      34.761 -16.205 -20.860  0.00  0.00    -0.004 C 
ATOM      7  C   UNL     1      34.513 -15.003 -23.365  0.00  0.00    -0.000 C 
ATOM      8  C   UNL     1      34.286 -14.898 -20.961  0.00  0.00    -0.000 C 
ATOM      9  C   UNL     1      34.162 -14.296 -22.214  0.00  0.00    -0.000 C 
ENDBRANCH   1   4
BRANCH   2  10
ATOM     10  N   UNL     1      35.762 -20.209 -20.186  0.00  0.00    +0.382 N 
ATOM     11  H   UNL     1      35.411 -20.262 -19.231  0.00  0.00    -0.089 HD
ATOM     12  H   UNL     1      36.733 -19.899 -20.177  0.00  0.00    -0.089 HD
ATOM     13  H   UNL     1      35.702 -21.129 -20.623  0.00  0.00    -0.089 HD
ENDBRANCH   2  10
TORSDOF 2
ENDMDL
MODEL 8
REMARK VINA RESULT:      -5.9      3.197      4.781
REMARK  Name = 5530
REMARK  2 active torsions:
REMARK  status: ('A' for Active; 'I' for Inactive)
REMARK    1  A    between atoms: C_1  and  C_4
REMARK    2  A    between atoms: C_2  and  N_10
REMARK                            x       y       z     vdW  Elec       q    Type
REMARK                         _______ _______ _______ _____ _____    ______ ____
ROOT
ATOM      1  C   UNL     1      34.329 -15.235 -22.150  0.00  0.00    +0.000 C 
ATOM      2  C   UNL     1      33.038 -14.961 -21.443  0.00  0.00    -0.061 C 
ATOM      3  C   UNL     1      34.301 -15.154 -20.656  0.00  0.00    -0.019 C 
ENDROOT
BRANCH   1   4
ATOM      4  C   UNL     1      34.533 -16.561 -22.803  0.00  0.00    -0.025 C 
ATOM      5  C   UNL     1      34.514 -16.664 -24.193  0.00  0.00    -0.004 C 
ATOM      6  C   UNL     1      34.741 -17.697 -22.022  0.00  0.00    -0.004 C 
ATOM      7  C   UNL     1      34.705 -17.904 -24.803  0.00  0.00    -0.000 C 
ATOM      8  C   UNL     1      34.932 -18.937 -22.630  0.00  0.00    -0.000 C 
ATOM      9  C   UNL     1      34.914 -19.041 -24.021  0.00  0.00    -0.000 C 
ENDBRANCH   1   4
BRANCH   2  10
ATOM     10  N   UNL     1      32.429 -13.631 -21.531  0.00  0.00    +0.382 N 
ATOM     11  H   UNL     1      32.836 -13.024 -20.820  0.00  0.00    -0.089 HD
ATOM     12  H   UNL     1      31.423 -13.707 -21.379  0.00  0.00    -0.089 HD
ATOM     13  H   UNL     1      32.604 -13.239 -22.456  0.00  0.00    -0.089 HD
ENDBRANCH   2  10
TORSDOF 2
ENDMDL
MODEL 9
REMARK VINA RESULT:      -5.9      3.068      4.852
REMARK  Name = 5530
REMARK  2 active torsions:
REMARK  status: ('A' for Active; 'I' for Inactive)
REMARK    1  A    between atoms: C_1  and  C_4
REMARK    2  A    between atoms: C_2  and  N_10
REMARK                            x       y       z     vdW  Elec       q    Type
REMARK                         _______ _______ _______ _____ _____    ______ ____
ROOT
ATOM      1  C   UNL     1      34.723 -22.211 -19.016  0.00  0.00    +0.000 C 
ATOM      2  C   UNL     1      33.529 -22.627 -18.215  0.00  0.00    -0.061 C 
ATOM      3  C   UNL     1      33.952 -23.432 -19.408  0.00  0.00    -0.019 C 
ENDROOT
BRANCH   1   4
ATOM      4  C   UNL     1      34.636 -20.991 -19.870  0.00  0.00    -0.025 C 
ATOM      5  C   UNL     1      33.391 -20.472 -20.222  0.00  0.00    -0.004 C 
ATOM      6  C   UNL     1      35.802 -20.370 -20.317  0.00  0.00    -0.004 C 
ATOM      7  C   UNL     1      33.311 -19.332 -21.022  0.00  0.00    -0.000 C 
ATOM      8  C   UNL     1      35.724 -19.230 -21.116  0.00  0.00    -0.000 C 
ATOM      9  C   UNL     1      34.478 -18.710 -21.469  0.00  0.00    -0.000 C 
ENDBRANCH   1   4
BRANCH   2  10
ATOM     10  N   UNL     1      33.711 -23.168 -16.866  0.00  0.00    +0.382 N 
ATOM     11  H   UNL     1      34.189 -24.067 -16.923  0.00  0.00    -0.089 HD
ATOM     12  H   UNL     1      32.800 -23.294 -16.424  0.00  0.00    -0.089 HD
ATOM     13  H   UNL     1      34.270 -22.519 -16.313  0.00  0.00    -0.089 HD
ENDBRANCH   2  10
TORSDOF 2
ENDMDL
