MODEL 1
REMARK VINA RESULT:      -7.0      0.000      0.000
REMARK  Name = 446903
REMARK  5 active torsions:
REMARK  status: ('A' for Active; 'I' for Inactive)
REMARK    1  A    between atoms: C_7  and  C_12
REMARK    2  A    between atoms: C_12  and  C_13
REMARK    3  A    between atoms: C_13  and  C_14
REMARK    4  A    between atoms: C_14  and  C_16
REMARK    5  A    between atoms: C_16  and  O_17
REMARK                            x       y       z     vdW  Elec       q    Type
REMARK                         _______ _______ _______ _____ _____    ______ ____
ROOT
ATOM      1  S   UNL     1      35.547 -22.873 -15.362  0.00  0.00    -0.138 S 
ATOM      2  O   UNL     1      36.778 -27.419 -16.118  0.00  0.00    -0.253 OA
ATOM      3  N   UNL     1      35.853 -26.050 -14.456  0.00  0.00    -0.288 N 
ATOM      4  N   UNL     1      37.811 -25.447 -15.389  0.00  0.00    -0.288 N 
ATOM      5  C   UNL     1      36.227 -24.843 -13.744  0.00  0.00    +0.102 C 
ATOM      6  C   UNL     1      37.529 -24.388 -14.440  0.00  0.00    +0.103 C 
ATOM      7  C   UNL     1      35.184 -23.723 -13.803  0.00  0.00    +0.067 C 
ATOM      8  C   UNL     1      37.331 -23.047 -15.143  0.00  0.00    +0.079 C 
ATOM      9  C   UNL     1      36.809 -26.423 -15.409  0.00  0.00    +0.301 C 
ATOM     10  H   UNL     1      35.023 -26.551 -14.290  0.00  0.00    +0.151 HD
ATOM     11  H   UNL     1      38.616 -25.476 -15.955  0.00  0.00    +0.151 HD
ENDROOT
BRANCH   7  12
ATOM     12  C   UNL     1      33.734 -24.168 -13.719  0.00  0.00    +0.013 C 
BRANCH  12  13
ATOM     13  C   UNL     1      32.838 -23.539 -14.786  0.00  0.00    +0.013 C 
BRANCH  13  14
ATOM     14  C   UNL     1      31.382 -23.389 -14.344  0.00  0.00    +0.109 C 
BRANCH  14  16
ATOM     15  O   UNL     1      30.594 -25.664 -14.708  0.00  0.00    -0.250 OA
ATOM     16  C   UNL     1      30.772 -24.716 -13.955  0.00  0.00    +0.314 C 
BRANCH  16  17
ATOM     17  O   UNL     1      30.439 -24.742 -12.638  0.00  0.00    -0.480 OA
ATOM     18  H   UNL     1      31.000 -24.339 -12.005  0.00  0.00    +0.295 HD
ENDBRANCH  16  17
ENDBRANCH  14  16
ENDBRANCH  13  14
ENDBRANCH  12  13
ENDBRANCH   7  12
TORSDOF 5
ENDMDL
MODEL 2
REMARK VINA RESULT:      -7.0      3.120      3.695
REMARK  Name = 446903
REMARK  5 active torsions:
REMARK  status: ('A' for Active; 'I' for Inactive)
REMARK    1  A    between atoms: C_7  and  C_12
REMARK    2  A    between atoms: C_12  and  C_13
REMARK    3  A    between atoms: C_13  and  C_14
REMARK    4  A    between atoms: C_14  and  C_16
REMARK    5  A    between atoms: C_16  and  O_17
REMARK                            x       y       z     vdW  Elec       q    Type
REMARK                         _______ _______ _______ _____ _____    ______ ____
ROOT
ATOM      1  S   UNL     1      36.747 -23.675 -12.936  0.00  0.00    -0.138 S 
ATOM      2  O   UNL     1      40.888 -25.265 -14.693  0.00  0.00    -0.253 OA
ATOM      3  N   UNL     1      38.701 -24.778 -15.381  0.00  0.00    -0.288 N 
ATOM      4  N   UNL     1      39.002 -26.163 -13.632  0.00  0.00    -0.288 N 
ATOM      5  C   UNL     1      37.357 -25.182 -15.015  0.00  0.00    +0.102 C 
ATOM      6  C   UNL     1      37.562 -26.068 -13.765  0.00  0.00    +0.103 C 
ATOM      7  C   UNL     1      36.414 -24.022 -14.683  0.00  0.00    +0.067 C 
ATOM      8  C   UNL     1      36.927 -25.427 -12.533  0.00  0.00    +0.079 C 
ATOM      9  C   UNL     1      39.675 -25.385 -14.580  0.00  0.00    +0.301 C 
ATOM     10  H   UNL     1      38.906 -24.149 -16.109  0.00  0.00    +0.151 HD
ATOM     11  H   UNL     1      39.455 -26.712 -12.951  0.00  0.00    +0.151 HD
ENDROOT
BRANCH   7  12
ATOM     12  C   UNL     1      36.564 -22.783 -15.550  0.00  0.00    +0.013 C 
BRANCH  12  13
ATOM     13  C   UNL     1      35.586 -22.738 -16.726  0.00  0.00    +0.013 C 
BRANCH  13  14
ATOM     14  C   UNL     1      34.182 -23.226 -16.365  0.00  0.00    +0.109 C 
BRANCH  14  16
ATOM     15  O   UNL     1      32.130 -22.647 -17.542  0.00  0.00    -0.250 OA
ATOM     16  C   UNL     1      33.242 -23.158 -17.547  0.00  0.00    +0.314 C 
BRANCH  16  17
ATOM     17  O   UNL     1      33.786 -23.738 -18.648  0.00  0.00    -0.480 OA
ATOM     18  H   UNL     1      34.699 -23.631 -18.831  0.00  0.00    +0.295 HD
ENDBRANCH  16  17
ENDBRANCH  14  16
ENDBRANCH  13  14
ENDBRANCH  12  13
ENDBRANCH   7  12
TORSDOF 5
ENDMDL
MODEL 3
REMARK VINA RESULT:      -6.9      2.069      2.527
REMARK  Name = 446903
REMARK  5 active torsions:
REMARK  status: ('A' for Active; 'I' for Inactive)
REMARK    1  A    between atoms: C_7  and  C_12
REMARK    2  A    between atoms: C_12  and  C_13
REMARK    3  A    between atoms: C_13  and  C_14
REMARK    4  A    between atoms: C_14  and  C_16
REMARK    5  A    between atoms: C_16  and  O_17
REMARK                            x       y       z     vdW  Elec       q    Type
REMARK                         _______ _______ _______ _____ _____    ______ ____
ROOT
ATOM      1  S   UNL     1      36.987 -23.461 -13.115  0.00  0.00    -0.138 S 
ATOM      2  O   UNL     1      40.336 -25.795 -15.584  0.00  0.00    -0.253 OA
ATOM      3  N   UNL     1      38.036 -25.870 -15.141  0.00  0.00    -0.288 N 
ATOM      4  N   UNL     1      39.469 -25.807 -13.407  0.00  0.00    -0.288 N 
ATOM      5  C   UNL     1      37.180 -25.949 -13.972  0.00  0.00    +0.102 C 
ATOM      6  C   UNL     1      38.160 -25.825 -12.785  0.00  0.00    +0.103 C 
ATOM      7  C   UNL     1      36.117 -24.850 -13.889  0.00  0.00    +0.067 C 
ATOM      8  C   UNL     1      37.901 -24.544 -11.995  0.00  0.00    +0.079 C 
ATOM      9  C   UNL     1      39.393 -25.818 -14.804  0.00  0.00    +0.301 C 
ATOM     10  H   UNL     1      37.701 -25.855 -16.066  0.00  0.00    +0.151 HD
ATOM     11  H   UNL     1      40.316 -25.790 -12.904  0.00  0.00    +0.151 HD
ENDROOT
BRANCH   7  12
ATOM     12  C   UNL     1      35.472 -24.457 -15.207  0.00  0.00    +0.013 C 
BRANCH  12  13
ATOM     13  C   UNL     1      34.520 -23.265 -15.091  0.00  0.00    +0.013 C 
BRANCH  13  14
ATOM     14  C   UNL     1      33.047 -23.651 -15.229  0.00  0.00    +0.109 C 
BRANCH  14  16
ATOM     15  O   UNL     1      32.096 -23.380 -13.003  0.00  0.00    -0.250 OA
ATOM     16  C   UNL     1      32.460 -24.112 -13.914  0.00  0.00    +0.314 C 
BRANCH  16  17
ATOM     17  O   UNL     1      32.374 -25.466 -13.856  0.00  0.00    -0.480 OA
ATOM     18  H   UNL     1      31.872 -25.876 -13.179  0.00  0.00    +0.295 HD
ENDBRANCH  16  17
ENDBRANCH  14  16
ENDBRANCH  13  14
ENDBRANCH  12  13
ENDBRANCH   7  12
TORSDOF 5
ENDMDL
MODEL 4
REMARK VINA RESULT:      -6.9      9.372     10.234
REMARK  Name = 446903
REMARK  5 active torsions:
REMARK  status: ('A' for Active; 'I' for Inactive)
REMARK    1  A    between atoms: C_7  and  C_12
REMARK    2  A    between atoms: C_12  and  C_13
REMARK    3  A    between atoms: C_13  and  C_14
REMARK    4  A    between atoms: C_14  and  C_16
REMARK    5  A    between atoms: C_16  and  O_17
REMARK                            x       y       z     vdW  Elec       q    Type
REMARK                         _______ _______ _______ _____ _____    ______ ____
ROOT
ATOM      1  S   UNL     1      33.589 -17.405 -21.100  0.00  0.00    -0.138 S 
ATOM      2  O   UNL     1      34.209 -17.509 -25.829  0.00  0.00    -0.253 OA
ATOM      3  N   UNL     1      35.369 -17.964 -23.844  0.00  0.00    -0.288 N 
ATOM      4  N   UNL     1      34.402 -15.946 -24.094  0.00  0.00    -0.288 N 
ATOM      5  C   UNL     1      35.729 -17.247 -22.636  0.00  0.00    +0.102 C 
ATOM      6  C   UNL     1      34.998 -15.893 -22.774  0.00  0.00    +0.103 C 
ATOM      7  C   UNL     1      35.304 -17.939 -21.337  0.00  0.00    +0.067 C 
ATOM      8  C   UNL     1      33.937 -15.732 -21.688  0.00  0.00    +0.079 C 
ATOM      9  C   UNL     1      34.609 -17.180 -24.720  0.00  0.00    +0.301 C 
ATOM     10  H   UNL     1      35.629 -18.895 -24.028  0.00  0.00    +0.151 HD
ATOM     11  H   UNL     1      33.908 -15.200 -24.504  0.00  0.00    +0.151 HD
ENDROOT
BRANCH   7  12
ATOM     12  C   UNL     1      35.438 -19.452 -21.323  0.00  0.00    +0.013 C 
BRANCH  12  13
ATOM     13  C   UNL     1      34.311 -20.159 -20.569  0.00  0.00    +0.013 C 
BRANCH  13  14
ATOM     14  C   UNL     1      34.802 -21.288 -19.663  0.00  0.00    +0.109 C 
BRANCH  14  16
ATOM     15  O   UNL     1      32.578 -21.893 -18.878  0.00  0.00    -0.250 OA
ATOM     16  C   UNL     1      33.683 -22.230 -19.279  0.00  0.00    +0.314 C 
BRANCH  16  17
ATOM     17  O   UNL     1      34.051 -23.528 -19.439  0.00  0.00    -0.480 OA
ATOM     18  H   UNL     1      34.497 -23.796 -20.218  0.00  0.00    +0.295 HD
ENDBRANCH  16  17
ENDBRANCH  14  16
ENDBRANCH  13  14
ENDBRANCH  12  13
ENDBRANCH   7  12
TORSDOF 5
ENDMDL
MODEL 5
REMARK VINA RESULT:      -6.8      2.296      2.840
REMARK  Name = 446903
REMARK  5 active torsions:
REMARK  status: ('A' for Active; 'I' for Inactive)
REMARK    1  A    between atoms: C_7  and  C_12
REMARK    2  A    between atoms: C_12  and  C_13
REMARK    3  A    between atoms: C_13  and  C_14
REMARK    4  A    between atoms: C_14  and  C_16
REMARK    5  A    between atoms: C_16  and  O_17
REMARK                            x       y       z     vdW  Elec       q    Type
REMARK                         _______ _______ _______ _____ _____    ______ ____
ROOT
ATOM      1  S   UNL     1      36.025 -25.300 -15.192  0.00  0.00    -0.138 S 
ATOM      2  O   UNL     1      35.226 -24.849 -10.511  0.00  0.00    -0.253 OA
ATOM      3  N   UNL     1      35.691 -23.541 -12.399  0.00  0.00    -0.288 N 
ATOM      4  N   UNL     1      37.049 -25.271 -11.920  0.00  0.00    -0.288 N 
ATOM      5  C   UNL     1      36.721 -23.474 -13.418  0.00  0.00    +0.102 C 
ATOM      6  C   UNL     1      37.605 -24.709 -13.135  0.00  0.00    +0.103 C 
ATOM      7  C   UNL     1      36.195 -23.528 -14.856  0.00  0.00    +0.067 C 
ATOM      8  C   UNL     1      37.539 -25.704 -14.292  0.00  0.00    +0.079 C 
ATOM      9  C   UNL     1      35.906 -24.587 -11.494  0.00  0.00    +0.301 C 
ATOM     10  H   UNL     1      34.928 -22.921 -12.348  0.00  0.00    +0.151 HD
ATOM     11  H   UNL     1      37.433 -26.046 -11.448  0.00  0.00    +0.151 HD
ENDROOT
BRANCH   7  12
ATOM     12  C   UNL     1      34.902 -22.771 -15.112  0.00  0.00    +0.013 C 
BRANCH  12  13
ATOM     13  C   UNL     1      33.753 -23.665 -15.581  0.00  0.00    +0.013 C 
BRANCH  13  14
ATOM     14  C   UNL     1      32.478 -23.497 -14.754  0.00  0.00    +0.109 C 
BRANCH  14  16
ATOM     15  O   UNL     1      31.221 -25.502 -14.179  0.00  0.00    -0.250 OA
ATOM     16  C   UNL     1      32.154 -24.743 -13.960  0.00  0.00    +0.314 C 
BRANCH  16  17
ATOM     17  O   UNL     1      33.044 -24.933 -12.951  0.00  0.00    -0.480 OA
ATOM     18  H   UNL     1      33.689 -25.610 -13.016  0.00  0.00    +0.295 HD
ENDBRANCH  16  17
ENDBRANCH  14  16
ENDBRANCH  13  14
ENDBRANCH  12  13
ENDBRANCH   7  12
TORSDOF 5
ENDMDL
MODEL 6
REMARK VINA RESULT:      -6.8     10.341     11.168
REMARK  Name = 446903
REMARK  5 active torsions:
REMARK  status: ('A' for Active; 'I' for Inactive)
REMARK    1  A    between atoms: C_7  and  C_12
REMARK    2  A    between atoms: C_12  and  C_13
REMARK    3  A    between atoms: C_13  and  C_14
REMARK    4  A    between atoms: C_14  and  C_16
REMARK    5  A    between atoms: C_16  and  O_17
REMARK                            x       y       z     vdW  Elec       q    Type
REMARK                         _______ _______ _______ _____ _____    ______ ____
ROOT
ATOM      1  S   UNL     1      32.997 -16.241 -21.198  0.00  0.00    -0.138 S 
ATOM      2  O   UNL     1      33.777 -16.835 -25.867  0.00  0.00    -0.253 OA
ATOM      3  N   UNL     1      34.943 -16.758 -23.835  0.00  0.00    -0.288 N 
ATOM      4  N   UNL     1      33.573 -15.051 -24.361  0.00  0.00    -0.288 N 
ATOM      5  C   UNL     1      35.101 -15.825 -22.735  0.00  0.00    +0.102 C 
ATOM      6  C   UNL     1      34.100 -14.694 -23.059  0.00  0.00    +0.103 C 
ATOM      7  C   UNL     1      34.793 -16.415 -21.355  0.00  0.00    +0.067 C 
ATOM      8  C   UNL     1      32.994 -14.626 -22.008  0.00  0.00    +0.079 C 
ATOM      9  C   UNL     1      34.061 -16.282 -24.812  0.00  0.00    +0.301 C 
ATOM     10  H   UNL     1      35.403 -17.626 -23.889  0.00  0.00    +0.151 HD
ATOM     11  H   UNL     1      32.942 -14.491 -24.870  0.00  0.00    +0.151 HD
ENDROOT
BRANCH   7  12
ATOM     12  C   UNL     1      35.250 -17.847 -21.134  0.00  0.00    +0.013 C 
BRANCH  12  13
ATOM     13  C   UNL     1      34.113 -18.868 -21.197  0.00  0.00    +0.013 C 
BRANCH  13  14
ATOM     14  C   UNL     1      34.456 -20.198 -20.524  0.00  0.00    +0.109 C 
BRANCH  14  16
ATOM     15  O   UNL     1      33.134 -22.104 -19.782  0.00  0.00    -0.250 OA
ATOM     16  C   UNL     1      33.220 -20.906 -20.017  0.00  0.00    +0.314 C 
BRANCH  16  17
ATOM     17  O   UNL     1      32.188 -20.040 -19.843  0.00  0.00    -0.480 OA
ATOM     18  H   UNL     1      31.724 -19.709 -20.586  0.00  0.00    +0.295 HD
ENDBRANCH  16  17
ENDBRANCH  14  16
ENDBRANCH  13  14
ENDBRANCH  12  13
ENDBRANCH   7  12
TORSDOF 5
ENDMDL
MODEL 7
REMARK VINA RESULT:      -6.8      3.321      4.005
REMARK  Name = 446903
REMARK  5 active torsions:
REMARK  status: ('A' for Active; 'I' for Inactive)
REMARK    1  A    between atoms: C_7  and  C_12
REMARK    2  A    between atoms: C_12  and  C_13
REMARK    3  A    between atoms: C_13  and  C_14
REMARK    4  A    between atoms: C_14  and  C_16
REMARK    5  A    between atoms: C_16  and  O_17
REMARK                            x       y       z     vdW  Elec       q    Type
REMARK                         _______ _______ _______ _____ _____    ______ ____
ROOT
ATOM      1  S   UNL     1      36.449 -25.517 -14.486  0.00  0.00    -0.138 S 
ATOM      2  O   UNL     1      36.000 -24.311  -9.893  0.00  0.00    -0.253 OA
ATOM      3  N   UNL     1      35.371 -23.571 -12.025  0.00  0.00    -0.288 N 
ATOM      4  N   UNL     1      37.546 -23.984 -11.622  0.00  0.00    -0.288 N 
ATOM      5  C   UNL     1      36.034 -23.215 -13.265  0.00  0.00    +0.102 C 
ATOM      6  C   UNL     1      37.515 -23.576 -13.013  0.00  0.00    +0.103 C 
ATOM      7  C   UNL     1      35.518 -23.963 -14.498  0.00  0.00    +0.067 C 
ATOM      8  C   UNL     1      37.967 -24.704 -13.937  0.00  0.00    +0.079 C 
ATOM      9  C   UNL     1      36.273 -23.996 -11.043  0.00  0.00    +0.301 C 
ATOM     10  H   UNL     1      34.398 -23.519 -11.889  0.00  0.00    +0.151 HD
ATOM     11  H   UNL     1      38.370 -24.226 -11.140  0.00  0.00    +0.151 HD
ENDROOT
BRANCH   7  12
ATOM     12  C   UNL     1      34.017 -24.197 -14.545  0.00  0.00    +0.013 C 
BRANCH  12  13
ATOM     13  C   UNL     1      33.318 -23.455 -15.685  0.00  0.00    +0.013 C 
BRANCH  13  14
ATOM     14  C   UNL     1      34.250 -23.116 -16.849  0.00  0.00    +0.109 C 
BRANCH  14  16
ATOM     15  O   UNL     1      33.932 -23.494 -19.234  0.00  0.00    -0.250 OA
ATOM     16  C   UNL     1      33.510 -23.069 -18.167  0.00  0.00    +0.314 C 
BRANCH  16  17
ATOM     17  O   UNL     1      32.289 -22.490 -18.030  0.00  0.00    -0.480 OA
ATOM     18  H   UNL     1      31.957 -22.293 -17.176  0.00  0.00    +0.295 HD
ENDBRANCH  16  17
ENDBRANCH  14  16
ENDBRANCH  13  14
ENDBRANCH  12  13
ENDBRANCH   7  12
TORSDOF 5
ENDMDL
MODEL 8
REMARK VINA RESULT:      -6.7     12.348     13.330
REMARK  Name = 446903
REMARK  5 active torsions:
REMARK  status: ('A' for Active; 'I' for Inactive)
REMARK    1  A    between atoms: C_7  and  C_12
REMARK    2  A    between atoms: C_12  and  C_13
REMARK    3  A    between atoms: C_13  and  C_14
REMARK    4  A    between atoms: C_14  and  C_16
REMARK    5  A    between atoms: C_16  and  O_17
REMARK                            x       y       z     vdW  Elec       q    Type
REMARK                         _______ _______ _______ _____ _____    ______ ____
ROOT
ATOM      1  S   UNL     1      32.226 -13.613 -22.076  0.00  0.00    -0.138 S 
ATOM      2  O   UNL     1      32.832 -15.633 -26.355  0.00  0.00    -0.253 OA
ATOM      3  N   UNL     1      33.861 -15.510 -24.253  0.00  0.00    -0.288 N 
ATOM      4  N   UNL     1      33.342 -13.595 -25.317  0.00  0.00    -0.288 N 
ATOM      5  C   UNL     1      34.358 -14.470 -23.372  0.00  0.00    +0.102 C 
ATOM      6  C   UNL     1      33.930 -13.158 -24.067  0.00  0.00    +0.103 C 
ATOM      7  C   UNL     1      33.791 -14.517 -21.950  0.00  0.00    +0.067 C 
ATOM      8  C   UNL     1      32.921 -12.393 -23.213  0.00  0.00    +0.079 C 
ATOM      9  C   UNL     1      33.287 -14.989 -25.419  0.00  0.00    +0.301 C 
ATOM     10  H   UNL     1      33.919 -16.471 -24.054  0.00  0.00    +0.151 HD
ATOM     11  H   UNL     1      33.018 -12.981 -26.016  0.00  0.00    +0.151 HD
ENDROOT
BRANCH   7  12
ATOM     12  C   UNL     1      33.604 -15.905 -21.362  0.00  0.00    +0.013 C 
BRANCH  12  13
ATOM     13  C   UNL     1      34.916 -16.581 -20.961  0.00  0.00    +0.013 C 
BRANCH  13  14
ATOM     14  C   UNL     1      34.915 -18.092 -21.195  0.00  0.00    +0.109 C 
BRANCH  14  16
ATOM     15  O   UNL     1      34.783 -19.405 -23.241  0.00  0.00    -0.250 OA
ATOM     16  C   UNL     1      35.223 -18.439 -22.634  0.00  0.00    +0.314 C 
BRANCH  16  17
ATOM     17  O   UNL     1      36.061 -17.529 -23.195  0.00  0.00    -0.480 OA
ATOM     18  H   UNL     1      36.984 -17.586 -23.042  0.00  0.00    +0.295 HD
ENDBRANCH  16  17
ENDBRANCH  14  16
ENDBRANCH  13  14
ENDBRANCH  12  13
ENDBRANCH   7  12
TORSDOF 5
ENDMDL
MODEL 9
REMARK VINA RESULT:      -6.7      3.936      4.493
REMARK  Name = 446903
REMARK  5 active torsions:
REMARK  status: ('A' for Active; 'I' for Inactive)
REMARK    1  A    between atoms: C_7  and  C_12
REMARK    2  A    between atoms: C_12  and  C_13
REMARK    3  A    between atoms: C_13  and  C_14
REMARK    4  A    between atoms: C_14  and  C_16
REMARK    5  A    between atoms: C_16  and  O_17
REMARK                            x       y       z     vdW  Elec       q    Type
REMARK                         _______ _______ _______ _____ _____    ______ ____
ROOT
ATOM      1  S   UNL     1      36.976 -23.506 -13.145  0.00  0.00    -0.138 S 
ATOM      2  O   UNL     1      40.351 -25.837 -15.582  0.00  0.00    -0.253 OA
ATOM      3  N   UNL     1      38.055 -25.940 -15.125  0.00  0.00    -0.288 N 
ATOM      4  N   UNL     1      39.497 -25.816 -13.401  0.00  0.00    -0.288 N 
ATOM      5  C   UNL     1      37.207 -26.008 -13.950  0.00  0.00    +0.102 C 
ATOM      6  C   UNL     1      38.191 -25.842 -12.770  0.00  0.00    +0.103 C 
ATOM      7  C   UNL     1      36.126 -24.925 -13.884  0.00  0.00    +0.067 C 
ATOM      8  C   UNL     1      37.914 -24.549 -12.007  0.00  0.00    +0.079 C 
ATOM      9  C   UNL     1      39.413 -25.858 -14.796  0.00  0.00    +0.301 C 
ATOM     10  H   UNL     1      37.715 -25.951 -16.048  0.00  0.00    +0.151 HD
ATOM     11  H   UNL     1      40.345 -25.774 -12.903  0.00  0.00    +0.151 HD
ENDROOT
BRANCH   7  12
ATOM     12  C   UNL     1      35.467 -24.571 -15.206  0.00  0.00    +0.013 C 
BRANCH  12  13
ATOM     13  C   UNL     1      35.215 -23.073 -15.383  0.00  0.00    +0.013 C 
BRANCH  13  14
ATOM     14  C   UNL     1      35.473 -22.579 -16.806  0.00  0.00    +0.109 C 
BRANCH  14  16
ATOM     15  O   UNL     1      37.859 -22.384 -16.359  0.00  0.00    -0.250 OA
ATOM     16  C   UNL     1      36.863 -22.003 -16.959  0.00  0.00    +0.314 C 
BRANCH  16  17
ATOM     17  O   UNL     1      36.884 -20.991 -17.865  0.00  0.00    -0.480 OA
ATOM     18  H   UNL     1      37.422 -20.239 -17.714  0.00  0.00    +0.295 HD
ENDBRANCH  16  17
ENDBRANCH  14  16
ENDBRANCH  13  14
ENDBRANCH  12  13
ENDBRANCH   7  12
TORSDOF 5
ENDMDL
