MODEL 1
REMARK VINA RESULT:      -7.3      0.000      0.000
REMARK  Name = 44224276
REMARK  6 active torsions:
REMARK  status: ('A' for Active; 'I' for Inactive)
REMARK    1  A    between atoms: C_3  and  P_17
REMARK    2  A    between atoms: C_5  and  C_14
REMARK    3  A    between atoms: P_17  and  C_19
REMARK    4  A    between atoms: P_17  and  O_30
REMARK    5  A    between atoms: C_23  and  C_26
REMARK    6  A    between atoms: C_27  and  C_29
REMARK                            x       y       z     vdW  Elec       q    Type
REMARK                         _______ _______ _______ _____ _____    ______ ____
ROOT
ATOM      1 CL   UNL     1      36.728  -5.000 -27.726  0.00  0.00    -0.082 Cl
ATOM      2  N   UNL     1      31.509  -5.518 -25.152  0.00  0.00    -0.349 N 
ATOM      3  C   UNL     1      33.132  -6.708 -24.216  0.00  0.00    +0.079 A 
ATOM      4  C   UNL     1      33.680  -6.002 -25.323  0.00  0.00    +0.023 A 
ATOM      5  C   UNL     1      31.796  -6.390 -24.136  0.00  0.00    +0.116 A 
ATOM      6  C   UNL     1      32.641  -5.263 -25.892  0.00  0.00    +0.057 A 
ATOM      7  C   UNL     1      34.965  -5.920 -25.897  0.00  0.00    +0.013 C 
ATOM      8  C   UNL     1      32.822  -4.444 -27.012  0.00  0.00    +0.018 C 
ATOM      9  C   UNL     1      35.161  -5.104 -27.017  0.00  0.00    +0.058 C 
ATOM     10  C   UNL     1      34.105  -4.378 -27.564  0.00  0.00    +0.013 C 
ATOM     11  H   UNL     1      30.621  -5.130 -25.328  0.00  0.00    +0.166 HD
ENDROOT
BRANCH   5  14
ATOM     12  O   UNL     1      30.332  -6.101 -22.314  0.00  0.00    -0.269 OA
ATOM     13  N   UNL     1      30.401  -8.187 -23.264  0.00  0.00    -0.324 N 
ATOM     14  C   UNL     1      30.827  -6.851 -23.192  0.00  0.00    +0.259 C 
ATOM     15  H   UNL     1      29.734  -8.525 -22.624  0.00  0.00    +0.145 HD
ATOM     16  H   UNL     1      30.769  -8.785 -23.954  0.00  0.00    +0.145 HD
ENDBRANCH   5  14
BRANCH   3  17
ATOM     17  P   UNL     1      34.032  -7.817 -23.118  0.00  0.00    +0.267 P 
ATOM     18  O   UNL     1      35.360  -7.283 -22.666  0.00  0.00    -0.280 OA
BRANCH  17  19
ATOM     19  C   UNL     1      34.100  -9.393 -23.919  0.00  0.00    +0.058 C 
ATOM     20  C   UNL     1      34.775  -9.531 -25.131  0.00  0.00    +0.001 C 
ATOM     21  C   UNL     1      33.477 -10.498 -23.338  0.00  0.00    +0.005 C 
ATOM     22  C   UNL     1      34.828 -10.773 -25.764  0.00  0.00    -0.022 C 
ATOM     23  C   UNL     1      33.530 -11.740 -23.970  0.00  0.00    +0.001 C 
ATOM     24  C   UNL     1      34.205 -11.878 -25.183  0.00  0.00    -0.004 C 
ATOM     25  C   UNL     1      35.550 -10.919 -27.060  0.00  0.00    +0.031 C 
BRANCH  23  26
ATOM     26  C   UNL     1      32.881 -12.892 -23.365  0.00  0.00    +0.011 C 
ATOM     27  C   UNL     1      33.362 -13.613 -22.327  0.00  0.00    +0.078 C 
BRANCH  27  29
ATOM     28  N   UNL     1      32.095 -15.651 -21.372  0.00  0.00    -0.191 NA
ATOM     29  C   UNL     1      32.663 -14.735 -21.803  0.00  0.00    +0.101 C 
ENDBRANCH  27  29
ENDBRANCH  23  26
ENDBRANCH  17  19
BRANCH  17  30
ATOM     30  O   UNL     1      33.029  -8.028 -21.856  0.00  0.00    -0.305 OA
ATOM     31  C   UNL     1      33.294  -7.351 -20.640  0.00  0.00    +0.182 C 
ENDBRANCH  17  30
ENDBRANCH   3  17
TORSDOF 6
ENDMDL
MODEL 2
REMARK VINA RESULT:      -6.9      4.585      8.467
REMARK  Name = 44224276
REMARK  6 active torsions:
REMARK  status: ('A' for Active; 'I' for Inactive)
REMARK    1  A    between atoms: C_3  and  P_17
REMARK    2  A    between atoms: C_5  and  C_14
REMARK    3  A    between atoms: P_17  and  C_19
REMARK    4  A    between atoms: P_17  and  O_30
REMARK    5  A    between atoms: C_23  and  C_26
REMARK    6  A    between atoms: C_27  and  C_29
REMARK                            x       y       z     vdW  Elec       q    Type
REMARK                         _______ _______ _______ _____ _____    ______ ____
ROOT
ATOM      1 CL   UNL     1      35.533 -17.965 -20.650  0.00  0.00    -0.082 Cl
ATOM      2  N   UNL     1      34.185 -15.972 -25.974  0.00  0.00    -0.349 N 
ATOM      3  C   UNL     1      33.517 -14.679 -24.298  0.00  0.00    +0.079 A 
ATOM      4  C   UNL     1      34.183 -15.810 -23.748  0.00  0.00    +0.023 A 
ATOM      5  C   UNL     1      33.534 -14.807 -25.667  0.00  0.00    +0.116 A 
ATOM      6  C   UNL     1      34.593 -16.604 -24.821  0.00  0.00    +0.057 A 
ATOM      7  C   UNL     1      34.478 -16.235 -22.438  0.00  0.00    +0.013 C 
ATOM      8  C   UNL     1      35.285 -17.808 -24.648  0.00  0.00    +0.018 C 
ATOM      9  C   UNL     1      35.170 -17.437 -22.250  0.00  0.00    +0.058 C 
ATOM     10  C   UNL     1      35.566 -18.210 -23.339  0.00  0.00    +0.013 C 
ATOM     11  H   UNL     1      34.339 -16.308 -26.886  0.00  0.00    +0.166 HD
ENDROOT
BRANCH   5  14
ATOM     12  O   UNL     1      33.687 -13.428 -27.571  0.00  0.00    -0.269 OA
ATOM     13  N   UNL     1      31.622 -13.614 -26.592  0.00  0.00    -0.324 N 
ATOM     14  C   UNL     1      32.990 -13.923 -26.650  0.00  0.00    +0.259 C 
ATOM     15  H   UNL     1      31.226 -13.008 -27.259  0.00  0.00    +0.145 HD
ATOM     16  H   UNL     1      31.058 -14.003 -25.885  0.00  0.00    +0.145 HD
ENDBRANCH   5  14
BRANCH   3  17
ATOM     17  P   UNL     1      32.784 -13.325 -23.362  0.00  0.00    +0.267 P 
ATOM     18  O   UNL     1      31.283 -13.314 -23.378  0.00  0.00    -0.280 OA
BRANCH  17  19
ATOM     19  C   UNL     1      33.544 -11.833 -23.933  0.00  0.00    +0.058 C 
ATOM     20  C   UNL     1      34.409 -11.865 -25.026  0.00  0.00    +0.001 C 
ATOM     21  C   UNL     1      33.276 -10.624 -23.291  0.00  0.00    +0.005 C 
ATOM     22  C   UNL     1      35.009 -10.689 -25.477  0.00  0.00    -0.022 C 
ATOM     23  C   UNL     1      33.876  -9.448 -23.741  0.00  0.00    +0.001 C 
ATOM     24  C   UNL     1      34.742  -9.480 -24.834  0.00  0.00    -0.004 C 
ATOM     25  C   UNL     1      35.935 -10.724 -26.645  0.00  0.00    +0.031 C 
BRANCH  23  26
ATOM     26  C   UNL     1      33.597  -8.187 -23.071  0.00  0.00    +0.011 C 
ATOM     27  C   UNL     1      32.454  -7.876 -22.419  0.00  0.00    +0.078 C 
BRANCH  27  29
ATOM     28  N   UNL     1      32.109  -5.580 -21.288  0.00  0.00    -0.191 NA
ATOM     29  C   UNL     1      32.263  -6.612 -21.798  0.00  0.00    +0.101 C 
ENDBRANCH  27  29
ENDBRANCH  23  26
ENDBRANCH  17  19
BRANCH  17  30
ATOM     30  O   UNL     1      33.349 -13.534 -21.852  0.00  0.00    -0.305 OA
ATOM     31  C   UNL     1      32.447 -13.468 -20.761  0.00  0.00    +0.182 C 
ENDBRANCH  17  30
ENDBRANCH   3  17
TORSDOF 6
ENDMDL
MODEL 3
REMARK VINA RESULT:      -6.9      3.596      7.554
REMARK  Name = 44224276
REMARK  6 active torsions:
REMARK  status: ('A' for Active; 'I' for Inactive)
REMARK    1  A    between atoms: C_3  and  P_17
REMARK    2  A    between atoms: C_5  and  C_14
REMARK    3  A    between atoms: P_17  and  C_19
REMARK    4  A    between atoms: P_17  and  O_30
REMARK    5  A    between atoms: C_23  and  C_26
REMARK    6  A    between atoms: C_27  and  C_29
REMARK                            x       y       z     vdW  Elec       q    Type
REMARK                         _______ _______ _______ _____ _____    ______ ____
ROOT
ATOM      1 CL   UNL     1      32.237 -13.126 -27.948  0.00  0.00    -0.082 Cl
ATOM      2  N   UNL     1      33.847 -15.566 -22.889  0.00  0.00    -0.349 N 
ATOM      3  C   UNL     1      32.801 -13.617 -22.693  0.00  0.00    +0.079 A 
ATOM      4  C   UNL     1      32.894 -13.935 -24.077  0.00  0.00    +0.023 A 
ATOM      5  C   UNL     1      33.395 -14.638 -21.988  0.00  0.00    +0.116 A 
ATOM      6  C   UNL     1      33.554 -15.162 -24.172  0.00  0.00    +0.057 A 
ATOM      7  C   UNL     1      32.479 -13.294 -25.262  0.00  0.00    +0.013 C 
ATOM      8  C   UNL     1      33.820 -15.783 -25.397  0.00  0.00    +0.018 C 
ATOM      9  C   UNL     1      32.739 -13.904 -26.495  0.00  0.00    +0.058 C 
ATOM     10  C   UNL     1      33.400 -15.129 -26.559  0.00  0.00    +0.013 C 
ATOM     11  H   UNL     1      34.313 -16.400 -22.653  0.00  0.00    +0.166 HD
ENDROOT
BRANCH   5  14
ATOM     12  O   UNL     1      34.664 -14.660 -20.004  0.00  0.00    -0.269 OA
ATOM     13  N   UNL     1      32.408 -15.013 -19.793  0.00  0.00    -0.324 N 
ATOM     14  C   UNL     1      33.549 -14.770 -20.573  0.00  0.00    +0.259 C 
ATOM     15  H   UNL     1      32.491 -15.107 -18.817  0.00  0.00    +0.145 HD
ATOM     16  H   UNL     1      31.525 -15.090 -20.221  0.00  0.00    +0.145 HD
ENDBRANCH   5  14
BRANCH   3  17
ATOM     17  P   UNL     1      32.040 -12.141 -21.996  0.00  0.00    +0.267 P 
ATOM     18  O   UNL     1      30.539 -12.146 -22.048  0.00  0.00    -0.280 OA
BRANCH  17  19
ATOM     19  C   UNL     1      32.806 -10.749 -22.773  0.00  0.00    +0.058 C 
ATOM     20  C   UNL     1      33.862 -10.941 -23.663  0.00  0.00    +0.001 C 
ATOM     21  C   UNL     1      32.353  -9.459 -22.496  0.00  0.00    +0.005 C 
ATOM     22  C   UNL     1      34.467  -9.844 -24.276  0.00  0.00    -0.022 C 
ATOM     23  C   UNL     1      32.958  -8.361 -23.109  0.00  0.00    +0.001 C 
ATOM     24  C   UNL     1      34.014  -8.553 -23.999  0.00  0.00    -0.004 C 
ATOM     25  C   UNL     1      35.596 -10.050 -25.227  0.00  0.00    +0.031 C 
BRANCH  23  26
ATOM     26  C   UNL     1      32.486  -7.016 -22.820  0.00  0.00    +0.011 C 
ATOM     27  C   UNL     1      31.231  -6.559 -23.030  0.00  0.00    +0.078 C 
BRANCH  27  29
ATOM     28  N   UNL     1      30.551  -4.129 -22.480  0.00  0.00    -0.191 NA
ATOM     29  C   UNL     1      30.858  -5.221 -22.726  0.00  0.00    +0.101 C 
ENDBRANCH  27  29
ENDBRANCH  23  26
ENDBRANCH  17  19
BRANCH  17  30
ATOM     30  O   UNL     1      32.568 -12.109 -20.459  0.00  0.00    -0.305 OA
ATOM     31  C   UNL     1      31.770 -11.490 -19.465  0.00  0.00    +0.182 C 
ENDBRANCH  17  30
ENDBRANCH   3  17
TORSDOF 6
ENDMDL
MODEL 4
REMARK VINA RESULT:      -6.9      3.677      6.941
REMARK  Name = 44224276
REMARK  6 active torsions:
REMARK  status: ('A' for Active; 'I' for Inactive)
REMARK    1  A    between atoms: C_3  and  P_17
REMARK    2  A    between atoms: C_5  and  C_14
REMARK    3  A    between atoms: P_17  and  C_19
REMARK    4  A    between atoms: P_17  and  O_30
REMARK    5  A    between atoms: C_23  and  C_26
REMARK    6  A    between atoms: C_27  and  C_29
REMARK                            x       y       z     vdW  Elec       q    Type
REMARK                         _______ _______ _______ _____ _____    ______ ____
ROOT
ATOM      1 CL   UNL     1      35.055  -7.915 -23.454  0.00  0.00    -0.082 Cl
ATOM      2  N   UNL     1      34.286 -12.918 -26.372  0.00  0.00    -0.349 N 
ATOM      3  C   UNL     1      33.611 -12.959 -24.257  0.00  0.00    +0.079 A 
ATOM      4  C   UNL     1      34.132 -11.663 -24.533  0.00  0.00    +0.023 A 
ATOM      5  C   UNL     1      33.719 -13.707 -25.407  0.00  0.00    +0.116 A 
ATOM      6  C   UNL     1      34.548 -11.665 -25.866  0.00  0.00    +0.057 A 
ATOM      7  C   UNL     1      34.290 -10.487 -23.774  0.00  0.00    +0.013 C 
ATOM      8  C   UNL     1      35.116 -10.543 -26.480  0.00  0.00    +0.018 C 
ATOM      9  C   UNL     1      34.857  -9.357 -24.376  0.00  0.00    +0.058 C 
ATOM     10  C   UNL     1      35.263  -9.387 -25.708  0.00  0.00    +0.013 C 
ATOM     11  H   UNL     1      34.479 -13.205 -27.294  0.00  0.00    +0.166 HD
ENDROOT
BRANCH   5  14
ATOM     12  O   UNL     1      32.542 -15.403 -26.540  0.00  0.00    -0.269 OA
ATOM     13  N   UNL     1      33.872 -16.059 -24.791  0.00  0.00    -0.324 N 
ATOM     14  C   UNL     1      33.333 -15.066 -25.623  0.00  0.00    +0.259 C 
ATOM     15  H   UNL     1      33.620 -17.001 -24.923  0.00  0.00    +0.145 HD
ATOM     16  H   UNL     1      34.502 -15.814 -24.076  0.00  0.00    +0.145 HD
ENDBRANCH   5  14
BRANCH   3  17
ATOM     17  P   UNL     1      32.932 -13.513 -22.684  0.00  0.00    +0.267 P 
ATOM     18  O   UNL     1      31.978 -14.667 -22.803  0.00  0.00    -0.280 OA
BRANCH  17  19
ATOM     19  C   UNL     1      32.273 -12.085 -21.874  0.00  0.00    +0.058 C 
ATOM     20  C   UNL     1      32.060 -12.100 -20.496  0.00  0.00    +0.001 C 
ATOM     21  C   UNL     1      31.966 -10.944 -22.615  0.00  0.00    +0.005 C 
ATOM     22  C   UNL     1      31.539 -10.975 -19.858  0.00  0.00    -0.022 C 
ATOM     23  C   UNL     1      31.445  -9.818 -21.977  0.00  0.00    +0.001 C 
ATOM     24  C   UNL     1      31.232  -9.833 -20.599  0.00  0.00    -0.004 C 
ATOM     25  C   UNL     1      31.311 -10.992 -18.385  0.00  0.00    +0.031 C 
BRANCH  23  26
ATOM     26  C   UNL     1      31.125  -8.628 -22.749  0.00  0.00    +0.011 C 
ATOM     27  C   UNL     1      31.462  -7.360 -22.419  0.00  0.00    +0.078 C 
BRANCH  27  29
ATOM     28  N   UNL     1      30.804  -5.346 -23.896  0.00  0.00    -0.191 NA
ATOM     29  C   UNL     1      31.098  -6.251 -23.231  0.00  0.00    +0.101 C 
ENDBRANCH  27  29
ENDBRANCH  23  26
ENDBRANCH  17  19
BRANCH  17  30
ATOM     30  O   UNL     1      34.240 -13.927 -21.810  0.00  0.00    -0.305 OA
ATOM     31  C   UNL     1      34.220 -15.130 -21.062  0.00  0.00    +0.182 C 
ENDBRANCH  17  30
ENDBRANCH   3  17
TORSDOF 6
ENDMDL
MODEL 5
REMARK VINA RESULT:      -6.6     13.204     18.063
REMARK  Name = 44224276
REMARK  6 active torsions:
REMARK  status: ('A' for Active; 'I' for Inactive)
REMARK    1  A    between atoms: C_3  and  P_17
REMARK    2  A    between atoms: C_5  and  C_14
REMARK    3  A    between atoms: P_17  and  C_19
REMARK    4  A    between atoms: P_17  and  O_30
REMARK    5  A    between atoms: C_23  and  C_26
REMARK    6  A    between atoms: C_27  and  C_29
REMARK                            x       y       z     vdW  Elec       q    Type
REMARK                         _______ _______ _______ _____ _____    ______ ____
ROOT
ATOM      1 CL   UNL     1      39.587 -25.351 -15.394  0.00  0.00    -0.082 Cl
ATOM      2  N   UNL     1      34.556 -24.576 -12.526  0.00  0.00    -0.349 N 
ATOM      3  C   UNL     1      34.448 -24.211 -14.713  0.00  0.00    +0.079 A 
ATOM      4  C   UNL     1      35.782 -24.585 -14.390  0.00  0.00    +0.023 A 
ATOM      5  C   UNL     1      33.718 -24.214 -13.547  0.00  0.00    +0.116 A 
ATOM      6  C   UNL     1      35.822 -24.809 -13.012  0.00  0.00    +0.057 A 
ATOM      7  C   UNL     1      36.963 -24.755 -15.140  0.00  0.00    +0.013 C 
ATOM      8  C   UNL     1      36.989 -25.195 -12.344  0.00  0.00    +0.018 C 
ATOM      9  C   UNL     1      38.138 -25.142 -14.485  0.00  0.00    +0.058 C 
ATOM     10  C   UNL     1      38.149 -25.358 -13.108  0.00  0.00    +0.013 C 
ATOM     11  H   UNL     1      34.291 -24.657 -11.582  0.00  0.00    +0.166 HD
ENDROOT
BRANCH   5  14
ATOM     12  O   UNL     1      31.454 -24.796 -13.257  0.00  0.00    -0.269 OA
ATOM     13  N   UNL     1      31.952 -22.558 -13.279  0.00  0.00    -0.324 N 
ATOM     14  C   UNL     1      32.334 -23.906 -13.363  0.00  0.00    +0.259 C 
ATOM     15  H   UNL     1      31.005 -22.323 -13.152  0.00  0.00    +0.145 HD
ATOM     16  H   UNL     1      32.630 -21.848 -13.348  0.00  0.00    +0.145 HD
ENDBRANCH   5  14
BRANCH   3  17
ATOM     17  P   UNL     1      33.831 -23.807 -16.357  0.00  0.00    +0.267 P 
ATOM     18  O   UNL     1      33.454 -25.006 -17.179  0.00  0.00    -0.280 OA
BRANCH  17  19
ATOM     19  C   UNL     1      35.023 -22.737 -17.107  0.00  0.00    +0.058 C 
ATOM     20  C   UNL     1      36.149 -22.336 -16.389  0.00  0.00    +0.001 C 
ATOM     21  C   UNL     1      34.837 -22.295 -18.416  0.00  0.00    +0.005 C 
ATOM     22  C   UNL     1      37.090 -21.491 -16.980  0.00  0.00    -0.022 C 
ATOM     23  C   UNL     1      35.777 -21.451 -19.008  0.00  0.00    +0.001 C 
ATOM     24  C   UNL     1      36.903 -21.049 -18.290  0.00  0.00    -0.004 C 
ATOM     25  C   UNL     1      38.293 -21.063 -16.211  0.00  0.00    +0.031 C 
BRANCH  23  26
ATOM     26  C   UNL     1      35.583 -20.990 -20.373  0.00  0.00    +0.011 C 
ATOM     27  C   UNL     1      34.942 -19.857 -20.740  0.00  0.00    +0.078 C 
BRANCH  27  29
ATOM     28  N   UNL     1      34.665 -19.181 -23.217  0.00  0.00    -0.191 NA
ATOM     29  C   UNL     1      34.791 -19.486 -22.104  0.00  0.00    +0.101 C 
ENDBRANCH  27  29
ENDBRANCH  23  26
ENDBRANCH  17  19
BRANCH  17  30
ATOM     30  O   UNL     1      32.536 -22.865 -16.075  0.00  0.00    -0.305 OA
ATOM     31  C   UNL     1      31.320 -23.141 -16.747  0.00  0.00    +0.182 C 
ENDBRANCH  17  30
ENDBRANCH   3  17
TORSDOF 6
ENDMDL
MODEL 6
REMARK VINA RESULT:      -6.2      2.678      6.737
REMARK  Name = 44224276
REMARK  6 active torsions:
REMARK  status: ('A' for Active; 'I' for Inactive)
REMARK    1  A    between atoms: C_3  and  P_17
REMARK    2  A    between atoms: C_5  and  C_14
REMARK    3  A    between atoms: P_17  and  C_19
REMARK    4  A    between atoms: P_17  and  O_30
REMARK    5  A    between atoms: C_23  and  C_26
REMARK    6  A    between atoms: C_27  and  C_29
REMARK                            x       y       z     vdW  Elec       q    Type
REMARK                         _______ _______ _______ _____ _____    ______ ____
ROOT
ATOM      1 CL   UNL     1      34.880  -6.659 -25.106  0.00  0.00    -0.082 Cl
ATOM      2  N   UNL     1      34.096 -12.390 -24.278  0.00  0.00    -0.349 N 
ATOM      3  C   UNL     1      32.799 -11.082 -23.038  0.00  0.00    +0.079 A 
ATOM      4  C   UNL     1      33.623 -10.252 -23.847  0.00  0.00    +0.023 A 
ATOM      5  C   UNL     1      33.112 -12.391 -23.325  0.00  0.00    +0.116 A 
ATOM      6  C   UNL     1      34.427 -11.097 -24.615  0.00  0.00    +0.057 A 
ATOM      7  C   UNL     1      33.764  -8.858 -24.000  0.00  0.00    +0.013 C 
ATOM      8  C   UNL     1      35.368 -10.616 -25.533  0.00  0.00    +0.018 C 
ATOM      9  C   UNL     1      34.701  -8.363 -24.914  0.00  0.00    +0.058 C 
ATOM     10  C   UNL     1      35.490  -9.230 -25.667  0.00  0.00    +0.013 C 
ATOM     11  H   UNL     1      34.507 -13.196 -24.665  0.00  0.00    +0.166 HD
ENDROOT
BRANCH   5  14
ATOM     12  O   UNL     1      31.956 -14.438 -23.467  0.00  0.00    -0.269 OA
ATOM     13  N   UNL     1      32.695 -13.810 -21.389  0.00  0.00    -0.324 N 
ATOM     14  C   UNL     1      32.553 -13.582 -22.767  0.00  0.00    +0.259 C 
ATOM     15  H   UNL     1      32.318 -14.624 -20.984  0.00  0.00    +0.145 HD
ATOM     16  H   UNL     1      33.170 -13.156 -20.828  0.00  0.00    +0.145 HD
ENDBRANCH   5  14
BRANCH   3  17
ATOM     17  P   UNL     1      31.566 -10.516 -21.852  0.00  0.00    +0.267 P 
ATOM     18  O   UNL     1      30.179 -11.021 -22.126  0.00  0.00    -0.280 OA
BRANCH  17  19
ATOM     19  C   UNL     1      31.711  -8.755 -21.759  0.00  0.00    +0.058 C 
ATOM     20  C   UNL     1      32.132  -8.152 -20.574  0.00  0.00    +0.001 C 
ATOM     21  C   UNL     1      31.405  -7.971 -22.870  0.00  0.00    +0.005 C 
ATOM     22  C   UNL     1      32.245  -6.764 -20.499  0.00  0.00    -0.022 C 
ATOM     23  C   UNL     1      31.518  -6.583 -22.797  0.00  0.00    +0.001 C 
ATOM     24  C   UNL     1      31.939  -5.979 -21.612  0.00  0.00    -0.004 C 
ATOM     25  C   UNL     1      32.694  -6.120 -19.232  0.00  0.00    +0.031 C 
BRANCH  23  26
ATOM     26  C   UNL     1      31.200  -5.764 -23.955  0.00  0.00    +0.011 C 
ATOM     27  C   UNL     1      31.903  -4.690 -24.380  0.00  0.00    +0.078 C 
BRANCH  27  29
ATOM     28  N   UNL     1      31.194  -3.323 -26.453  0.00  0.00    -0.191 NA
ATOM     29  C   UNL     1      31.512  -3.940 -25.523  0.00  0.00    +0.101 C 
ENDBRANCH  27  29
ENDBRANCH  23  26
ENDBRANCH  17  19
BRANCH  17  30
ATOM     30  O   UNL     1      32.112 -11.061 -20.421  0.00  0.00    -0.305 OA
ATOM     31  C   UNL     1      31.213 -11.160 -19.330  0.00  0.00    +0.182 C 
ENDBRANCH  17  30
ENDBRANCH   3  17
TORSDOF 6
ENDMDL
MODEL 7
REMARK VINA RESULT:      -6.1      3.807      5.415
REMARK  Name = 44224276
REMARK  6 active torsions:
REMARK  status: ('A' for Active; 'I' for Inactive)
REMARK    1  A    between atoms: C_3  and  P_17
REMARK    2  A    between atoms: C_5  and  C_14
REMARK    3  A    between atoms: P_17  and  C_19
REMARK    4  A    between atoms: P_17  and  O_30
REMARK    5  A    between atoms: C_23  and  C_26
REMARK    6  A    between atoms: C_27  and  C_29
REMARK                            x       y       z     vdW  Elec       q    Type
REMARK                         _______ _______ _______ _____ _____    ______ ____
ROOT
ATOM      1 CL   UNL     1      36.206 -10.165 -26.380  0.00  0.00    -0.082 Cl
ATOM      2  N   UNL     1      32.105  -9.737 -22.241  0.00  0.00    -0.349 N 
ATOM      3  C   UNL     1      32.968 -11.768 -22.492  0.00  0.00    +0.079 A 
ATOM      4  C   UNL     1      33.598 -10.897 -23.426  0.00  0.00    +0.023 A 
ATOM      5  C   UNL     1      32.055 -11.026 -21.778  0.00  0.00    +0.116 A 
ATOM      6  C   UNL     1      33.038  -9.631 -23.247  0.00  0.00    +0.057 A 
ATOM      7  C   UNL     1      34.593 -11.067 -24.409  0.00  0.00    +0.013 C 
ATOM      8  C   UNL     1      33.426  -8.520 -24.005  0.00  0.00    +0.018 C 
ATOM      9  C   UNL     1      34.990  -9.965 -25.175  0.00  0.00    +0.058 C 
ATOM     10  C   UNL     1      34.414  -8.712 -24.975  0.00  0.00    +0.013 C 
ATOM     11  H   UNL     1      31.552  -8.996 -21.904  0.00  0.00    +0.166 HD
ENDROOT
BRANCH   5  14
ATOM     12  O   UNL     1      29.939 -11.555 -20.890  0.00  0.00    -0.269 OA
ATOM     13  N   UNL     1      31.739 -11.801 -19.491  0.00  0.00    -0.324 N 
ATOM     14  C   UNL     1      31.182 -11.457 -20.733  0.00  0.00    +0.259 C 
ATOM     15  H   UNL     1      31.155 -12.101 -18.757  0.00  0.00    +0.145 HD
ATOM     16  H   UNL     1      32.711 -11.742 -19.354  0.00  0.00    +0.145 HD
ENDBRANCH   5  14
BRANCH   3  17
ATOM     17  P   UNL     1      33.309 -13.524 -22.286  0.00  0.00    +0.267 P 
ATOM     18  O   UNL     1      34.529 -13.816 -21.460  0.00  0.00    -0.280 OA
BRANCH  17  19
ATOM     19  C   UNL     1      33.318 -14.241 -23.903  0.00  0.00    +0.058 C 
ATOM     20  C   UNL     1      32.910 -13.487 -25.003  0.00  0.00    +0.001 C 
ATOM     21  C   UNL     1      33.733 -15.561 -24.079  0.00  0.00    +0.005 C 
ATOM     22  C   UNL     1      32.916 -14.052 -26.279  0.00  0.00    -0.022 C 
ATOM     23  C   UNL     1      33.740 -16.126 -25.354  0.00  0.00    +0.001 C 
ATOM     24  C   UNL     1      33.332 -15.372 -26.453  0.00  0.00    -0.004 C 
ATOM     25  C   UNL     1      32.479 -13.245 -27.453  0.00  0.00    +0.031 C 
BRANCH  23  26
ATOM     26  C   UNL     1      34.173 -17.502 -25.537  0.00  0.00    +0.011 C 
ATOM     27  C   UNL     1      34.479 -18.371 -24.547  0.00  0.00    +0.078 C 
BRANCH  27  29
ATOM     28  N   UNL     1      35.253 -20.784 -25.043  0.00  0.00    -0.191 NA
ATOM     29  C   UNL     1      34.904 -19.700 -24.818  0.00  0.00    +0.101 C 
ENDBRANCH  27  29
ENDBRANCH  23  26
ENDBRANCH  17  19
BRANCH  17  30
ATOM     30  O   UNL     1      31.970 -14.108 -21.573  0.00  0.00    -0.305 OA
ATOM     31  C   UNL     1      32.078 -15.226 -20.708  0.00  0.00    +0.182 C 
ENDBRANCH  17  30
ENDBRANCH   3  17
TORSDOF 6
ENDMDL
MODEL 8
REMARK VINA RESULT:      -6.0     15.395     17.946
REMARK  Name = 44224276
REMARK  6 active torsions:
REMARK  status: ('A' for Active; 'I' for Inactive)
REMARK    1  A    between atoms: C_3  and  P_17
REMARK    2  A    between atoms: C_5  and  C_14
REMARK    3  A    between atoms: P_17  and  C_19
REMARK    4  A    between atoms: P_17  and  O_30
REMARK    5  A    between atoms: C_23  and  C_26
REMARK    6  A    between atoms: C_27  and  C_29
REMARK                            x       y       z     vdW  Elec       q    Type
REMARK                         _______ _______ _______ _____ _____    ______ ____
ROOT
ATOM      1 CL   UNL     1      33.405 -21.949 -20.080  0.00  0.00    -0.082 Cl
ATOM      2  N   UNL     1      37.745 -22.058 -16.171  0.00  0.00    -0.349 N 
ATOM      3  C   UNL     1      36.115 -23.517 -15.795  0.00  0.00    +0.079 A 
ATOM      4  C   UNL     1      35.795 -22.786 -16.973  0.00  0.00    +0.023 A 
ATOM      5  C   UNL     1      37.320 -23.047 -15.325  0.00  0.00    +0.116 A 
ATOM      6  C   UNL     1      36.834 -21.878 -17.187  0.00  0.00    +0.057 A 
ATOM      7  C   UNL     1      34.717 -22.810 -17.881  0.00  0.00    +0.013 C 
ATOM      8  C   UNL     1      36.849 -20.989 -18.267  0.00  0.00    +0.018 C 
ATOM      9  C   UNL     1      34.720 -21.926 -18.966  0.00  0.00    +0.058 C 
ATOM     10  C   UNL     1      35.770 -21.031 -19.154  0.00  0.00    +0.013 C 
ATOM     11  H   UNL     1      38.582 -21.549 -16.068  0.00  0.00    +0.166 HD
ENDROOT
BRANCH   5  14
ATOM     12  O   UNL     1      39.040 -24.237 -14.242  0.00  0.00    -0.269 OA
ATOM     13  N   UNL     1      37.652 -22.987 -12.912  0.00  0.00    -0.324 N 
ATOM     14  C   UNL     1      38.049 -23.467 -14.170  0.00  0.00    +0.259 C 
ATOM     15  H   UNL     1      38.140 -23.263 -12.104  0.00  0.00    +0.145 HD
ATOM     16  H   UNL     1      36.885 -22.374 -12.839  0.00  0.00    +0.145 HD
ENDBRANCH   5  14
BRANCH   3  17
ATOM     17  P   UNL     1      35.119 -24.823 -15.056  0.00  0.00    +0.267 P 
ATOM     18  O   UNL     1      35.058 -26.081 -15.875  0.00  0.00    -0.280 OA
BRANCH  17  19
ATOM     19  C   UNL     1      33.545 -24.114 -14.667  0.00  0.00    +0.058 C 
ATOM     20  C   UNL     1      33.271 -23.698 -13.364  0.00  0.00    +0.001 C 
ATOM     21  C   UNL     1      32.580 -23.971 -15.662  0.00  0.00    +0.005 C 
ATOM     22  C   UNL     1      32.030 -23.139 -13.056  0.00  0.00    -0.022 C 
ATOM     23  C   UNL     1      31.339 -23.412 -15.355  0.00  0.00    +0.001 C 
ATOM     24  C   UNL     1      31.064 -22.996 -14.053  0.00  0.00    -0.004 C 
ATOM     25  C   UNL     1      31.738 -22.696 -11.664  0.00  0.00    +0.031 C 
BRANCH  23  26
ATOM     26  C   UNL     1      30.331 -23.263 -16.393  0.00  0.00    +0.011 C 
ATOM     27  C   UNL     1      28.997 -23.173 -16.190  0.00  0.00    +0.078 C 
BRANCH  27  29
ATOM     28  N   UNL     1      27.329 -22.927 -18.147  0.00  0.00    -0.191 NA
ATOM     29  C   UNL     1      28.081 -23.036 -17.268  0.00  0.00    +0.101 C 
ENDBRANCH  27  29
ENDBRANCH  23  26
ENDBRANCH  17  19
BRANCH  17  30
ATOM     30  O   UNL     1      35.825 -25.098 -13.618  0.00  0.00    -0.305 OA
ATOM     31  C   UNL     1      36.573 -26.286 -13.431  0.00  0.00    +0.182 C 
ENDBRANCH  17  30
ENDBRANCH   3  17
TORSDOF 6
ENDMDL
MODEL 9
REMARK VINA RESULT:      -5.9      3.316      4.636
REMARK  Name = 44224276
REMARK  6 active torsions:
REMARK  status: ('A' for Active; 'I' for Inactive)
REMARK    1  A    between atoms: C_3  and  P_17
REMARK    2  A    between atoms: C_5  and  C_14
REMARK    3  A    between atoms: P_17  and  C_19
REMARK    4  A    between atoms: P_17  and  O_30
REMARK    5  A    between atoms: C_23  and  C_26
REMARK    6  A    between atoms: C_27  and  C_29
REMARK                            x       y       z     vdW  Elec       q    Type
REMARK                         _______ _______ _______ _____ _____    ______ ____
ROOT
ATOM      1 CL   UNL     1      35.012 -11.529 -26.713  0.00  0.00    -0.082 Cl
ATOM      2  N   UNL     1      33.646  -8.101 -22.183  0.00  0.00    -0.349 N 
ATOM      3  C   UNL     1      32.756 -10.134 -22.115  0.00  0.00    +0.079 A 
ATOM      4  C   UNL     1      33.534 -10.028 -23.302  0.00  0.00    +0.023 A 
ATOM      5  C   UNL     1      32.845  -8.934 -21.448  0.00  0.00    +0.116 A 
ATOM      6  C   UNL     1      34.081  -8.743 -23.320  0.00  0.00    +0.057 A 
ATOM      7  C   UNL     1      33.825 -10.904 -24.367  0.00  0.00    +0.013 C 
ATOM      8  C   UNL     1      34.909  -8.290 -24.353  0.00  0.00    +0.018 C 
ATOM      9  C   UNL     1      34.652 -10.464 -25.407  0.00  0.00    +0.058 C 
ATOM     10  C   UNL     1      35.184  -9.176 -25.398  0.00  0.00    +0.013 C 
ATOM     11  H   UNL     1      33.877  -7.177 -21.934  0.00  0.00    +0.166 HD
ENDROOT
BRANCH   5  14
ATOM     12  O   UNL     1      31.414  -7.611 -20.126  0.00  0.00    -0.269 OA
ATOM     13  N   UNL     1      32.557  -9.286 -19.055  0.00  0.00    -0.324 N 
ATOM     14  C   UNL     1      32.236  -8.558 -20.211  0.00  0.00    +0.259 C 
ATOM     15  H   UNL     1      32.149  -9.044 -18.193  0.00  0.00    +0.145 HD
ATOM     16  H   UNL     1      33.189 -10.038 -19.106  0.00  0.00    +0.145 HD
ENDBRANCH   5  14
BRANCH   3  17
ATOM     17  P   UNL     1      31.825 -11.583 -21.586  0.00  0.00    +0.267 P 
ATOM     18  O   UNL     1      31.708 -11.722 -20.096  0.00  0.00    -0.280 OA
BRANCH  17  19
ATOM     19  C   UNL     1      32.534 -12.980 -22.409  0.00  0.00    +0.058 C 
ATOM     20  C   UNL     1      32.366 -13.138 -23.785  0.00  0.00    +0.001 C 
ATOM     21  C   UNL     1      33.259 -13.923 -21.682  0.00  0.00    +0.005 C 
ATOM     22  C   UNL     1      32.924 -14.239 -24.434  0.00  0.00    -0.022 C 
ATOM     23  C   UNL     1      33.817 -15.025 -22.331  0.00  0.00    +0.001 C 
ATOM     24  C   UNL     1      33.650 -15.183 -23.706  0.00  0.00    -0.004 C 
ATOM     25  C   UNL     1      32.744 -14.407 -25.904  0.00  0.00    +0.031 C 
BRANCH  23  26
ATOM     26  C   UNL     1      34.574 -16.009 -21.573  0.00  0.00    +0.011 C 
ATOM     27  C   UNL     1      34.893 -17.253 -21.995  0.00  0.00    +0.078 C 
BRANCH  27  29
ATOM     28  N   UNL     1      36.232 -18.896 -20.519  0.00  0.00    -0.191 NA
ATOM     29  C   UNL     1      35.632 -18.156 -21.182  0.00  0.00    +0.101 C 
ENDBRANCH  27  29
ENDBRANCH  23  26
ENDBRANCH  17  19
BRANCH  17  30
ATOM     30  O   UNL     1      30.363 -11.387 -22.270  0.00  0.00    -0.305 OA
ATOM     31  C   UNL     1      30.024 -10.131 -22.831  0.00  0.00    +0.182 C 
ENDBRANCH  17  30
ENDBRANCH   3  17
TORSDOF 6
ENDMDL
