MODEL 1
REMARK VINA RESULT:      -8.2      0.000      0.000
REMARK  Name = 6307
REMARK  3 active torsions:
REMARK  status: ('A' for Active; 'I' for Inactive)
REMARK    1  A    between atoms: C_5  and  C_21
REMARK    2  A    between atoms: C_10  and  S_15
REMARK    3  A    between atoms: S_15  and  N_18
REMARK                            x       y       z     vdW  Elec       q    Type
REMARK                         _______ _______ _______ _____ _____    ______ ____
ROOT
ATOM      1 CL   UNL     1      32.254 -22.944 -17.055  0.00  0.00    -0.081 Cl
ATOM      2  O   UNL     1      35.074 -24.865 -11.281  0.00  0.00    -0.270 OA
ATOM      3  N   UNL     1      36.759 -23.529 -14.741  0.00  0.00    -0.319 N 
ATOM      4  N   UNL     1      36.959 -24.433 -12.525  0.00  0.00    -0.287 N 
ATOM      5  C   UNL     1      37.603 -24.262 -13.818  0.00  0.00    +0.146 C 
ATOM      6  C   UNL     1      35.382 -23.685 -14.672  0.00  0.00    +0.051 C 
ATOM      7  C   UNL     1      34.763 -24.209 -13.526  0.00  0.00    +0.068 C 
ATOM      8  C   UNL     1      35.593 -24.546 -12.346  0.00  0.00    +0.248 C 
ATOM      9  C   UNL     1      33.374 -24.361 -13.464  0.00  0.00    +0.027 C 
ATOM     10  C   UNL     1      32.587 -23.981 -14.550  0.00  0.00    +0.132 C 
ATOM     11  C   UNL     1      34.571 -23.291 -15.745  0.00  0.00    +0.027 C 
ATOM     12  C   UNL     1      33.184 -23.442 -15.688  0.00  0.00    +0.077 C 
ATOM     13  H   UNL     1      37.158 -22.928 -15.409  0.00  0.00    +0.148 HD
ATOM     14  H   UNL     1      37.532 -24.468 -11.725  0.00  0.00    +0.151 HD
ENDROOT
BRANCH  10  15
ATOM     15  S   UNL     1      30.851 -24.192 -14.423  0.00  0.00    +0.058 S 
ATOM     16  O   UNL     1      30.277 -22.851 -14.481  0.00  0.00    -0.153 OA
ATOM     17  O   UNL     1      30.511 -25.186 -15.434  0.00  0.00    -0.153 OA
BRANCH  15  18
ATOM     18  N   UNL     1      30.485 -24.848 -12.877  0.00  0.00    -0.203 NA
ATOM     19  H   UNL     1      31.345 -24.950 -12.338  0.00  0.00    +0.144 HD
ATOM     20  H   UNL     1      30.045 -25.762 -12.990  0.00  0.00    +0.144 HD
ENDBRANCH  15  18
ENDBRANCH  10  15
BRANCH   5  21
ATOM     21  C   UNL     1      37.984 -25.611 -14.419  0.00  0.00    +0.040 C 
ATOM     22  C   UNL     1      39.484 -25.724 -14.621  0.00  0.00    +0.004 C 
ENDBRANCH   5  21
TORSDOF 3
ENDMDL
MODEL 2
REMARK VINA RESULT:      -8.0      3.346      6.282
REMARK  Name = 6307
REMARK  3 active torsions:
REMARK  status: ('A' for Active; 'I' for Inactive)
REMARK    1  A    between atoms: C_5  and  C_21
REMARK    2  A    between atoms: C_10  and  S_15
REMARK    3  A    between atoms: S_15  and  N_18
REMARK                            x       y       z     vdW  Elec       q    Type
REMARK                         _______ _______ _______ _____ _____    ______ ____
ROOT
ATOM      1 CL   UNL     1      35.272 -24.270 -12.288  0.00  0.00    -0.081 Cl
ATOM      2  O   UNL     1      32.577 -22.469 -18.160  0.00  0.00    -0.270 OA
ATOM      3  N   UNL     1      30.831 -23.197 -14.552  0.00  0.00    -0.319 N 
ATOM      4  N   UNL     1      30.671 -22.695 -16.895  0.00  0.00    -0.287 N 
ATOM      5  C   UNL     1      29.988 -23.238 -15.730  0.00  0.00    +0.146 C 
ATOM      6  C   UNL     1      32.201 -23.369 -14.690  0.00  0.00    +0.051 C 
ATOM      7  C   UNL     1      32.836 -23.199 -15.931  0.00  0.00    +0.068 C 
ATOM      8  C   UNL     1      32.035 -22.770 -17.101  0.00  0.00    +0.248 C 
ATOM      9  C   UNL     1      34.219 -23.372 -16.061  0.00  0.00    +0.027 C 
ATOM     10  C   UNL     1      34.982 -23.711 -14.945  0.00  0.00    +0.132 C 
ATOM     11  C   UNL     1      32.990 -23.689 -13.577  0.00  0.00    +0.027 C 
ATOM     12  C   UNL     1      34.370 -23.865 -13.704  0.00  0.00    +0.077 C 
ATOM     13  H   UNL     1      30.436 -23.049 -13.663  0.00  0.00    +0.148 HD
ATOM     14  H   UNL     1      30.126 -22.245 -17.580  0.00  0.00    +0.151 HD
ENDROOT
BRANCH  10  15
ATOM     15  S   UNL     1      36.710 -23.916 -15.161  0.00  0.00    +0.058 S 
ATOM     16  O   UNL     1      37.341 -23.242 -14.031  0.00  0.00    -0.153 OA
ATOM     17  O   UNL     1      36.902 -25.347 -15.370  0.00  0.00    -0.153 OA
BRANCH  15  18
ATOM     18  N   UNL     1      37.191 -23.093 -16.593  0.00  0.00    -0.203 NA
ATOM     19  H   UNL     1      36.872 -23.617 -17.408  0.00  0.00    +0.144 HD
ATOM     20  H   UNL     1      38.207 -23.015 -16.615  0.00  0.00    +0.144 HD
ENDBRANCH  15  18
ENDBRANCH  10  15
BRANCH   5  21
ATOM     21  C   UNL     1      29.523 -24.667 -15.989  0.00  0.00    +0.040 C 
ATOM     22  C   UNL     1      29.075 -25.344 -14.707  0.00  0.00    +0.004 C 
ENDBRANCH   5  21
TORSDOF 3
ENDMDL
MODEL 3
REMARK VINA RESULT:      -7.9      3.065      3.744
REMARK  Name = 6307
REMARK  3 active torsions:
REMARK  status: ('A' for Active; 'I' for Inactive)
REMARK    1  A    between atoms: C_5  and  C_21
REMARK    2  A    between atoms: C_10  and  S_15
REMARK    3  A    between atoms: S_15  and  N_18
REMARK                            x       y       z     vdW  Elec       q    Type
REMARK                         _______ _______ _______ _____ _____    ______ ____
ROOT
ATOM      1 CL   UNL     1      36.733 -21.566 -18.359  0.00  0.00    -0.081 Cl
ATOM      2  O   UNL     1      32.837 -24.558 -13.793  0.00  0.00    -0.270 OA
ATOM      3  N   UNL     1      36.738 -23.404 -13.603  0.00  0.00    -0.319 N 
ATOM      4  N   UNL     1      34.828 -24.499 -12.645  0.00  0.00    -0.287 N 
ATOM      5  C   UNL     1      36.278 -24.388 -12.644  0.00  0.00    +0.146 C 
ATOM      6  C   UNL     1      36.035 -23.226 -14.786  0.00  0.00    +0.051 C 
ATOM      7  C   UNL     1      34.711 -23.673 -14.921  0.00  0.00    +0.068 C 
ATOM      8  C   UNL     1      34.034 -24.292 -13.757  0.00  0.00    +0.248 C 
ATOM      9  C   UNL     1      34.007 -23.489 -16.116  0.00  0.00    +0.027 C 
ATOM     10  C   UNL     1      34.623 -22.846 -17.189  0.00  0.00    +0.132 C 
ATOM     11  C   UNL     1      36.628 -22.565 -15.870  0.00  0.00    +0.027 C 
ATOM     12  C   UNL     1      35.930 -22.380 -17.065  0.00  0.00    +0.077 C 
ATOM     13  H   UNL     1      37.541 -22.866 -13.418  0.00  0.00    +0.148 HD
ATOM     14  H   UNL     1      34.383 -24.734 -11.800  0.00  0.00    +0.151 HD
ENDROOT
BRANCH  10  15
ATOM     15  S   UNL     1      33.699 -22.639 -18.665  0.00  0.00    +0.058 S 
ATOM     16  O   UNL     1      34.044 -23.771 -19.519  0.00  0.00    -0.153 OA
ATOM     17  O   UNL     1      32.322 -22.435 -18.229  0.00  0.00    -0.153 OA
BRANCH  15  18
ATOM     18  N   UNL     1      34.232 -21.209 -19.457  0.00  0.00    -0.203 NA
ATOM     19  H   UNL     1      33.607 -20.999 -20.235  0.00  0.00    +0.144 HD
ATOM     20  H   UNL     1      35.179 -21.347 -19.808  0.00  0.00    +0.144 HD
ENDBRANCH  15  18
ENDBRANCH  10  15
BRANCH   5  21
ATOM     21  C   UNL     1      36.927 -25.738 -12.932  0.00  0.00    +0.040 C 
ATOM     22  C   UNL     1      38.429 -25.606 -13.104  0.00  0.00    +0.004 C 
ENDBRANCH   5  21
TORSDOF 3
ENDMDL
MODEL 4
REMARK VINA RESULT:      -7.9     10.902     12.319
REMARK  Name = 6307
REMARK  3 active torsions:
REMARK  status: ('A' for Active; 'I' for Inactive)
REMARK    1  A    between atoms: C_5  and  C_21
REMARK    2  A    between atoms: C_10  and  S_15
REMARK    3  A    between atoms: S_15  and  N_18
REMARK                            x       y       z     vdW  Elec       q    Type
REMARK                         _______ _______ _______ _____ _____    ______ ____
ROOT
ATOM      1 CL   UNL     1      33.455 -15.315 -26.492  0.00  0.00    -0.081 Cl
ATOM      2  O   UNL     1      35.090 -15.898 -20.013  0.00  0.00    -0.270 OA
ATOM      3  N   UNL     1      35.228 -18.621 -23.039  0.00  0.00    -0.319 N 
ATOM      4  N   UNL     1      35.462 -18.054 -20.717  0.00  0.00    -0.287 N 
ATOM      5  C   UNL     1      35.236 -19.122 -21.679  0.00  0.00    +0.146 C 
ATOM      6  C   UNL     1      34.732 -17.350 -23.292  0.00  0.00    +0.051 C 
ATOM      7  C   UNL     1      34.599 -16.402 -22.265  0.00  0.00    +0.068 C 
ATOM      8  C   UNL     1      35.053 -16.747 -20.898  0.00  0.00    +0.248 C 
ATOM      9  C   UNL     1      34.101 -15.121 -22.529  0.00  0.00    +0.027 C 
ATOM     10  C   UNL     1      33.736 -14.775 -23.829  0.00  0.00    +0.132 C 
ATOM     11  C   UNL     1      34.379 -16.975 -24.595  0.00  0.00    +0.027 C 
ATOM     12  C   UNL     1      33.879 -15.698 -24.862  0.00  0.00    +0.077 C 
ATOM     13  H   UNL     1      35.570 -19.177 -23.776  0.00  0.00    +0.148 HD
ATOM     14  H   UNL     1      35.938 -18.277 -19.885  0.00  0.00    +0.151 HD
ENDROOT
BRANCH  10  15
ATOM     15  S   UNL     1      33.117 -13.158 -24.107  0.00  0.00    +0.058 S 
ATOM     16  O   UNL     1      32.788 -13.091 -25.527  0.00  0.00    -0.153 OA
ATOM     17  O   UNL     1      32.081 -12.966 -23.099  0.00  0.00    -0.153 OA
BRANCH  15  18
ATOM     18  N   UNL     1      34.375 -12.024 -23.810  0.00  0.00    -0.203 NA
ATOM     19  H   UNL     1      34.142 -11.467 -22.988  0.00  0.00    +0.144 HD
ATOM     20  H   UNL     1      34.479 -11.412 -24.619  0.00  0.00    +0.144 HD
ENDBRANCH  15  18
ENDBRANCH  10  15
BRANCH   5  21
ATOM     21  C   UNL     1      33.931 -19.853 -21.385  0.00  0.00    +0.040 C 
ATOM     22  C   UNL     1      34.016 -20.640 -20.090  0.00  0.00    +0.004 C 
ENDBRANCH   5  21
TORSDOF 3
ENDMDL
MODEL 5
REMARK VINA RESULT:      -7.8      3.364      6.075
REMARK  Name = 6307
REMARK  3 active torsions:
REMARK  status: ('A' for Active; 'I' for Inactive)
REMARK    1  A    between atoms: C_5  and  C_21
REMARK    2  A    between atoms: C_10  and  S_15
REMARK    3  A    between atoms: S_15  and  N_18
REMARK                            x       y       z     vdW  Elec       q    Type
REMARK                         _______ _______ _______ _____ _____    ______ ____
ROOT
ATOM      1 CL   UNL     1      35.551 -24.660 -11.220  0.00  0.00    -0.081 Cl
ATOM      2  O   UNL     1      34.195 -23.561 -17.696  0.00  0.00    -0.270 OA
ATOM      3  N   UNL     1      31.835 -23.207 -14.395  0.00  0.00    -0.319 N 
ATOM      4  N   UNL     1      32.127 -23.156 -16.778  0.00  0.00    -0.287 N 
ATOM      5  C   UNL     1      31.181 -23.314 -15.684  0.00  0.00    +0.146 C 
ATOM      6  C   UNL     1      33.136 -23.667 -14.253  0.00  0.00    +0.051 C 
ATOM      7  C   UNL     1      33.963 -23.873 -15.369  0.00  0.00    +0.068 C 
ATOM      8  C   UNL     1      33.454 -23.535 -16.718  0.00  0.00    +0.248 C 
ATOM      9  C   UNL     1      35.275 -24.336 -15.217  0.00  0.00    +0.027 C 
ATOM     10  C   UNL     1      35.775 -24.590 -13.941  0.00  0.00    +0.132 C 
ATOM     11  C   UNL     1      33.666 -23.910 -12.978  0.00  0.00    +0.027 C 
ATOM     12  C   UNL     1      34.974 -24.373 -12.822  0.00  0.00    +0.077 C 
ATOM     13  H   UNL     1      31.361 -22.812 -13.628  0.00  0.00    +0.148 HD
ATOM     14  H   UNL     1      31.801 -22.751 -17.614  0.00  0.00    +0.151 HD
ENDROOT
BRANCH  10  15
ATOM     15  S   UNL     1      37.425 -25.168 -13.805  0.00  0.00    +0.058 S 
ATOM     16  O   UNL     1      38.207 -24.043 -13.301  0.00  0.00    -0.153 OA
ATOM     17  O   UNL     1      37.335 -26.407 -13.039  0.00  0.00    -0.153 OA
BRANCH  15  18
ATOM     18  N   UNL     1      38.011 -25.547 -15.376  0.00  0.00    -0.203 NA
ATOM     19  H   UNL     1      37.298 -25.319 -16.069  0.00  0.00    +0.144 HD
ATOM     20  H   UNL     1      38.230 -26.542 -15.427  0.00  0.00    +0.144 HD
ENDBRANCH  15  18
ENDBRANCH  10  15
BRANCH   5  21
ATOM     21  C   UNL     1      30.447 -24.646 -15.787  0.00  0.00    +0.040 C 
ATOM     22  C   UNL     1      29.531 -24.868 -14.598  0.00  0.00    +0.004 C 
ENDBRANCH   5  21
TORSDOF 3
ENDMDL
MODEL 6
REMARK VINA RESULT:      -7.7      2.928      5.733
REMARK  Name = 6307
REMARK  3 active torsions:
REMARK  status: ('A' for Active; 'I' for Inactive)
REMARK    1  A    between atoms: C_5  and  C_21
REMARK    2  A    between atoms: C_10  and  S_15
REMARK    3  A    between atoms: S_15  and  N_18
REMARK                            x       y       z     vdW  Elec       q    Type
REMARK                         _______ _______ _______ _____ _____    ______ ____
ROOT
ATOM      1 CL   UNL     1      37.098 -22.591 -15.358  0.00  0.00    -0.081 Cl
ATOM      2  O   UNL     1      31.541 -25.504 -12.988  0.00  0.00    -0.270 OA
ATOM      3  N   UNL     1      32.213 -23.523 -16.483  0.00  0.00    -0.319 N 
ATOM      4  N   UNL     1      30.729 -24.628 -14.952  0.00  0.00    -0.287 N 
ATOM      5  C   UNL     1      30.839 -23.678 -16.048  0.00  0.00    +0.146 C 
ATOM      6  C   UNL     1      33.236 -23.620 -15.551  0.00  0.00    +0.051 C 
ATOM      7  C   UNL     1      33.030 -24.231 -14.303  0.00  0.00    +0.068 C 
ATOM      8  C   UNL     1      31.711 -24.835 -14.002  0.00  0.00    +0.248 C 
ATOM      9  C   UNL     1      34.068 -24.327 -13.369  0.00  0.00    +0.027 C 
ATOM     10  C   UNL     1      35.327 -23.818 -13.680  0.00  0.00    +0.132 C 
ATOM     11  C   UNL     1      34.515 -23.133 -15.850  0.00  0.00    +0.027 C 
ATOM     12  C   UNL     1      35.553 -23.226 -14.920  0.00  0.00    +0.077 C 
ATOM     13  H   UNL     1      32.418 -23.350 -17.430  0.00  0.00    +0.148 HD
ATOM     14  H   UNL     1      29.903 -25.158 -14.883  0.00  0.00    +0.151 HD
ENDROOT
BRANCH  10  15
ATOM     15  S   UNL     1      36.593 -23.964 -12.476  0.00  0.00    +0.058 S 
ATOM     16  O   UNL     1      37.695 -24.662 -13.130  0.00  0.00    -0.153 OA
ATOM     17  O   UNL     1      36.781 -22.615 -11.952  0.00  0.00    -0.153 OA
BRANCH  15  18
ATOM     18  N   UNL     1      36.029 -24.965 -11.197  0.00  0.00    -0.203 NA
ATOM     19  H   UNL     1      35.743 -24.382 -10.410  0.00  0.00    +0.144 HD
ATOM     20  H   UNL     1      36.776 -25.593 -10.901  0.00  0.00    +0.144 HD
ENDBRANCH  15  18
ENDBRANCH  10  15
BRANCH   5  21
ATOM     21  C   UNL     1      30.261 -22.322 -15.655  0.00  0.00    +0.040 C 
ATOM     22  C   UNL     1      28.748 -22.374 -15.550  0.00  0.00    +0.004 C 
ENDBRANCH   5  21
TORSDOF 3
ENDMDL
MODEL 7
REMARK VINA RESULT:      -7.5      2.628      3.256
REMARK  Name = 6307
REMARK  3 active torsions:
REMARK  status: ('A' for Active; 'I' for Inactive)
REMARK    1  A    between atoms: C_5  and  C_21
REMARK    2  A    between atoms: C_10  and  S_15
REMARK    3  A    between atoms: S_15  and  N_18
REMARK                            x       y       z     vdW  Elec       q    Type
REMARK                         _______ _______ _______ _____ _____    ______ ____
ROOT
ATOM      1 CL   UNL     1      30.083 -24.958 -13.411  0.00  0.00    -0.081 Cl
ATOM      2  O   UNL     1      35.154 -22.719 -17.185  0.00  0.00    -0.270 OA
ATOM      3  N   UNL     1      35.168 -24.956 -13.781  0.00  0.00    -0.319 N 
ATOM      4  N   UNL     1      36.332 -23.749 -15.501  0.00  0.00    -0.287 N 
ATOM      5  C   UNL     1      36.393 -24.272 -14.145  0.00  0.00    +0.146 C 
ATOM      6  C   UNL     1      33.960 -24.501 -14.290  0.00  0.00    +0.051 C 
ATOM      7  C   UNL     1      33.911 -23.669 -15.420  0.00  0.00    +0.068 C 
ATOM      8  C   UNL     1      35.171 -23.318 -16.115  0.00  0.00    +0.248 C 
ATOM      9  C   UNL     1      32.688 -23.216 -15.928  0.00  0.00    +0.027 C 
ATOM     10  C   UNL     1      31.498 -23.601 -15.312  0.00  0.00    +0.132 C 
ATOM     11  C   UNL     1      32.751 -24.892 -13.699  0.00  0.00    +0.027 C 
ATOM     12  C   UNL     1      31.528 -24.442 -14.202  0.00  0.00    +0.077 C 
ATOM     13  H   UNL     1      35.192 -25.734 -13.180  0.00  0.00    +0.148 HD
ATOM     14  H   UNL     1      37.170 -23.699 -16.014  0.00  0.00    +0.151 HD
ENDROOT
BRANCH  10  15
ATOM     15  S   UNL     1      29.993 -23.007 -15.987  0.00  0.00    +0.058 S 
ATOM     16  O   UNL     1      29.319 -22.294 -14.907  0.00  0.00    -0.153 OA
ATOM     17  O   UNL     1      30.371 -22.309 -17.211  0.00  0.00    -0.153 OA
BRANCH  15  18
ATOM     18  N   UNL     1      29.010 -24.352 -16.415  0.00  0.00    -0.203 NA
ATOM     19  H   UNL     1      28.072 -24.221 -16.035  0.00  0.00    +0.144 HD
ATOM     20  H   UNL     1      29.416 -25.206 -16.034  0.00  0.00    +0.144 HD
ENDBRANCH  15  18
ENDBRANCH  10  15
BRANCH   5  21
ATOM     21  C   UNL     1      36.685 -23.159 -13.144  0.00  0.00    +0.040 C 
ATOM     22  C   UNL     1      36.507 -23.637 -11.715  0.00  0.00    +0.004 C 
ENDBRANCH   5  21
TORSDOF 3
ENDMDL
MODEL 8
REMARK VINA RESULT:      -7.5     11.663     13.394
REMARK  Name = 6307
REMARK  3 active torsions:
REMARK  status: ('A' for Active; 'I' for Inactive)
REMARK    1  A    between atoms: C_5  and  C_21
REMARK    2  A    between atoms: C_10  and  S_15
REMARK    3  A    between atoms: S_15  and  N_18
REMARK                            x       y       z     vdW  Elec       q    Type
REMARK                         _______ _______ _______ _____ _____    ______ ____
ROOT
ATOM      1 CL   UNL     1      34.969 -17.903 -25.237  0.00  0.00    -0.081 Cl
ATOM      2  O   UNL     1      32.765 -13.978 -20.266  0.00  0.00    -0.270 OA
ATOM      3  N   UNL     1      32.624 -13.472 -24.305  0.00  0.00    -0.319 N 
ATOM      4  N   UNL     1      32.255 -12.657 -22.077  0.00  0.00    -0.287 N 
ATOM      5  C   UNL     1      32.459 -12.298 -23.472  0.00  0.00    +0.146 C 
ATOM      6  C   UNL     1      33.254 -14.593 -23.783  0.00  0.00    +0.051 C 
ATOM      7  C   UNL     1      33.389 -14.775 -22.397  0.00  0.00    +0.068 C 
ATOM      8  C   UNL     1      32.796 -13.778 -21.476  0.00  0.00    +0.248 C 
ATOM      9  C   UNL     1      34.023 -15.909 -21.879  0.00  0.00    +0.027 C 
ATOM     10  C   UNL     1      34.523 -16.879 -22.745  0.00  0.00    +0.132 C 
ATOM     11  C   UNL     1      33.745 -15.591 -24.636  0.00  0.00    +0.027 C 
ATOM     12  C   UNL     1      34.380 -16.724 -24.122  0.00  0.00    +0.077 C 
ATOM     13  H   UNL     1      32.294 -13.475 -25.232  0.00  0.00    +0.148 HD
ATOM     14  H   UNL     1      31.695 -12.064 -21.526  0.00  0.00    +0.151 HD
ENDROOT
BRANCH  10  15
ATOM     15  S   UNL     1      35.309 -18.282 -22.045  0.00  0.00    +0.058 S 
ATOM     16  O   UNL     1      35.438 -18.002 -20.619  0.00  0.00    -0.153 OA
ATOM     17  O   UNL     1      34.531 -19.426 -22.507  0.00  0.00    -0.153 OA
BRANCH  15  18
ATOM     18  N   UNL     1      36.895 -18.411 -22.696  0.00  0.00    -0.203 NA
ATOM     19  H   UNL     1      37.441 -17.592 -22.424  0.00  0.00    +0.144 HD
ATOM     20  H   UNL     1      36.843 -18.463 -23.713  0.00  0.00    +0.144 HD
ENDBRANCH  15  18
ENDBRANCH  10  15
BRANCH   5  21
ATOM     21  C   UNL     1      33.664 -11.376 -23.626  0.00  0.00    +0.040 C 
ATOM     22  C   UNL     1      34.087 -11.255 -25.078  0.00  0.00    +0.004 C 
ENDBRANCH   5  21
TORSDOF 3
ENDMDL
MODEL 9
REMARK VINA RESULT:      -7.5     14.575     16.103
REMARK  Name = 6307
REMARK  3 active torsions:
REMARK  status: ('A' for Active; 'I' for Inactive)
REMARK    1  A    between atoms: C_5  and  C_21
REMARK    2  A    between atoms: C_10  and  S_15
REMARK    3  A    between atoms: S_15  and  N_18
REMARK                            x       y       z     vdW  Elec       q    Type
REMARK                         _______ _______ _______ _____ _____    ______ ____
ROOT
ATOM      1 CL   UNL     1      31.056 -10.019 -19.802  0.00  0.00    -0.081 Cl
ATOM      2  O   UNL     1      34.135 -11.360 -25.608  0.00  0.00    -0.270 OA
ATOM      3  N   UNL     1      32.276 -13.833 -22.959  0.00  0.00    -0.319 N 
ATOM      4  N   UNL     1      33.577 -13.490 -24.948  0.00  0.00    -0.287 N 
ATOM      5  C   UNL     1      33.205 -14.427 -23.899  0.00  0.00    +0.146 C 
ATOM      6  C   UNL     1      32.373 -12.479 -22.670  0.00  0.00    +0.051 C 
ATOM      7  C   UNL     1      33.066 -11.601 -23.518  0.00  0.00    +0.068 C 
ATOM      8  C   UNL     1      33.653 -12.121 -24.775  0.00  0.00    +0.248 C 
ATOM      9  C   UNL     1      33.158 -10.237 -23.221  0.00  0.00    +0.027 C 
ATOM     10  C   UNL     1      32.548  -9.736 -22.072  0.00  0.00    +0.132 C 
ATOM     11  C   UNL     1      31.750 -11.952 -21.531  0.00  0.00    +0.027 C 
ATOM     12  C   UNL     1      31.841 -10.591 -21.230  0.00  0.00    +0.077 C 
ATOM     13  H   UNL     1      31.583 -14.384 -22.529  0.00  0.00    +0.148 HD
ATOM     14  H   UNL     1      33.786 -13.854 -25.838  0.00  0.00    +0.151 HD
ENDROOT
BRANCH  10  15
ATOM     15  S   UNL     1      32.692  -8.020 -21.745  0.00  0.00    +0.058 S 
ATOM     16  O   UNL     1      33.844  -7.557 -22.513  0.00  0.00    -0.153 OA
ATOM     17  O   UNL     1      31.366  -7.469 -21.998  0.00  0.00    -0.153 OA
BRANCH  15  18
ATOM     18  N   UNL     1      33.057  -7.802 -20.078  0.00  0.00    -0.203 NA
ATOM     19  H   UNL     1      33.753  -8.489 -19.791  0.00  0.00    +0.144 HD
ATOM     20  H   UNL     1      32.208  -7.924 -19.526  0.00  0.00    +0.144 HD
ENDBRANCH  15  18
ENDBRANCH  10  15
BRANCH   5  21
ATOM     21  C   UNL     1      34.438 -14.936 -23.161  0.00  0.00    +0.040 C 
ATOM     22  C   UNL     1      34.064 -15.612 -21.856  0.00  0.00    +0.004 C 
ENDBRANCH   5  21
TORSDOF 3
ENDMDL
