MODEL 1
REMARK VINA RESULT:     -10.4      0.000      0.000
REMARK  Name = 119205
REMARK  8 active torsions:
REMARK  status: ('A' for Active; 'I' for Inactive)
REMARK    1  A    between atoms: C_3  and  C_7
REMARK    2  A    between atoms: C_4  and  C_18
REMARK    3  A    between atoms: C_7  and  C_8
REMARK    4  A    between atoms: C_11  and  O_14
REMARK    5  A    between atoms: C_13  and  O_16
REMARK    6  A    between atoms: C_18  and  C_19
REMARK    7  A    between atoms: C_22  and  O_25
REMARK    8  A    between atoms: C_24  and  O_27
REMARK                            x       y       z     vdW  Elec       q    Type
REMARK                         _______ _______ _______ _____ _____    ______ ____
ROOT
ATOM      1  O   UNL     1      36.152 -18.334 -23.173  0.00  0.00    -0.448 OA
ATOM      2  O   UNL     1      34.810 -16.836 -24.273  0.00  0.00    -0.250 OA
ATOM      3  C   UNL     1      34.985 -18.487 -21.145  0.00  0.00    +0.059 C 
ATOM      4  C   UNL     1      34.475 -17.267 -21.905  0.00  0.00    +0.107 C 
ATOM      5  C   UNL     1      36.317 -18.759 -21.816  0.00  0.00    +0.209 C 
ATOM      6  C   UNL     1      35.125 -17.434 -23.254  0.00  0.00    +0.317 C 
ENDROOT
BRANCH   3   7
ATOM      7  C   UNL     1      34.036 -19.678 -21.309  0.00  0.00    +0.031 C 
BRANCH   7   8
ATOM      8  C   UNL     1      34.177 -20.669 -20.183  0.00  0.00    -0.019 C 
ATOM      9  C   UNL     1      35.436 -20.954 -19.679  0.00  0.00    +0.036 C 
ATOM     10  C   UNL     1      33.043 -21.282 -19.668  0.00  0.00    -0.001 C 
ATOM     11  C   UNL     1      35.567 -21.871 -18.637  0.00  0.00    +0.172 C 
ATOM     12  C   UNL     1      33.174 -22.199 -18.626  0.00  0.00    +0.039 C 
ATOM     13  C   UNL     1      34.436 -22.494 -18.110  0.00  0.00    +0.168 C 
BRANCH  11  14
ATOM     14  O   UNL     1      36.805 -22.153 -18.142  0.00  0.00    -0.468 OA
ATOM     15  C   UNL     1      37.195 -21.479 -16.948  0.00  0.00    +0.253 C 
ENDBRANCH  11  14
BRANCH  13  16
ATOM     16  O   UNL     1      34.550 -23.393 -17.093  0.00  0.00    -0.503 OA
ATOM     17  H   UNL     1      34.995 -24.206 -17.233  0.00  0.00    +0.292 HD
ENDBRANCH  13  16
ENDBRANCH   7   8
ENDBRANCH   3   7
BRANCH   4  18
ATOM     18  C   UNL     1      34.915 -15.950 -21.280  0.00  0.00    +0.038 C 
BRANCH  18  19
ATOM     19  C   UNL     1      33.917 -14.849 -21.526  0.00  0.00    -0.018 C 
ATOM     20  C   UNL     1      33.995 -14.109 -22.697  0.00  0.00    +0.036 C 
ATOM     21  C   UNL     1      32.936 -14.591 -20.580  0.00  0.00    -0.001 C 
ATOM     22  C   UNL     1      33.071 -13.089 -22.926  0.00  0.00    +0.172 C 
ATOM     23  C   UNL     1      32.013 -13.571 -20.808  0.00  0.00    +0.039 C 
ATOM     24  C   UNL     1      32.081 -12.820 -21.981  0.00  0.00    +0.168 C 
BRANCH  22  25
ATOM     25  O   UNL     1      33.148 -12.362 -24.075  0.00  0.00    -0.468 OA
ATOM     26  C   UNL     1      33.935 -11.172 -24.038  0.00  0.00    +0.253 C 
ENDBRANCH  22  25
BRANCH  24  27
ATOM     27  O   UNL     1      31.174 -11.827 -22.194  0.00  0.00    -0.503 OA
ATOM     28  H   UNL     1      30.260 -11.991 -22.067  0.00  0.00    +0.292 HD
ENDBRANCH  24  27
ENDBRANCH  18  19
ENDBRANCH   4  18
TORSDOF 8
ENDMDL
MODEL 2
REMARK VINA RESULT:     -10.1      0.801      8.521
REMARK  Name = 119205
REMARK  8 active torsions:
REMARK  status: ('A' for Active; 'I' for Inactive)
REMARK    1  A    between atoms: C_3  and  C_7
REMARK    2  A    between atoms: C_4  and  C_18
REMARK    3  A    between atoms: C_7  and  C_8
REMARK    4  A    between atoms: C_11  and  O_14
REMARK    5  A    between atoms: C_13  and  O_16
REMARK    6  A    between atoms: C_18  and  C_19
REMARK    7  A    between atoms: C_22  and  O_25
REMARK    8  A    between atoms: C_24  and  O_27
REMARK                            x       y       z     vdW  Elec       q    Type
REMARK                         _______ _______ _______ _____ _____    ______ ____
ROOT
ATOM      1  O   UNL     1      36.479 -17.909 -22.721  0.00  0.00    -0.448 OA
ATOM      2  O   UNL     1      37.415 -19.330 -21.186  0.00  0.00    -0.250 OA
ATOM      3  C   UNL     1      34.464 -17.422 -21.626  0.00  0.00    +0.059 C 
ATOM      4  C   UNL     1      35.096 -18.638 -20.956  0.00  0.00    +0.107 C 
ATOM      5  C   UNL     1      35.171 -17.380 -22.966  0.00  0.00    +0.209 C 
ATOM      6  C   UNL     1      36.462 -18.681 -21.593  0.00  0.00    +0.317 C 
ENDROOT
BRANCH   3   7
ATOM      7  C   UNL     1      34.733 -16.146 -20.824  0.00  0.00    +0.031 C 
BRANCH   7   8
ATOM      8  C   UNL     1      33.827 -15.016 -21.243  0.00  0.00    -0.019 C 
ATOM      9  C   UNL     1      33.910 -14.519 -22.534  0.00  0.00    +0.036 C 
ATOM     10  C   UNL     1      32.925 -14.492 -20.328  0.00  0.00    -0.001 C 
ATOM     11  C   UNL     1      33.072 -13.474 -22.921  0.00  0.00    +0.172 C 
ATOM     12  C   UNL     1      32.087 -13.447 -20.715  0.00  0.00    +0.039 C 
ATOM     13  C   UNL     1      32.160 -12.938 -22.012  0.00  0.00    +0.168 C 
BRANCH  11  14
ATOM     14  O   UNL     1      33.153 -12.983 -24.190  0.00  0.00    -0.468 OA
ATOM     15  C   UNL     1      33.131 -13.932 -25.253  0.00  0.00    +0.253 C 
ENDBRANCH  11  14
BRANCH  13  16
ATOM     16  O   UNL     1      31.335 -11.917 -22.378  0.00  0.00    -0.503 OA
ATOM     17  H   UNL     1      31.466 -11.480 -23.197  0.00  0.00    +0.292 HD
ENDBRANCH  13  16
ENDBRANCH   7   8
ENDBRANCH   3   7
BRANCH   4  18
ATOM     18  C   UNL     1      34.351 -19.933 -21.248  0.00  0.00    +0.038 C 
BRANCH  18  19
ATOM     19  C   UNL     1      34.374 -20.873 -20.071  0.00  0.00    -0.018 C 
ATOM     20  C   UNL     1      35.584 -21.166 -19.457  0.00  0.00    +0.036 C 
ATOM     21  C   UNL     1      33.188 -21.432 -19.619  0.00  0.00    -0.001 C 
ATOM     22  C   UNL     1      35.607 -22.036 -18.367  0.00  0.00    +0.172 C 
ATOM     23  C   UNL     1      33.211 -22.302 -18.529  0.00  0.00    +0.039 C 
ATOM     24  C   UNL     1      34.420 -22.605 -17.904  0.00  0.00    +0.168 C 
BRANCH  22  25
ATOM     25  O   UNL     1      36.794 -22.325 -17.766  0.00  0.00    -0.468 OA
ATOM     26  C   UNL     1      37.250 -21.419 -16.763  0.00  0.00    +0.253 C 
ENDBRANCH  22  25
BRANCH  24  27
ATOM     27  O   UNL     1      34.430 -23.455 -16.841  0.00  0.00    -0.503 OA
ATOM     28  H   UNL     1      34.380 -23.117 -15.969  0.00  0.00    +0.292 HD
ENDBRANCH  24  27
ENDBRANCH  18  19
ENDBRANCH   4  18
TORSDOF 8
ENDMDL
MODEL 3
REMARK VINA RESULT:      -9.7      6.096      9.370
REMARK  Name = 119205
REMARK  8 active torsions:
REMARK  status: ('A' for Active; 'I' for Inactive)
REMARK    1  A    between atoms: C_3  and  C_7
REMARK    2  A    between atoms: C_4  and  C_18
REMARK    3  A    between atoms: C_7  and  C_8
REMARK    4  A    between atoms: C_11  and  O_14
REMARK    5  A    between atoms: C_13  and  O_16
REMARK    6  A    between atoms: C_18  and  C_19
REMARK    7  A    between atoms: C_22  and  O_25
REMARK    8  A    between atoms: C_24  and  O_27
REMARK                            x       y       z     vdW  Elec       q    Type
REMARK                         _______ _______ _______ _____ _____    ______ ____
ROOT
ATOM      1  O   UNL     1      30.911 -24.107 -13.858  0.00  0.00    -0.448 OA
ATOM      2  O   UNL     1      30.555 -22.091 -14.887  0.00  0.00    -0.250 OA
ATOM      3  C   UNL     1      33.204 -24.360 -14.276  0.00  0.00    +0.059 C 
ATOM      4  C   UNL     1      32.666 -23.258 -15.183  0.00  0.00    +0.107 C 
ATOM      5  C   UNL     1      31.944 -25.100 -13.874  0.00  0.00    +0.209 C 
ATOM      6  C   UNL     1      31.275 -23.049 -14.643  0.00  0.00    +0.317 C 
ENDROOT
BRANCH   3   7
ATOM      7  C   UNL     1      33.910 -23.773 -13.050  0.00  0.00    +0.031 C 
BRANCH   7   8
ATOM      8  C   UNL     1      35.396 -24.024 -13.083  0.00  0.00    -0.019 C 
ATOM      9  C   UNL     1      35.920 -24.895 -14.025  0.00  0.00    +0.036 C 
ATOM     10  C   UNL     1      36.216 -23.380 -12.167  0.00  0.00    -0.001 C 
ATOM     11  C   UNL     1      37.294 -25.128 -14.055  0.00  0.00    +0.172 C 
ATOM     12  C   UNL     1      37.590 -23.613 -12.197  0.00  0.00    +0.039 C 
ATOM     13  C   UNL     1      38.130 -24.486 -13.141  0.00  0.00    +0.168 C 
BRANCH  11  14
ATOM     14  O   UNL     1      37.809 -25.985 -14.980  0.00  0.00    -0.468 OA
ATOM     15  C   UNL     1      36.947 -27.012 -15.463  0.00  0.00    +0.253 C 
ENDBRANCH  11  14
BRANCH  13  16
ATOM     16  O   UNL     1      39.474 -24.705 -13.159  0.00  0.00    -0.503 OA
ATOM     17  H   UNL     1      39.824 -25.500 -12.807  0.00  0.00    +0.292 HD
ENDBRANCH  13  16
ENDBRANCH   7   8
ENDBRANCH   3   7
BRANCH   4  18
ATOM     18  C   UNL     1      32.594 -23.673 -16.646  0.00  0.00    +0.038 C 
BRANCH  18  19
ATOM     19  C   UNL     1      33.586 -22.919 -17.494  0.00  0.00    -0.018 C 
ATOM     20  C   UNL     1      34.894 -22.782 -17.052  0.00  0.00    +0.036 C 
ATOM     21  C   UNL     1      33.177 -22.374 -18.701  0.00  0.00    -0.001 C 
ATOM     22  C   UNL     1      35.813 -22.084 -17.836  0.00  0.00    +0.172 C 
ATOM     23  C   UNL     1      34.095 -21.676 -19.486  0.00  0.00    +0.039 C 
ATOM     24  C   UNL     1      35.413 -21.531 -19.053  0.00  0.00    +0.168 C 
BRANCH  22  25
ATOM     25  O   UNL     1      37.096 -21.948 -17.402  0.00  0.00    -0.468 OA
ATOM     26  C   UNL     1      37.332 -22.126 -16.007  0.00  0.00    +0.253 C 
ENDBRANCH  22  25
BRANCH  24  27
ATOM     27  O   UNL     1      36.301 -20.848 -19.827  0.00  0.00    -0.503 OA
ATOM     28  H   UNL     1      36.183 -19.931 -19.980  0.00  0.00    +0.292 HD
ENDBRANCH  24  27
ENDBRANCH  18  19
ENDBRANCH   4  18
TORSDOF 8
ENDMDL
MODEL 4
REMARK VINA RESULT:      -9.6      7.552      9.859
REMARK  Name = 119205
REMARK  8 active torsions:
REMARK  status: ('A' for Active; 'I' for Inactive)
REMARK    1  A    between atoms: C_3  and  C_7
REMARK    2  A    between atoms: C_4  and  C_18
REMARK    3  A    between atoms: C_7  and  C_8
REMARK    4  A    between atoms: C_11  and  O_14
REMARK    5  A    between atoms: C_13  and  O_16
REMARK    6  A    between atoms: C_18  and  C_19
REMARK    7  A    between atoms: C_22  and  O_25
REMARK    8  A    between atoms: C_24  and  O_27
REMARK                            x       y       z     vdW  Elec       q    Type
REMARK                         _______ _______ _______ _____ _____    ______ ____
ROOT
ATOM      1  O   UNL     1      35.253 -22.480 -18.154  0.00  0.00    -0.448 OA
ATOM      2  O   UNL     1      33.776 -23.618 -19.486  0.00  0.00    -0.250 OA
ATOM      3  C   UNL     1      34.565 -23.261 -16.052  0.00  0.00    +0.059 C 
ATOM      4  C   UNL     1      33.486 -23.606 -17.073  0.00  0.00    +0.107 C 
ATOM      5  C   UNL     1      35.350 -22.173 -16.758  0.00  0.00    +0.209 C 
ATOM      6  C   UNL     1      34.159 -23.269 -18.379  0.00  0.00    +0.317 C 
ENDROOT
BRANCH   3   7
ATOM      7  C   UNL     1      35.454 -24.472 -15.756  0.00  0.00    +0.031 C 
BRANCH   7   8
ATOM      8  C   UNL     1      36.382 -24.219 -14.595  0.00  0.00    -0.019 C 
ATOM      9  C   UNL     1      37.690 -24.673 -14.656  0.00  0.00    +0.036 C 
ATOM     10  C   UNL     1      35.912 -23.534 -13.484  0.00  0.00    -0.001 C 
ATOM     11  C   UNL     1      38.548 -24.439 -13.582  0.00  0.00    +0.172 C 
ATOM     12  C   UNL     1      36.770 -23.300 -12.410  0.00  0.00    +0.039 C 
ATOM     13  C   UNL     1      38.089 -23.752 -12.459  0.00  0.00    +0.168 C 
BRANCH  11  14
ATOM     14  O   UNL     1      39.834 -24.888 -13.641  0.00  0.00    -0.468 OA
ATOM     15  C   UNL     1      40.190 -25.686 -14.767  0.00  0.00    +0.253 C 
ENDBRANCH  11  14
BRANCH  13  16
ATOM     16  O   UNL     1      38.917 -23.517 -11.404  0.00  0.00    -0.503 OA
ATOM     17  H   UNL     1      39.823 -23.749 -11.459  0.00  0.00    +0.292 HD
ENDBRANCH  13  16
ENDBRANCH   7   8
ENDBRANCH   3   7
BRANCH   4  18
ATOM     18  C   UNL     1      32.225 -22.768 -16.912  0.00  0.00    +0.038 C 
BRANCH  18  19
ATOM     19  C   UNL     1      31.145 -23.514 -16.172  0.00  0.00    -0.018 C 
ATOM     20  C   UNL     1      29.814 -23.214 -16.426  0.00  0.00    +0.036 C 
ATOM     21  C   UNL     1      31.496 -24.488 -15.249  0.00  0.00    -0.001 C 
ATOM     22  C   UNL     1      28.813 -23.904 -15.742  0.00  0.00    +0.172 C 
ATOM     23  C   UNL     1      30.495 -25.177 -14.565  0.00  0.00    +0.039 C 
ATOM     24  C   UNL     1      29.154 -24.885 -14.811  0.00  0.00    +0.168 C 
BRANCH  22  25
ATOM     25  O   UNL     1      27.507 -23.608 -15.990  0.00  0.00    -0.468 OA
ATOM     26  C   UNL     1      27.113 -22.244 -15.855  0.00  0.00    +0.253 C 
ENDBRANCH  22  25
BRANCH  24  27
ATOM     27  O   UNL     1      28.186 -25.565 -14.137  0.00  0.00    -0.503 OA
ATOM     28  H   UNL     1      27.286 -25.463 -14.378  0.00  0.00    +0.292 HD
ENDBRANCH  24  27
ENDBRANCH  18  19
ENDBRANCH   4  18
TORSDOF 8
ENDMDL
MODEL 5
REMARK VINA RESULT:      -9.5      2.469      9.557
REMARK  Name = 119205
REMARK  8 active torsions:
REMARK  status: ('A' for Active; 'I' for Inactive)
REMARK    1  A    between atoms: C_3  and  C_7
REMARK    2  A    between atoms: C_4  and  C_18
REMARK    3  A    between atoms: C_7  and  C_8
REMARK    4  A    between atoms: C_11  and  O_14
REMARK    5  A    between atoms: C_13  and  O_16
REMARK    6  A    between atoms: C_18  and  C_19
REMARK    7  A    between atoms: C_22  and  O_25
REMARK    8  A    between atoms: C_24  and  O_27
REMARK                            x       y       z     vdW  Elec       q    Type
REMARK                         _______ _______ _______ _____ _____    ______ ____
ROOT
ATOM      1  O   UNL     1      32.998 -22.161 -20.303  0.00  0.00    -0.448 OA
ATOM      2  O   UNL     1      33.846 -24.189 -19.656  0.00  0.00    -0.250 OA
ATOM      3  C   UNL     1      34.717 -20.758 -19.545  0.00  0.00    +0.059 C 
ATOM      4  C   UNL     1      34.893 -22.130 -18.900  0.00  0.00    +0.107 C 
ATOM      5  C   UNL     1      33.270 -20.789 -19.994  0.00  0.00    +0.209 C 
ATOM      6  C   UNL     1      33.888 -22.967 -19.649  0.00  0.00    +0.317 C 
ENDROOT
BRANCH   3   7
ATOM      7  C   UNL     1      35.658 -20.583 -20.740  0.00  0.00    +0.031 C 
BRANCH   7   8
ATOM      8  C   UNL     1      35.339 -19.340 -21.530  0.00  0.00    -0.019 C 
ATOM      9  C   UNL     1      35.332 -18.109 -20.892  0.00  0.00    +0.036 C 
ATOM     10  C   UNL     1      35.056 -19.448 -22.884  0.00  0.00    -0.001 C 
ATOM     11  C   UNL     1      35.035 -16.960 -21.623  0.00  0.00    +0.172 C 
ATOM     12  C   UNL     1      34.759 -18.298 -23.615  0.00  0.00    +0.039 C 
ATOM     13  C   UNL     1      34.750 -17.053 -22.985  0.00  0.00    +0.168 C 
BRANCH  11  14
ATOM     14  O   UNL     1      35.027 -15.750 -20.996  0.00  0.00    -0.468 OA
ATOM     15  C   UNL     1      33.792 -15.325 -20.424  0.00  0.00    +0.253 C 
ENDBRANCH  11  14
BRANCH  13  16
ATOM     16  O   UNL     1      34.458 -15.938 -23.710  0.00  0.00    -0.503 OA
ATOM     17  H   UNL     1      33.580 -15.612 -23.736  0.00  0.00    +0.292 HD
ENDBRANCH  13  16
ENDBRANCH   7   8
ENDBRANCH   3   7
BRANCH   4  18
ATOM     18  C   UNL     1      34.564 -22.136 -17.414  0.00  0.00    +0.038 C 
BRANCH  18  19
ATOM     19  C   UNL     1      35.687 -22.710 -16.591  0.00  0.00    -0.018 C 
ATOM     20  C   UNL     1      35.405 -23.665 -15.625  0.00  0.00    +0.036 C 
ATOM     21  C   UNL     1      36.986 -22.275 -16.810  0.00  0.00    -0.001 C 
ATOM     22  C   UNL     1      36.444 -24.197 -14.862  0.00  0.00    +0.172 C 
ATOM     23  C   UNL     1      38.025 -22.807 -16.048  0.00  0.00    +0.039 C 
ATOM     24  C   UNL     1      37.754 -23.767 -15.073  0.00  0.00    +0.168 C 
BRANCH  22  25
ATOM     25  O   UNL     1      36.167 -25.133 -13.913  0.00  0.00    -0.468 OA
ATOM     26  C   UNL     1      35.714 -24.659 -12.646  0.00  0.00    +0.253 C 
ENDBRANCH  22  25
BRANCH  24  27
ATOM     27  O   UNL     1      38.778 -24.280 -14.336  0.00  0.00    -0.503 OA
ATOM     28  H   UNL     1      39.605 -24.455 -14.739  0.00  0.00    +0.292 HD
ENDBRANCH  24  27
ENDBRANCH  18  19
ENDBRANCH   4  18
TORSDOF 8
ENDMDL
MODEL 6
REMARK VINA RESULT:      -9.5      6.204      9.302
REMARK  Name = 119205
REMARK  8 active torsions:
REMARK  status: ('A' for Active; 'I' for Inactive)
REMARK    1  A    between atoms: C_3  and  C_7
REMARK    2  A    between atoms: C_4  and  C_18
REMARK    3  A    between atoms: C_7  and  C_8
REMARK    4  A    between atoms: C_11  and  O_14
REMARK    5  A    between atoms: C_13  and  O_16
REMARK    6  A    between atoms: C_18  and  C_19
REMARK    7  A    between atoms: C_22  and  O_25
REMARK    8  A    between atoms: C_24  and  O_27
REMARK                            x       y       z     vdW  Elec       q    Type
REMARK                         _______ _______ _______ _____ _____    ______ ____
ROOT
ATOM      1  O   UNL     1      30.921 -11.068 -20.032  0.00  0.00    -0.448 OA
ATOM      2  O   UNL     1      32.344  -9.617 -18.974  0.00  0.00    -0.250 OA
ATOM      3  C   UNL     1      31.774 -10.931 -22.212  0.00  0.00    +0.059 C 
ATOM      4  C   UNL     1      32.337  -9.770 -21.399  0.00  0.00    +0.107 C 
ATOM      5  C   UNL     1      30.571 -11.354 -21.391  0.00  0.00    +0.209 C 
ATOM      6  C   UNL     1      31.906 -10.120 -19.998  0.00  0.00    +0.317 C 
ENDROOT
BRANCH   3   7
ATOM      7  C   UNL     1      32.789 -12.071 -22.326  0.00  0.00    +0.031 C 
BRANCH   7   8
ATOM      8  C   UNL     1      33.080 -12.424 -23.762  0.00  0.00    -0.019 C 
ATOM      9  C   UNL     1      32.884 -13.726 -24.197  0.00  0.00    +0.036 C 
ATOM     10  C   UNL     1      33.542 -11.441 -24.625  0.00  0.00    -0.001 C 
ATOM     11  C   UNL     1      33.155 -14.052 -25.526  0.00  0.00    +0.172 C 
ATOM     12  C   UNL     1      33.812 -11.767 -25.953  0.00  0.00    +0.039 C 
ATOM     13  C   UNL     1      33.618 -13.073 -26.404  0.00  0.00    +0.168 C 
BRANCH  11  14
ATOM     14  O   UNL     1      32.963 -15.332 -25.954  0.00  0.00    -0.468 OA
ATOM     15  C   UNL     1      33.882 -16.316 -25.486  0.00  0.00    +0.253 C 
ENDBRANCH  11  14
BRANCH  13  16
ATOM     16  O   UNL     1      33.886 -13.379 -27.704  0.00  0.00    -0.503 OA
ATOM     17  H   UNL     1      34.774 -13.468 -27.991  0.00  0.00    +0.292 HD
ENDBRANCH  13  16
ENDBRANCH   7   8
ENDBRANCH   3   7
BRANCH   4  18
ATOM     18  C   UNL     1      31.749  -8.423 -21.798  0.00  0.00    +0.038 C 
BRANCH  18  19
ATOM     19  C   UNL     1      32.566  -7.747 -22.868  0.00  0.00    -0.018 C 
ATOM     20  C   UNL     1      31.984  -6.756 -23.646  0.00  0.00    +0.036 C 
ATOM     21  C   UNL     1      33.886  -8.126 -23.061  0.00  0.00    -0.001 C 
ATOM     22  C   UNL     1      32.739  -6.130 -24.637  0.00  0.00    +0.172 C 
ATOM     23  C   UNL     1      34.642  -7.500 -24.053  0.00  0.00    +0.039 C 
ATOM     24  C   UNL     1      34.068  -6.502 -24.841  0.00  0.00    +0.168 C 
BRANCH  22  25
ATOM     25  O   UNL     1      32.168  -5.158 -25.400  0.00  0.00    -0.468 OA
ATOM     26  C   UNL     1      31.009  -4.515 -24.872  0.00  0.00    +0.253 C 
ENDBRANCH  22  25
BRANCH  24  27
ATOM     27  O   UNL     1      34.815  -5.898 -25.805  0.00  0.00    -0.503 OA
ATOM     28  H   UNL     1      35.042  -4.992 -25.724  0.00  0.00    +0.292 HD
ENDBRANCH  24  27
ENDBRANCH  18  19
ENDBRANCH   4  18
TORSDOF 8
ENDMDL
MODEL 7
REMARK VINA RESULT:      -9.2      2.247      9.043
REMARK  Name = 119205
REMARK  8 active torsions:
REMARK  status: ('A' for Active; 'I' for Inactive)
REMARK    1  A    between atoms: C_3  and  C_7
REMARK    2  A    between atoms: C_4  and  C_18
REMARK    3  A    between atoms: C_7  and  C_8
REMARK    4  A    between atoms: C_11  and  O_14
REMARK    5  A    between atoms: C_13  and  O_16
REMARK    6  A    between atoms: C_18  and  C_19
REMARK    7  A    between atoms: C_22  and  O_25
REMARK    8  A    between atoms: C_24  and  O_27
REMARK                            x       y       z     vdW  Elec       q    Type
REMARK                         _______ _______ _______ _____ _____    ______ ____
ROOT
ATOM      1  O   UNL     1      37.081 -21.310 -19.868  0.00  0.00    -0.448 OA
ATOM      2  O   UNL     1      36.730 -21.556 -17.617  0.00  0.00    -0.250 OA
ATOM      3  C   UNL     1      34.907 -20.747 -20.543  0.00  0.00    +0.059 C 
ATOM      4  C   UNL     1      34.842 -21.314 -19.128  0.00  0.00    +0.107 C 
ATOM      5  C   UNL     1      36.252 -21.243 -21.035  0.00  0.00    +0.209 C 
ATOM      6  C   UNL     1      36.299 -21.400 -18.750  0.00  0.00    +0.317 C 
ENDROOT
BRANCH   3   7
ATOM      7  C   UNL     1      34.858 -19.217 -20.530  0.00  0.00    +0.031 C 
BRANCH   7   8
ATOM      8  C   UNL     1      34.842 -18.642 -21.923  0.00  0.00    -0.019 C 
ATOM      9  C   UNL     1      35.049 -17.283 -22.103  0.00  0.00    +0.036 C 
ATOM     10  C   UNL     1      34.620 -19.483 -23.004  0.00  0.00    -0.001 C 
ATOM     11  C   UNL     1      35.033 -16.752 -23.391  0.00  0.00    +0.172 C 
ATOM     12  C   UNL     1      34.604 -18.951 -24.293  0.00  0.00    +0.039 C 
ATOM     13  C   UNL     1      34.811 -17.585 -24.487  0.00  0.00    +0.168 C 
BRANCH  11  14
ATOM     14  O   UNL     1      35.236 -15.416 -23.568  0.00  0.00    -0.468 OA
ATOM     15  C   UNL     1      34.283 -14.533 -22.980  0.00  0.00    +0.253 C 
ENDBRANCH  11  14
BRANCH  13  16
ATOM     16  O   UNL     1      34.793 -17.078 -25.751  0.00  0.00    -0.503 OA
ATOM     17  H   UNL     1      34.240 -17.462 -26.402  0.00  0.00    +0.292 HD
ENDBRANCH  13  16
ENDBRANCH   7   8
ENDBRANCH   3   7
BRANCH   4  18
ATOM     18  C   UNL     1      34.212 -22.698 -19.069  0.00  0.00    +0.038 C 
BRANCH  18  19
ATOM     19  C   UNL     1      33.511 -22.942 -17.758  0.00  0.00    -0.018 C 
ATOM     20  C   UNL     1      34.221 -23.485 -16.697  0.00  0.00    +0.036 C 
ATOM     21  C   UNL     1      32.168 -22.621 -17.632  0.00  0.00    -0.001 C 
ATOM     22  C   UNL     1      33.573 -23.711 -15.483  0.00  0.00    +0.172 C 
ATOM     23  C   UNL     1      31.519 -22.847 -16.418  0.00  0.00    +0.039 C 
ATOM     24  C   UNL     1      32.222 -23.393 -15.344  0.00  0.00    +0.168 C 
BRANCH  22  25
ATOM     25  O   UNL     1      34.269 -24.246 -14.442  0.00  0.00    -0.468 OA
ATOM     26  C   UNL     1      35.555 -24.790 -14.733  0.00  0.00    +0.253 C 
ENDBRANCH  22  25
BRANCH  24  27
ATOM     27  O   UNL     1      31.579 -23.609 -14.163  0.00  0.00    -0.503 OA
ATOM     28  H   UNL     1      31.778 -24.368 -13.652  0.00  0.00    +0.292 HD
ENDBRANCH  24  27
ENDBRANCH  18  19
ENDBRANCH   4  18
TORSDOF 8
ENDMDL
MODEL 8
REMARK VINA RESULT:      -9.2      1.078      8.692
REMARK  Name = 119205
REMARK  8 active torsions:
REMARK  status: ('A' for Active; 'I' for Inactive)
REMARK    1  A    between atoms: C_3  and  C_7
REMARK    2  A    between atoms: C_4  and  C_18
REMARK    3  A    between atoms: C_7  and  C_8
REMARK    4  A    between atoms: C_11  and  O_14
REMARK    5  A    between atoms: C_13  and  O_16
REMARK    6  A    between atoms: C_18  and  C_19
REMARK    7  A    between atoms: C_22  and  O_25
REMARK    8  A    between atoms: C_24  and  O_27
REMARK                            x       y       z     vdW  Elec       q    Type
REMARK                         _______ _______ _______ _____ _____    ______ ____
ROOT
ATOM      1  O   UNL     1      35.449 -17.318 -23.417  0.00  0.00    -0.448 OA
ATOM      2  O   UNL     1      37.008 -18.686 -22.443  0.00  0.00    -0.250 OA
ATOM      3  C   UNL     1      33.950 -17.098 -21.627  0.00  0.00    +0.059 C 
ATOM      4  C   UNL     1      34.889 -18.263 -21.331  0.00  0.00    +0.107 C 
ATOM      5  C   UNL     1      34.102 -16.926 -23.126  0.00  0.00    +0.209 C 
ATOM      6  C   UNL     1      35.919 -18.131 -22.423  0.00  0.00    +0.317 C 
ENDROOT
BRANCH   3   7
ATOM      7  C   UNL     1      34.384 -15.833 -20.883  0.00  0.00    +0.031 C 
BRANCH   7   8
ATOM      8  C   UNL     1      33.778 -14.591 -21.484  0.00  0.00    -0.019 C 
ATOM      9  C   UNL     1      32.742 -13.949 -20.823  0.00  0.00    +0.036 C 
ATOM     10  C   UNL     1      34.267 -14.109 -22.690  0.00  0.00    -0.001 C 
ATOM     11  C   UNL     1      32.181 -12.800 -21.380  0.00  0.00    +0.172 C 
ATOM     12  C   UNL     1      33.705 -12.960 -23.247  0.00  0.00    +0.039 C 
ATOM     13  C   UNL     1      32.662 -12.305 -22.591  0.00  0.00    +0.168 C 
BRANCH  11  14
ATOM     14  O   UNL     1      31.161 -12.171 -20.731  0.00  0.00    -0.468 OA
ATOM     15  C   UNL     1      31.509 -11.354 -19.616  0.00  0.00    +0.253 C 
ENDBRANCH  11  14
BRANCH  13  16
ATOM     16  O   UNL     1      32.122 -11.184 -23.145  0.00  0.00    -0.503 OA
ATOM     17  H   UNL     1      31.253 -11.206 -23.493  0.00  0.00    +0.292 HD
ENDBRANCH  13  16
ENDBRANCH   7   8
ENDBRANCH   3   7
BRANCH   4  18
ATOM     18  C   UNL     1      34.205 -19.620 -21.428  0.00  0.00    +0.038 C 
BRANCH  18  19
ATOM     19  C   UNL     1      34.601 -20.533 -20.298  0.00  0.00    -0.018 C 
ATOM     20  C   UNL     1      33.665 -21.414 -19.774  0.00  0.00    +0.036 C 
ATOM     21  C   UNL     1      35.893 -20.479 -19.797  0.00  0.00    -0.001 C 
ATOM     22  C   UNL     1      34.031 -22.259 -18.727  0.00  0.00    +0.172 C 
ATOM     23  C   UNL     1      36.259 -21.324 -18.750  0.00  0.00    +0.039 C 
ATOM     24  C   UNL     1      35.328 -22.214 -18.214  0.00  0.00    +0.168 C 
BRANCH  22  25
ATOM     25  O   UNL     1      33.113 -23.122 -18.212  0.00  0.00    -0.468 OA
ATOM     26  C   UNL     1      32.242 -22.617 -17.202  0.00  0.00    +0.253 C 
ENDBRANCH  22  25
BRANCH  24  27
ATOM     27  O   UNL     1      35.697 -23.035 -17.193  0.00  0.00    -0.503 OA
ATOM     28  H   UNL     1      36.596 -23.089 -16.935  0.00  0.00    +0.292 HD
ENDBRANCH  24  27
ENDBRANCH  18  19
ENDBRANCH   4  18
TORSDOF 8
ENDMDL
MODEL 9
REMARK VINA RESULT:      -9.2      7.506     11.081
REMARK  Name = 119205
REMARK  8 active torsions:
REMARK  status: ('A' for Active; 'I' for Inactive)
REMARK    1  A    between atoms: C_3  and  C_7
REMARK    2  A    between atoms: C_4  and  C_18
REMARK    3  A    between atoms: C_7  and  C_8
REMARK    4  A    between atoms: C_11  and  O_14
REMARK    5  A    between atoms: C_13  and  O_16
REMARK    6  A    between atoms: C_18  and  C_19
REMARK    7  A    between atoms: C_22  and  O_25
REMARK    8  A    between atoms: C_24  and  O_27
REMARK                            x       y       z     vdW  Elec       q    Type
REMARK                         _______ _______ _______ _____ _____    ______ ____
ROOT
ATOM      1  O   UNL     1      35.043 -22.247 -18.183  0.00  0.00    -0.448 OA
ATOM      2  O   UNL     1      36.296 -21.682 -16.350  0.00  0.00    -0.250 OA
ATOM      3  C   UNL     1      33.463 -23.646 -17.159  0.00  0.00    +0.059 C 
ATOM      4  C   UNL     1      34.623 -23.437 -16.191  0.00  0.00    +0.107 C 
ATOM      5  C   UNL     1      34.072 -23.254 -18.491  0.00  0.00    +0.209 C 
ATOM      6  C   UNL     1      35.419 -22.354 -16.873  0.00  0.00    +0.317 C 
ENDROOT
BRANCH   3   7
ATOM      7  C   UNL     1      32.280 -22.739 -16.810  0.00  0.00    +0.031 C 
BRANCH   7   8
ATOM      8  C   UNL     1      31.188 -23.490 -16.092  0.00  0.00    -0.019 C 
ATOM      9  C   UNL     1      29.862 -23.205 -16.380  0.00  0.00    +0.036 C 
ATOM     10  C   UNL     1      31.527 -24.454 -15.154  0.00  0.00    -0.001 C 
ATOM     11  C   UNL     1      28.852 -23.900 -15.715  0.00  0.00    +0.172 C 
ATOM     12  C   UNL     1      30.517 -25.149 -14.490  0.00  0.00    +0.039 C 
ATOM     13  C   UNL     1      29.179 -24.872 -14.771  0.00  0.00    +0.168 C 
BRANCH  11  14
ATOM     14  O   UNL     1      27.549 -23.619 -15.997  0.00  0.00    -0.468 OA
ATOM     15  C   UNL     1      27.129 -22.266 -15.839  0.00  0.00    +0.253 C 
ENDBRANCH  11  14
BRANCH  13  16
ATOM     16  O   UNL     1      28.201 -25.557 -14.115  0.00  0.00    -0.503 OA
ATOM     17  H   UNL     1      27.400 -25.765 -14.553  0.00  0.00    +0.292 HD
ENDBRANCH  13  16
ENDBRANCH   7   8
ENDBRANCH   3   7
BRANCH   4  18
ATOM     18  C   UNL     1      35.486 -24.680 -16.019  0.00  0.00    +0.038 C 
BRANCH  18  19
ATOM     19  C   UNL     1      36.204 -24.688 -14.695  0.00  0.00    -0.018 C 
ATOM     20  C   UNL     1      37.587 -24.802 -14.671  0.00  0.00    +0.036 C 
ATOM     21  C   UNL     1      35.474 -24.581 -13.521  0.00  0.00    -0.001 C 
ATOM     22  C   UNL     1      38.252 -24.809 -13.445  0.00  0.00    +0.172 C 
ATOM     23  C   UNL     1      36.139 -24.588 -12.295  0.00  0.00    +0.039 C 
ATOM     24  C   UNL     1      37.529 -24.703 -12.257  0.00  0.00    +0.168 C 
BRANCH  22  25
ATOM     25  O   UNL     1      39.609 -24.923 -13.421  0.00  0.00    -0.468 OA
ATOM     26  C   UNL     1      40.239 -25.426 -14.598  0.00  0.00    +0.253 C 
ENDBRANCH  22  25
BRANCH  24  27
ATOM     27  O   UNL     1      38.167 -24.708 -11.055  0.00  0.00    -0.503 OA
ATOM     28  H   UNL     1      37.696 -24.502 -10.272  0.00  0.00    +0.292 HD
ENDBRANCH  24  27
ENDBRANCH  18  19
ENDBRANCH   4  18
TORSDOF 8
ENDMDL
