MODEL 1
REMARK VINA RESULT:      -4.4      0.000      0.000
REMARK  Name = 61503
REMARK  3 active torsions:
REMARK  status: ('A' for Active; 'I' for Inactive)
REMARK    1  A    between atoms: C_1  and  O_3
REMARK    2  A    between atoms: C_1  and  C_6
REMARK    3  A    between atoms: C_6  and  O_7
REMARK                            x       y       z     vdW  Elec       q    Type
REMARK                         _______ _______ _______ _____ _____    ______ ____
ROOT
ATOM      1  C   UNL     1      38.836 -25.760 -14.298  0.00  0.00    +0.209 C 
ATOM      2  C   UNL     1      37.754 -24.812 -14.786  0.00  0.00    +0.044 C 
ENDROOT
BRANCH   1   3
ATOM      3  O   UNL     1      38.509 -27.067 -14.745  0.00  0.00    -0.374 OA
ATOM      4  H   UNL     1      37.944 -27.502 -14.087  0.00  0.00    +0.211 HD
ENDBRANCH   1   3
BRANCH   1   6
ATOM      5  O   UNL     1      41.007 -24.669 -14.299  0.00  0.00    -0.248 OA
ATOM      6  C   UNL     1      40.190 -25.385 -14.862  0.00  0.00    +0.341 C 
BRANCH   6   7
ATOM      7  O   UNL     1      40.417 -25.953 -16.075  0.00  0.00    -0.479 OA
ATOM      8  H   UNL     1      39.713 -26.055 -16.684  0.00  0.00    +0.295 HD
ENDBRANCH   6   7
ENDBRANCH   1   6
TORSDOF 3
ENDMDL
MODEL 2
REMARK VINA RESULT:      -4.3     11.668     12.650
REMARK  Name = 61503
REMARK  3 active torsions:
REMARK  status: ('A' for Active; 'I' for Inactive)
REMARK    1  A    between atoms: C_1  and  O_3
REMARK    2  A    between atoms: C_1  and  C_6
REMARK    3  A    between atoms: C_6  and  O_7
REMARK                            x       y       z     vdW  Elec       q    Type
REMARK                         _______ _______ _______ _____ _____    ______ ____
ROOT
ATOM      1  C   UNL     1      28.166 -23.161 -16.865  0.00  0.00    +0.209 C 
ATOM      2  C   UNL     1      28.757 -23.745 -15.593  0.00  0.00    +0.044 C 
ENDROOT
BRANCH   1   3
ATOM      3  O   UNL     1      27.646 -24.231 -17.640  0.00  0.00    -0.374 OA
ATOM      4  H   UNL     1      27.638 -25.042 -17.107  0.00  0.00    +0.211 HD
ENDBRANCH   1   3
BRANCH   1   6
ATOM      5  O   UNL     1      26.308 -22.273 -15.576  0.00  0.00    -0.248 OA
ATOM      6  C   UNL     1      27.038 -22.200 -16.555  0.00  0.00    +0.341 C 
BRANCH   6   7
ATOM      7  O   UNL     1      26.930 -21.216 -17.485  0.00  0.00    -0.479 OA
ATOM      8  H   UNL     1      27.213 -20.346 -17.282  0.00  0.00    +0.295 HD
ENDBRANCH   6   7
ENDBRANCH   1   6
TORSDOF 3
ENDMDL
MODEL 3
REMARK VINA RESULT:      -4.2      4.286      5.239
REMARK  Name = 61503
REMARK  3 active torsions:
REMARK  status: ('A' for Active; 'I' for Inactive)
REMARK    1  A    between atoms: C_1  and  O_3
REMARK    2  A    between atoms: C_1  and  C_6
REMARK    3  A    between atoms: C_6  and  O_7
REMARK                            x       y       z     vdW  Elec       q    Type
REMARK                         _______ _______ _______ _____ _____    ______ ____
ROOT
ATOM      1  C   UNL     1      36.637 -25.092 -12.300  0.00  0.00    +0.209 C 
ATOM      2  C   UNL     1      37.936 -24.354 -12.025  0.00  0.00    +0.044 C 
ENDROOT
BRANCH   1   3
ATOM      3  O   UNL     1      36.849 -26.470 -12.029  0.00  0.00    -0.374 OA
ATOM      4  H   UNL     1      37.790 -26.624 -11.851  0.00  0.00    +0.211 HD
ENDBRANCH   1   3
BRANCH   1   6
ATOM      5  O   UNL     1      35.295 -25.008 -10.276  0.00  0.00    -0.248 OA
ATOM      6  C   UNL     1      35.523 -24.593 -11.405  0.00  0.00    +0.341 C 
BRANCH   6   7
ATOM      7  O   UNL     1      34.799 -23.603 -11.988  0.00  0.00    -0.479 OA
ATOM      8  H   UNL     1      33.895 -23.741 -12.192  0.00  0.00    +0.295 HD
ENDBRANCH   6   7
ENDBRANCH   1   6
TORSDOF 3
ENDMDL
MODEL 4
REMARK VINA RESULT:      -4.1      4.593      5.236
REMARK  Name = 61503
REMARK  3 active torsions:
REMARK  status: ('A' for Active; 'I' for Inactive)
REMARK    1  A    between atoms: C_1  and  O_3
REMARK    2  A    between atoms: C_1  and  C_6
REMARK    3  A    between atoms: C_6  and  O_7
REMARK                            x       y       z     vdW  Elec       q    Type
REMARK                         _______ _______ _______ _____ _____    ______ ____
ROOT
ATOM      1  C   UNL     1      36.042 -24.479 -12.202  0.00  0.00    +0.209 C 
ATOM      2  C   UNL     1      36.940 -25.652 -12.558  0.00  0.00    +0.044 C 
ENDROOT
BRANCH   1   3
ATOM      3  O   UNL     1      34.775 -24.996 -11.824  0.00  0.00    -0.374 OA
ATOM      4  H   UNL     1      34.791 -25.964 -11.875  0.00  0.00    +0.211 HD
ENDBRANCH   1   3
BRANCH   1   6
ATOM      5  O   UNL     1      37.366 -22.738 -11.143  0.00  0.00    -0.248 OA
ATOM      6  C   UNL     1      36.605 -23.691 -11.038  0.00  0.00    +0.341 C 
BRANCH   6   7
ATOM      7  O   UNL     1      36.153 -24.147  -9.841  0.00  0.00    -0.479 OA
ATOM      8  H   UNL     1      35.476 -23.684  -9.389  0.00  0.00    +0.295 HD
ENDBRANCH   6   7
ENDBRANCH   1   6
TORSDOF 3
ENDMDL
MODEL 5
REMARK VINA RESULT:      -4.1     10.615     11.515
REMARK  Name = 61503
REMARK  3 active torsions:
REMARK  status: ('A' for Active; 'I' for Inactive)
REMARK    1  A    between atoms: C_1  and  O_3
REMARK    2  A    between atoms: C_1  and  C_6
REMARK    3  A    between atoms: C_6  and  O_7
REMARK                            x       y       z     vdW  Elec       q    Type
REMARK                         _______ _______ _______ _____ _____    ______ ____
ROOT
ATOM      1  C   UNL     1      41.819 -14.306 -16.310  0.00  0.00    +0.209 C 
ATOM      2  C   UNL     1      41.285 -14.165 -17.725  0.00  0.00    +0.044 C 
ENDROOT
BRANCH   1   3
ATOM      3  O   UNL     1      41.833 -13.017 -15.716  0.00  0.00    -0.374 OA
ATOM      4  H   UNL     1      41.071 -12.506 -16.032  0.00  0.00    +0.211 HD
ENDBRANCH   1   3
BRANCH   1   6
ATOM      5  O   UNL     1      40.647 -16.364 -15.764  0.00  0.00    -0.248 OA
ATOM      6  C   UNL     1      40.934 -15.209 -15.477  0.00  0.00    +0.341 C 
BRANCH   6   7
ATOM      7  O   UNL     1      40.498 -14.600 -14.344  0.00  0.00    -0.479 OA
ATOM      8  H   UNL     1      41.116 -14.246 -13.735  0.00  0.00    +0.295 HD
ENDBRANCH   6   7
ENDBRANCH   1   6
TORSDOF 3
ENDMDL
MODEL 6
REMARK VINA RESULT:      -4.1      4.847      5.668
REMARK  Name = 61503
REMARK  3 active torsions:
REMARK  status: ('A' for Active; 'I' for Inactive)
REMARK    1  A    between atoms: C_1  and  O_3
REMARK    2  A    between atoms: C_1  and  C_6
REMARK    3  A    between atoms: C_6  and  O_7
REMARK                            x       y       z     vdW  Elec       q    Type
REMARK                         _______ _______ _______ _____ _____    ______ ____
ROOT
ATOM      1  C   UNL     1      37.010 -23.661 -11.679  0.00  0.00    +0.209 C 
ATOM      2  C   UNL     1      37.136 -23.463 -13.180  0.00  0.00    +0.044 C 
ENDROOT
BRANCH   1   3
ATOM      3  O   UNL     1      37.212 -22.403 -11.051  0.00  0.00    -0.374 OA
ATOM      4  H   UNL     1      37.686 -21.812 -11.657  0.00  0.00    +0.211 HD
ENDBRANCH   1   3
BRANCH   1   6
ATOM      5  O   UNL     1      35.403 -24.978 -10.419  0.00  0.00    -0.248 OA
ATOM      6  C   UNL     1      35.632 -24.167 -11.306  0.00  0.00    +0.341 C 
BRANCH   6   7
ATOM      7  O   UNL     1      34.655 -23.600 -12.059  0.00  0.00    -0.479 OA
ATOM      8  H   UNL     1      34.727 -22.704 -12.324  0.00  0.00    +0.295 HD
ENDBRANCH   6   7
ENDBRANCH   1   6
TORSDOF 3
ENDMDL
MODEL 7
REMARK VINA RESULT:      -4.0      2.056      3.546
REMARK  Name = 61503
REMARK  3 active torsions:
REMARK  status: ('A' for Active; 'I' for Inactive)
REMARK    1  A    between atoms: C_1  and  O_3
REMARK    2  A    between atoms: C_1  and  C_6
REMARK    3  A    between atoms: C_6  and  O_7
REMARK                            x       y       z     vdW  Elec       q    Type
REMARK                         _______ _______ _______ _____ _____    ______ ____
ROOT
ATOM      1  C   UNL     1      37.818 -26.085 -14.404  0.00  0.00    +0.209 C 
ATOM      2  C   UNL     1      37.476 -26.149 -12.926  0.00  0.00    +0.044 C 
ENDROOT
BRANCH   1   3
ATOM      3  O   UNL     1      38.903 -26.970 -14.642  0.00  0.00    -0.374 OA
ATOM      4  H   UNL     1      38.561 -27.837 -14.909  0.00  0.00    +0.211 HD
ENDBRANCH   1   3
BRANCH   1   6
ATOM      5  O   UNL     1      36.717 -27.319 -16.185  0.00  0.00    -0.248 OA
ATOM      6  C   UNL     1      36.647 -26.522 -15.259  0.00  0.00    +0.341 C 
BRANCH   6   7
ATOM      7  O   UNL     1      35.482 -25.942 -14.870  0.00  0.00    -0.479 OA
ATOM      8  H   UNL     1      35.401 -25.009 -14.867  0.00  0.00    +0.295 HD
ENDBRANCH   6   7
ENDBRANCH   1   6
TORSDOF 3
ENDMDL
MODEL 8
REMARK VINA RESULT:      -4.0      9.244      9.863
REMARK  Name = 61503
REMARK  3 active torsions:
REMARK  status: ('A' for Active; 'I' for Inactive)
REMARK    1  A    between atoms: C_1  and  O_3
REMARK    2  A    between atoms: C_1  and  C_6
REMARK    3  A    between atoms: C_6  and  O_7
REMARK                            x       y       z     vdW  Elec       q    Type
REMARK                         _______ _______ _______ _____ _____    ______ ____
ROOT
ATOM      1  C   UNL     1      41.136 -15.789 -15.202  0.00  0.00    +0.209 C 
ATOM      2  C   UNL     1      40.989 -14.304 -15.485  0.00  0.00    +0.044 C 
ENDROOT
BRANCH   1   3
ATOM      3  O   UNL     1      39.847 -16.380 -15.277  0.00  0.00    -0.374 OA
ATOM      4  H   UNL     1      39.907 -17.229 -15.741  0.00  0.00    +0.211 HD
ENDBRANCH   1   3
BRANCH   1   6
ATOM      5  O   UNL     1      43.193 -16.146 -16.446  0.00  0.00    -0.248 OA
ATOM      6  C   UNL     1      42.029 -16.457 -16.226  0.00  0.00    +0.341 C 
BRANCH   6   7
ATOM      7  O   UNL     1      41.401 -17.471 -16.874  0.00  0.00    -0.479 OA
ATOM      8  H   UNL     1      40.934 -17.302 -17.668  0.00  0.00    +0.295 HD
ENDBRANCH   6   7
ENDBRANCH   1   6
TORSDOF 3
ENDMDL
MODEL 9
REMARK VINA RESULT:      -4.0      2.427      3.063
REMARK  Name = 61503
REMARK  3 active torsions:
REMARK  status: ('A' for Active; 'I' for Inactive)
REMARK    1  A    between atoms: C_1  and  O_3
REMARK    2  A    between atoms: C_1  and  C_6
REMARK    3  A    between atoms: C_6  and  O_7
REMARK                            x       y       z     vdW  Elec       q    Type
REMARK                         _______ _______ _______ _____ _____    ______ ____
ROOT
ATOM      1  C   UNL     1      36.711 -25.536 -14.267  0.00  0.00    +0.209 C 
ATOM      2  C   UNL     1      35.463 -25.089 -15.008  0.00  0.00    +0.044 C 
ENDROOT
BRANCH   1   3
ATOM      3  O   UNL     1      36.318 -25.999 -12.983  0.00  0.00    -0.374 OA
ATOM      4  H   UNL     1      35.944 -25.262 -12.475  0.00  0.00    +0.211 HD
ENDBRANCH   1   3
BRANCH   1   6
ATOM      5  O   UNL     1      38.445 -27.202 -14.625  0.00  0.00    -0.248 OA
ATOM      6  C   UNL     1      37.405 -26.669 -14.993  0.00  0.00    +0.341 C 
BRANCH   6   7
ATOM      7  O   UNL     1      36.731 -27.056 -16.107  0.00  0.00    -0.479 OA
ATOM      8  H   UNL     1      36.354 -27.913 -16.152  0.00  0.00    +0.295 HD
ENDBRANCH   6   7
ENDBRANCH   1   6
TORSDOF 3
ENDMDL
