MODEL 1
REMARK VINA RESULT:      -8.4      0.000      0.000
REMARK  Name = 3639
REMARK  2 active torsions:
REMARK  status: ('A' for Active; 'I' for Inactive)
REMARK    1  A    between atoms: C_11  and  S_16
REMARK    2  A    between atoms: S_16  and  N_19
REMARK                            x       y       z     vdW  Elec       q    Type
REMARK                         _______ _______ _______ _____ _____    ______ ____
ROOT
ATOM      1 CL   UNL     1      37.994 -24.089 -14.568  0.00  0.00    -0.081 Cl
ATOM      2  S   UNL     1      31.760 -24.002 -13.983  0.00  0.00    +0.063 S 
ATOM      3  O   UNL     1      31.294 -25.353 -14.222  0.00  0.00    -0.153 OA
ATOM      4  O   UNL     1      31.469 -23.302 -12.748  0.00  0.00    -0.153 OA
ATOM      5  N   UNL     1      31.307 -23.000 -15.291  0.00  0.00    -0.160 NA
ATOM      6  N   UNL     1      33.376 -23.282 -16.528  0.00  0.00    -0.317 N 
ATOM      7  C   UNL     1      33.514 -24.039 -14.187  0.00  0.00    +0.136 C 
ATOM      8  C   UNL     1      34.095 -23.684 -15.414  0.00  0.00    +0.065 C 
ATOM      9  C   UNL     1      31.932 -23.343 -16.582  0.00  0.00    +0.182 C 
ATOM     10  C   UNL     1      34.280 -24.410 -13.078  0.00  0.00    +0.042 C 
ATOM     11  C   UNL     1      35.667 -24.432 -13.183  0.00  0.00    +0.134 C 
ATOM     12  C   UNL     1      35.498 -23.706 -15.483  0.00  0.00    +0.028 C 
ATOM     13  C   UNL     1      36.277 -24.079 -14.384  0.00  0.00    +0.078 C 
ATOM     14  H   UNL     1      31.564 -22.040 -15.059  0.00  0.00    +0.151 HD
ATOM     15  H   UNL     1      33.865 -22.943 -17.312  0.00  0.00    +0.148 HD
ENDROOT
BRANCH  11  16
ATOM     16  S   UNL     1      36.593 -24.916 -11.776  0.00  0.00    +0.058 S 
ATOM     17  O   UNL     1      37.112 -26.254 -12.014  0.00  0.00    -0.153 OA
ATOM     18  O   UNL     1      37.501 -23.834 -11.432  0.00  0.00    -0.153 OA
BRANCH  16  19
ATOM     19  N   UNL     1      35.361 -24.999 -10.597  0.00  0.00    -0.203 NA
ATOM     20  H   UNL     1      34.568 -24.429 -10.892  0.00  0.00    +0.144 HD
ATOM     21  H   UNL     1      35.718 -24.650  -9.708  0.00  0.00    +0.144 HD
ENDBRANCH  16  19
ENDBRANCH  11  16
TORSDOF 2
ENDMDL
MODEL 2
REMARK VINA RESULT:      -7.8      4.584      6.227
REMARK  Name = 3639
REMARK  2 active torsions:
REMARK  status: ('A' for Active; 'I' for Inactive)
REMARK    1  A    between atoms: C_11  and  S_16
REMARK    2  A    between atoms: S_16  and  N_19
REMARK                            x       y       z     vdW  Elec       q    Type
REMARK                         _______ _______ _______ _____ _____    ______ ____
ROOT
ATOM      1 CL   UNL     1      30.428 -23.703 -12.978  0.00  0.00    -0.081 Cl
ATOM      2  S   UNL     1      33.635 -22.792 -18.278  0.00  0.00    +0.063 S 
ATOM      3  O   UNL     1      33.749 -24.082 -18.931  0.00  0.00    -0.153 OA
ATOM      4  O   UNL     1      33.030 -21.654 -18.940  0.00  0.00    -0.153 OA
ATOM      5  N   UNL     1      35.163 -22.318 -17.678  0.00  0.00    -0.160 NA
ATOM      6  N   UNL     1      34.840 -23.246 -15.459  0.00  0.00    -0.317 N 
ATOM      7  C   UNL     1      32.760 -23.075 -16.771  0.00  0.00    +0.136 C 
ATOM      8  C   UNL     1      33.458 -23.267 -15.569  0.00  0.00    +0.065 C 
ATOM      9  C   UNL     1      35.708 -23.181 -16.614  0.00  0.00    +0.182 C 
ATOM     10  C   UNL     1      31.363 -23.074 -16.831  0.00  0.00    +0.042 C 
ATOM     11  C   UNL     1      30.630 -23.269 -15.666  0.00  0.00    +0.134 C 
ATOM     12  C   UNL     1      32.688 -23.451 -14.408  0.00  0.00    +0.028 C 
ATOM     13  C   UNL     1      31.290 -23.457 -14.454  0.00  0.00    +0.078 C 
ATOM     14  H   UNL     1      35.078 -21.372 -17.306  0.00  0.00    +0.151 HD
ATOM     15  H   UNL     1      35.245 -23.277 -14.563  0.00  0.00    +0.148 HD
ENDROOT
BRANCH  11  16
ATOM     16  S   UNL     1      28.882 -23.276 -15.783  0.00  0.00    +0.058 S 
ATOM     17  O   UNL     1      28.392 -24.514 -15.195  0.00  0.00    -0.153 OA
ATOM     18  O   UNL     1      28.386 -21.997 -15.301  0.00  0.00    -0.153 OA
BRANCH  16  19
ATOM     19  N   UNL     1      28.676 -23.346 -17.476  0.00  0.00    -0.203 NA
ATOM     20  H   UNL     1      27.951 -24.029 -17.703  0.00  0.00    +0.144 HD
ATOM     21  H   UNL     1      29.553 -23.625 -17.914  0.00  0.00    +0.144 HD
ENDBRANCH  16  19
ENDBRANCH  11  16
TORSDOF 2
ENDMDL
MODEL 3
REMARK VINA RESULT:      -7.8      3.595      5.885
REMARK  Name = 3639
REMARK  2 active torsions:
REMARK  status: ('A' for Active; 'I' for Inactive)
REMARK    1  A    between atoms: C_11  and  S_16
REMARK    2  A    between atoms: S_16  and  N_19
REMARK                            x       y       z     vdW  Elec       q    Type
REMARK                         _______ _______ _______ _____ _____    ______ ____
ROOT
ATOM      1 CL   UNL     1      31.181 -23.055 -16.680  0.00  0.00    -0.081 Cl
ATOM      2  S   UNL     1      36.933 -23.704 -14.292  0.00  0.00    +0.063 S 
ATOM      3  O   UNL     1      37.312 -25.091 -14.473  0.00  0.00    -0.153 OA
ATOM      4  O   UNL     1      37.730 -22.620 -14.829  0.00  0.00    -0.153 OA
ATOM      5  N   UNL     1      36.653 -23.398 -12.634  0.00  0.00    -0.160 NA
ATOM      6  N   UNL     1      34.266 -23.831 -12.717  0.00  0.00    -0.317 N 
ATOM      7  C   UNL     1      35.297 -23.548 -14.938  0.00  0.00    +0.136 C 
ATOM      8  C   UNL     1      34.185 -23.633 -14.087  0.00  0.00    +0.065 C 
ATOM      9  C   UNL     1      35.514 -24.131 -12.051  0.00  0.00    +0.182 C 
ATOM     10  C   UNL     1      35.170 -23.318 -16.311  0.00  0.00    +0.042 C 
ATOM     11  C   UNL     1      33.902 -23.165 -16.864  0.00  0.00    +0.134 C 
ATOM     12  C   UNL     1      32.920 -23.464 -14.674  0.00  0.00    +0.028 C 
ATOM     13  C   UNL     1      32.777 -23.237 -16.047  0.00  0.00    +0.078 C 
ATOM     14  H   UNL     1      36.478 -22.399 -12.521  0.00  0.00    +0.151 HD
ATOM     15  H   UNL     1      33.445 -23.766 -12.179  0.00  0.00    +0.148 HD
ENDROOT
BRANCH  11  16
ATOM     16  S   UNL     1      33.782 -22.892 -18.590  0.00  0.00    +0.058 S 
ATOM     17  O   UNL     1      33.741 -24.186 -19.253  0.00  0.00    -0.153 OA
ATOM     18  O   UNL     1      32.728 -21.919 -18.827  0.00  0.00    -0.153 OA
BRANCH  16  19
ATOM     19  N   UNL     1      35.291 -22.156 -18.902  0.00  0.00    -0.203 NA
ATOM     20  H   UNL     1      35.863 -22.181 -18.057  0.00  0.00    +0.144 HD
ATOM     21  H   UNL     1      35.145 -21.187 -19.184  0.00  0.00    +0.144 HD
ENDBRANCH  16  19
ENDBRANCH  11  16
TORSDOF 2
ENDMDL
MODEL 4
REMARK VINA RESULT:      -7.7     11.754     12.954
REMARK  Name = 3639
REMARK  2 active torsions:
REMARK  status: ('A' for Active; 'I' for Inactive)
REMARK    1  A    between atoms: C_11  and  S_16
REMARK    2  A    between atoms: S_16  and  N_19
REMARK                            x       y       z     vdW  Elec       q    Type
REMARK                         _______ _______ _______ _____ _____    ______ ____
ROOT
ATOM      1 CL   UNL     1      35.076 -19.545 -24.261  0.00  0.00    -0.081 Cl
ATOM      2  S   UNL     1      33.351 -13.537 -23.887  0.00  0.00    +0.063 S 
ATOM      3  O   UNL     1      31.967 -13.520 -23.456  0.00  0.00    -0.153 OA
ATOM      4  O   UNL     1      34.389 -12.852 -23.143  0.00  0.00    -0.153 OA
ATOM      5  N   UNL     1      33.447 -13.049 -25.522  0.00  0.00    -0.160 NA
ATOM      6  N   UNL     1      33.342 -15.294 -26.440  0.00  0.00    -0.317 N 
ATOM      7  C   UNL     1      33.808 -15.237 -24.020  0.00  0.00    +0.136 C 
ATOM      8  C   UNL     1      33.745 -15.895 -25.258  0.00  0.00    +0.065 C 
ATOM      9  C   UNL     1      32.791 -13.957 -26.480  0.00  0.00    +0.182 C 
ATOM     10  C   UNL     1      34.249 -15.875 -22.857  0.00  0.00    +0.042 C 
ATOM     11  C   UNL     1      34.642 -17.208 -22.917  0.00  0.00    +0.134 C 
ATOM     12  C   UNL     1      34.159 -17.237 -25.287  0.00  0.00    +0.028 C 
ATOM     13  C   UNL     1      34.599 -17.890 -24.131  0.00  0.00    +0.078 C 
ATOM     14  H   UNL     1      34.433 -12.981 -25.774  0.00  0.00    +0.151 HD
ATOM     15  H   UNL     1      33.435 -15.793 -27.283  0.00  0.00    +0.148 HD
ENDROOT
BRANCH  11  16
ATOM     16  S   UNL     1      35.176 -17.978 -21.436  0.00  0.00    +0.058 S 
ATOM     17  O   UNL     1      34.147 -18.917 -21.017  0.00  0.00    -0.153 OA
ATOM     18  O   UNL     1      36.544 -18.433 -21.625  0.00  0.00    -0.153 OA
BRANCH  16  19
ATOM     19  N   UNL     1      35.180 -16.646 -20.368  0.00  0.00    -0.203 NA
ATOM     20  H   UNL     1      34.951 -16.965 -19.426  0.00  0.00    +0.144 HD
ATOM     21  H   UNL     1      34.487 -15.963 -20.673  0.00  0.00    +0.144 HD
ENDBRANCH  16  19
ENDBRANCH  11  16
TORSDOF 2
ENDMDL
MODEL 5
REMARK VINA RESULT:      -7.7      3.259      4.164
REMARK  Name = 3639
REMARK  2 active torsions:
REMARK  status: ('A' for Active; 'I' for Inactive)
REMARK    1  A    between atoms: C_11  and  S_16
REMARK    2  A    between atoms: S_16  and  N_19
REMARK                            x       y       z     vdW  Elec       q    Type
REMARK                         _______ _______ _______ _____ _____    ______ ____
ROOT
ATOM      1 CL   UNL     1      36.324 -23.243 -13.072  0.00  0.00    -0.081 Cl
ATOM      2  S   UNL     1      33.752 -22.641 -18.750  0.00  0.00    +0.063 S 
ATOM      3  O   UNL     1      33.947 -23.901 -19.438  0.00  0.00    -0.153 OA
ATOM      4  O   UNL     1      32.432 -22.077 -18.550  0.00  0.00    -0.153 OA
ATOM      5  N   UNL     1      34.749 -21.444 -19.453  0.00  0.00    -0.160 NA
ATOM      6  N   UNL     1      36.608 -21.763 -17.925  0.00  0.00    -0.317 N 
ATOM      7  C   UNL     1      34.514 -22.818 -17.166  0.00  0.00    +0.136 C 
ATOM      8  C   UNL     1      35.826 -22.368 -16.954  0.00  0.00    +0.065 C 
ATOM      9  C   UNL     1      36.198 -21.680 -19.310  0.00  0.00    +0.182 C 
ATOM     10  C   UNL     1      33.749 -23.396 -16.149  0.00  0.00    +0.042 C 
ATOM     11  C   UNL     1      34.297 -23.536 -14.878  0.00  0.00    +0.134 C 
ATOM     12  C   UNL     1      36.346 -22.514 -15.657  0.00  0.00    +0.028 C 
ATOM     13  C   UNL     1      35.595 -23.094 -14.631  0.00  0.00    +0.078 C 
ATOM     14  H   UNL     1      34.528 -20.550 -19.015  0.00  0.00    +0.151 HD
ATOM     15  H   UNL     1      37.474 -21.376 -17.664  0.00  0.00    +0.148 HD
ENDROOT
BRANCH  11  16
ATOM     16  S   UNL     1      33.314 -24.278 -13.633  0.00  0.00    +0.058 S 
ATOM     17  O   UNL     1      32.457 -25.270 -14.263  0.00  0.00    -0.153 OA
ATOM     18  O   UNL     1      34.183 -24.662 -12.532  0.00  0.00    -0.153 OA
BRANCH  16  19
ATOM     19  N   UNL     1      32.360 -22.949 -13.145  0.00  0.00    -0.203 NA
ATOM     20  H   UNL     1      32.947 -22.268 -12.662  0.00  0.00    +0.144 HD
ATOM     21  H   UNL     1      31.625 -23.271 -12.515  0.00  0.00    +0.144 HD
ENDBRANCH  16  19
ENDBRANCH  11  16
TORSDOF 2
ENDMDL
MODEL 6
REMARK VINA RESULT:      -7.6      3.174      5.116
REMARK  Name = 3639
REMARK  2 active torsions:
REMARK  status: ('A' for Active; 'I' for Inactive)
REMARK    1  A    between atoms: C_11  and  S_16
REMARK    2  A    between atoms: S_16  and  N_19
REMARK                            x       y       z     vdW  Elec       q    Type
REMARK                         _______ _______ _______ _____ _____    ______ ____
ROOT
ATOM      1 CL   UNL     1      36.930 -21.800 -17.931  0.00  0.00    -0.081 Cl
ATOM      2  S   UNL     1      33.114 -24.271 -13.626  0.00  0.00    +0.063 S 
ATOM      3  O   UNL     1      32.332 -23.181 -13.078  0.00  0.00    -0.153 OA
ATOM      4  O   UNL     1      32.487 -25.425 -14.240  0.00  0.00    -0.153 OA
ATOM      5  N   UNL     1      34.229 -24.823 -12.454  0.00  0.00    -0.160 NA
ATOM      6  N   UNL     1      36.058 -23.407 -13.190  0.00  0.00    -0.317 N 
ATOM      7  C   UNL     1      34.207 -23.551 -14.811  0.00  0.00    +0.136 C 
ATOM      8  C   UNL     1      35.520 -23.210 -14.452  0.00  0.00    +0.065 C 
ATOM      9  C   UNL     1      35.258 -23.840 -12.066  0.00  0.00    +0.182 C 
ATOM     10  C   UNL     1      33.715 -23.363 -16.106  0.00  0.00    +0.042 C 
ATOM     11  C   UNL     1      34.545 -22.820 -17.080  0.00  0.00    +0.134 C 
ATOM     12  C   UNL     1      36.337 -22.675 -15.462  0.00  0.00    +0.028 C 
ATOM     13  C   UNL     1      35.856 -22.477 -16.760  0.00  0.00    +0.078 C 
ATOM     14  H   UNL     1      34.701 -25.646 -12.829  0.00  0.00    +0.151 HD
ATOM     15  H   UNL     1      37.019 -23.245 -13.052  0.00  0.00    +0.148 HD
ENDROOT
BRANCH  11  16
ATOM     16  S   UNL     1      33.889 -22.586 -18.687  0.00  0.00    +0.058 S 
ATOM     17  O   UNL     1      34.473 -21.376 -19.245  0.00  0.00    -0.153 OA
ATOM     18  O   UNL     1      33.991 -23.843 -19.411  0.00  0.00    -0.153 OA
BRANCH  16  19
ATOM     19  N   UNL     1      32.247 -22.292 -18.321  0.00  0.00    -0.203 NA
ATOM     20  H   UNL     1      31.819 -21.761 -19.081  0.00  0.00    +0.144 HD
ATOM     21  H   UNL     1      32.182 -21.757 -17.456  0.00  0.00    +0.144 HD
ENDBRANCH  16  19
ENDBRANCH  11  16
TORSDOF 2
ENDMDL
MODEL 7
REMARK VINA RESULT:      -7.4      2.422      5.179
REMARK  Name = 3639
REMARK  2 active torsions:
REMARK  status: ('A' for Active; 'I' for Inactive)
REMARK    1  A    between atoms: C_11  and  S_16
REMARK    2  A    between atoms: S_16  and  N_19
REMARK                            x       y       z     vdW  Elec       q    Type
REMARK                         _______ _______ _______ _____ _____    ______ ____
ROOT
ATOM      1 CL   UNL     1      33.541 -23.198 -16.701  0.00  0.00    -0.081 Cl
ATOM      2  S   UNL     1      37.459 -25.395 -12.338  0.00  0.00    +0.063 S 
ATOM      3  O   UNL     1      37.794 -24.283 -11.471  0.00  0.00    -0.153 OA
ATOM      4  O   UNL     1      36.865 -26.612 -11.821  0.00  0.00    -0.153 OA
ATOM      5  N   UNL     1      38.820 -25.817 -13.280  0.00  0.00    -0.160 NA
ATOM      6  N   UNL     1      38.232 -24.422 -15.177  0.00  0.00    -0.317 N 
ATOM      7  C   UNL     1      36.383 -24.750 -13.581  0.00  0.00    +0.136 C 
ATOM      8  C   UNL     1      36.894 -24.346 -14.824  0.00  0.00    +0.065 C 
ATOM      9  C   UNL     1      39.264 -24.780 -14.229  0.00  0.00    +0.182 C 
ATOM     10  C   UNL     1      35.020 -24.684 -13.277  0.00  0.00    +0.042 C 
ATOM     11  C   UNL     1      34.130 -24.204 -14.232  0.00  0.00    +0.134 C 
ATOM     12  C   UNL     1      35.968 -23.877 -15.770  0.00  0.00    +0.028 C 
ATOM     13  C   UNL     1      34.602 -23.801 -15.478  0.00  0.00    +0.078 C 
ATOM     14  H   UNL     1      38.589 -26.657 -13.813  0.00  0.00    +0.151 HD
ATOM     15  H   UNL     1      38.490 -24.225 -16.106  0.00  0.00    +0.148 HD
ENDROOT
BRANCH  11  16
ATOM     16  S   UNL     1      32.432 -24.123 -13.810  0.00  0.00    +0.058 S 
ATOM     17  O   UNL     1      31.689 -23.720 -14.994  0.00  0.00    -0.153 OA
ATOM     18  O   UNL     1      32.076 -25.346 -13.109  0.00  0.00    -0.153 OA
BRANCH  16  19
ATOM     19  N   UNL     1      32.441 -22.830 -12.694  0.00  0.00    -0.203 NA
ATOM     20  H   UNL     1      32.638 -23.189 -11.759  0.00  0.00    +0.144 HD
ATOM     21  H   UNL     1      31.530 -22.372 -12.697  0.00  0.00    +0.144 HD
ENDBRANCH  16  19
ENDBRANCH  11  16
TORSDOF 2
ENDMDL
MODEL 8
REMARK VINA RESULT:      -7.4      3.390      4.883
REMARK  Name = 3639
REMARK  2 active torsions:
REMARK  status: ('A' for Active; 'I' for Inactive)
REMARK    1  A    between atoms: C_11  and  S_16
REMARK    2  A    between atoms: S_16  and  N_19
REMARK                            x       y       z     vdW  Elec       q    Type
REMARK                         _______ _______ _______ _____ _____    ______ ____
ROOT
ATOM      1 CL   UNL     1      34.743 -23.672 -12.940  0.00  0.00    -0.081 Cl
ATOM      2  S   UNL     1      33.910 -22.296 -18.992  0.00  0.00    +0.063 S 
ATOM      3  O   UNL     1      34.031 -23.539 -19.729  0.00  0.00    -0.153 OA
ATOM      4  O   UNL     1      32.717 -21.477 -19.071  0.00  0.00    -0.153 OA
ATOM      5  N   UNL     1      35.266 -21.307 -19.309  0.00  0.00    -0.160 NA
ATOM      6  N   UNL     1      36.564 -22.076 -17.408  0.00  0.00    -0.317 N 
ATOM      7  C   UNL     1      34.182 -22.698 -17.294  0.00  0.00    +0.136 C 
ATOM      8  C   UNL     1      35.454 -22.544 -16.723  0.00  0.00    +0.065 C 
ATOM      9  C   UNL     1      36.554 -21.849 -18.836  0.00  0.00    +0.182 C 
ATOM     10  C   UNL     1      33.082 -23.146 -16.557  0.00  0.00    +0.042 C 
ATOM     11  C   UNL     1      33.241 -23.453 -15.210  0.00  0.00    +0.134 C 
ATOM     12  C   UNL     1      35.579 -22.852 -15.358  0.00  0.00    +0.028 C 
ATOM     13  C   UNL     1      34.489 -23.306 -14.609  0.00  0.00    +0.078 C 
ATOM     14  H   UNL     1      35.115 -20.406 -18.855  0.00  0.00    +0.151 HD
ATOM     15  H   UNL     1      37.390 -21.891 -16.905  0.00  0.00    +0.148 HD
ENDROOT
BRANCH  11  16
ATOM     16  S   UNL     1      31.843 -24.025 -14.323  0.00  0.00    +0.058 S 
ATOM     17  O   UNL     1      31.713 -23.225 -13.115  0.00  0.00    -0.153 OA
ATOM     18  O   UNL     1      30.727 -24.132 -15.249  0.00  0.00    -0.153 OA
BRANCH  16  19
ATOM     19  N   UNL     1      32.357 -25.596 -13.895  0.00  0.00    -0.203 NA
ATOM     20  H   UNL     1      33.246 -25.800 -14.354  0.00  0.00    +0.144 HD
ATOM     21  H   UNL     1      31.658 -26.276 -14.194  0.00  0.00    +0.144 HD
ENDBRANCH  16  19
ENDBRANCH  11  16
TORSDOF 2
ENDMDL
MODEL 9
REMARK VINA RESULT:      -6.5     12.569     14.256
REMARK  Name = 3639
REMARK  2 active torsions:
REMARK  status: ('A' for Active; 'I' for Inactive)
REMARK    1  A    between atoms: C_11  and  S_16
REMARK    2  A    between atoms: S_16  and  N_19
REMARK                            x       y       z     vdW  Elec       q    Type
REMARK                         _______ _______ _______ _____ _____    ______ ____
ROOT
ATOM      1 CL   UNL     1      32.968 -10.611 -24.324  0.00  0.00    -0.081 Cl
ATOM      2  S   UNL     1      33.595 -15.873 -20.988  0.00  0.00    +0.063 S 
ATOM      3  O   UNL     1      34.680 -15.654 -20.053  0.00  0.00    -0.153 OA
ATOM      4  O   UNL     1      32.267 -16.243 -20.542  0.00  0.00    -0.153 OA
ATOM      5  N   UNL     1      34.089 -16.984 -22.189  0.00  0.00    -0.160 NA
ATOM      6  N   UNL     1      34.843 -15.301 -23.767  0.00  0.00    -0.317 N 
ATOM      7  C   UNL     1      33.456 -14.394 -21.942  0.00  0.00    +0.136 C 
ATOM      8  C   UNL     1      34.089 -14.291 -23.190  0.00  0.00    +0.065 C 
ATOM      9  C   UNL     1      35.184 -16.514 -23.057  0.00  0.00    +0.182 C 
ATOM     10  C   UNL     1      32.680 -13.359 -21.411  0.00  0.00    +0.042 C 
ATOM     11  C   UNL     1      32.522 -12.183 -22.136  0.00  0.00    +0.134 C 
ATOM     12  C   UNL     1      33.901 -13.094 -23.902  0.00  0.00    +0.028 C 
ATOM     13  C   UNL     1      33.131 -12.049 -23.382  0.00  0.00    +0.078 C 
ATOM     14  H   UNL     1      33.283 -17.192 -22.780  0.00  0.00    +0.151 HD
ATOM     15  H   UNL     1      35.158 -15.189 -24.692  0.00  0.00    +0.148 HD
ENDROOT
BRANCH  11  16
ATOM     16  S   UNL     1      31.554 -10.904 -21.432  0.00  0.00    +0.058 S 
ATOM     17  O   UNL     1      32.370  -9.701 -21.365  0.00  0.00    -0.153 OA
ATOM     18  O   UNL     1      30.270 -10.874 -22.115  0.00  0.00    -0.153 OA
BRANCH  16  19
ATOM     19  N   UNL     1      31.325 -11.509 -19.852  0.00  0.00    -0.203 NA
ATOM     20  H   UNL     1      30.326 -11.600 -19.664  0.00  0.00    +0.144 HD
ATOM     21  H   UNL     1      31.740 -10.866 -19.179  0.00  0.00    +0.144 HD
ENDBRANCH  16  19
ENDBRANCH  11  16
TORSDOF 2
ENDMDL
