MODEL 1
REMARK VINA RESULT:     -11.4      0.000      0.000
REMARK  Name = 46937030
REMARK  7 active torsions:
REMARK  status: ('A' for Active; 'I' for Inactive)
REMARK    1  A    between atoms: C_3  and  C_10
REMARK    2  A    between atoms: C_7  and  C_25
REMARK    3  A    between atoms: N_9  and  C_12
REMARK    4  A    between atoms: C_12  and  C_13
REMARK    5  A    between atoms: C_18  and  C_21
REMARK    6  A    between atoms: C_25  and  N_26
REMARK    7  A    between atoms: N_26  and  C_29
REMARK                            x       y       z     vdW  Elec       q    Type
REMARK                         _______ _______ _______ _____ _____    ______ ____
ROOT
ATOM      1  O   UNL     1      35.614 -25.332 -12.227  0.00  0.00    -0.277 OA
ATOM      2  N   UNL     1      36.172 -24.024 -14.047  0.00  0.00    -0.275 N 
ATOM      3  C   UNL     1      35.943 -22.928 -14.987  0.00  0.00    +0.152 C 
ATOM      4  C   UNL     1      37.339 -22.535 -15.462  0.00  0.00    +0.031 C 
ATOM      5  C   UNL     1      37.546 -24.504 -14.127  0.00  0.00    +0.094 C 
ATOM      6  C   UNL     1      38.127 -23.838 -15.364  0.00  0.00    +0.024 C 
ATOM      7  C   UNL     1      35.303 -24.494 -13.075  0.00  0.00    +0.204 C 
ENDROOT
BRANCH   3  10
ATOM      8  O   UNL     1      34.748 -24.627 -16.164  0.00  0.00    -0.273 OA
ATOM      9  N   UNL     1      34.889 -22.498 -17.093  0.00  0.00    -0.299 N 
ATOM     10  C   UNL     1      35.126 -23.459 -16.126  0.00  0.00    +0.241 C 
ATOM     11  H   UNL     1      35.245 -21.591 -16.950  0.00  0.00    +0.150 HD
BRANCH   9  12
ATOM     12  C   UNL     1      34.145 -22.760 -18.304  0.00  0.00    +0.116 C 
BRANCH  12  13
ATOM     13  C   UNL     1      34.289 -21.649 -19.304  0.00  0.00    -0.003 C 
ATOM     14  C   UNL     1      35.557 -21.259 -19.734  0.00  0.00    -0.003 C 
ATOM     15  C   UNL     1      33.155 -21.007 -19.801  0.00  0.00    -0.003 C 
ATOM     16  C   UNL     1      35.691 -20.227 -20.663  0.00  0.00    +0.002 C 
ATOM     17  C   UNL     1      33.289 -19.975 -20.730  0.00  0.00    +0.002 C 
ATOM     18  C   UNL     1      34.557 -19.585 -21.161  0.00  0.00    +0.031 C 
BRANCH  18  21
ATOM     19  N   UNL     1      34.852 -17.185 -21.725  0.00  0.00    -0.343 N 
ATOM     20  N   UNL     1      34.672 -18.780 -23.423  0.00  0.00    -0.285 NA
ATOM     21  C   UNL     1      34.697 -18.510 -22.130  0.00  0.00    +0.117 C 
ATOM     22  H   UNL     1      34.945 -16.473 -22.398  0.00  0.00    +0.144 HD
ATOM     23  H   UNL     1      34.870 -16.962 -20.767  0.00  0.00    +0.144 HD
ATOM     24  H   UNL     1      34.766 -18.053 -24.080  0.00  0.00    +0.188 HD
ENDBRANCH  18  21
ENDBRANCH  12  13
ENDBRANCH   9  12
ENDBRANCH   3  10
BRANCH   7  25
ATOM     25  C   UNL     1      33.910 -23.918 -13.097  0.00  0.00    +0.006 C 
BRANCH  25  26
ATOM     26  N   UNL     1      33.054 -24.899 -13.744  0.00  0.00    +0.391 N 
ATOM     27  H   UNL     1      33.292 -24.950 -14.735  0.00  0.00    -0.084 HD
ATOM     28  H   UNL     1      33.199 -25.806 -13.300  0.00  0.00    -0.084 HD
BRANCH  26  29
ATOM     29  C   UNL     1      31.644 -24.524 -13.604  0.00  0.00    -0.061 C 
ATOM     30  C   UNL     1      31.463 -23.020 -13.847  0.00  0.00    -0.021 C 
ATOM     31  C   UNL     1      30.791 -25.472 -14.462  0.00  0.00    -0.021 C 
ATOM     32  C   UNL     1      29.317 -25.080 -14.582  0.00  0.00    -0.002 C 
ATOM     33  C   UNL     1      31.819 -22.479 -15.232  0.00  0.00    -0.002 C 
ATOM     34  C   UNL     1      28.937 -24.440 -15.920  0.00  0.00    -0.000 C 
ATOM     35  C   UNL     1      31.003 -22.986 -16.420  0.00  0.00    -0.000 C 
ATOM     36  C   UNL     1      29.491 -23.040 -16.197  0.00  0.00    -0.000 C 
ENDBRANCH  26  29
ENDBRANCH  25  26
ENDBRANCH   7  25
TORSDOF 7
ENDMDL
MODEL 2
REMARK VINA RESULT:     -10.7      0.665      1.743
REMARK  Name = 46937030
REMARK  7 active torsions:
REMARK  status: ('A' for Active; 'I' for Inactive)
REMARK    1  A    between atoms: C_3  and  C_10
REMARK    2  A    between atoms: C_7  and  C_25
REMARK    3  A    between atoms: N_9  and  C_12
REMARK    4  A    between atoms: C_12  and  C_13
REMARK    5  A    between atoms: C_18  and  C_21
REMARK    6  A    between atoms: C_25  and  N_26
REMARK    7  A    between atoms: N_26  and  C_29
REMARK                            x       y       z     vdW  Elec       q    Type
REMARK                         _______ _______ _______ _____ _____    ______ ____
ROOT
ATOM      1  O   UNL     1      34.571 -24.929 -11.829  0.00  0.00    -0.277 OA
ATOM      2  N   UNL     1      35.675 -24.006 -13.636  0.00  0.00    -0.275 N 
ATOM      3  C   UNL     1      35.811 -23.050 -14.734  0.00  0.00    +0.152 C 
ATOM      4  C   UNL     1      37.317 -22.922 -14.943  0.00  0.00    +0.031 C 
ATOM      5  C   UNL     1      36.942 -24.668 -13.358  0.00  0.00    +0.094 C 
ATOM      6  C   UNL     1      37.852 -24.286 -14.515  0.00  0.00    +0.024 C 
ATOM      7  C   UNL     1      34.570 -24.201 -12.823  0.00  0.00    +0.204 C 
ENDROOT
BRANCH   3  10
ATOM      8  O   UNL     1      35.060 -24.856 -16.104  0.00  0.00    -0.273 OA
ATOM      9  N   UNL     1      34.717 -22.671 -16.830  0.00  0.00    -0.299 N 
ATOM     10  C   UNL     1      35.156 -23.642 -15.946  0.00  0.00    +0.241 C 
ATOM     11  H   UNL     1      34.850 -21.725 -16.592  0.00  0.00    +0.150 HD
BRANCH   9  12
ATOM     12  C   UNL     1      34.072 -22.978 -18.086  0.00  0.00    +0.116 C 
BRANCH  12  13
ATOM     13  C   UNL     1      34.251 -21.879 -19.093  0.00  0.00    -0.003 C 
ATOM     14  C   UNL     1      33.136 -21.214 -19.604  0.00  0.00    -0.003 C 
ATOM     15  C   UNL     1      35.531 -21.524 -19.518  0.00  0.00    -0.003 C 
ATOM     16  C   UNL     1      33.302 -20.193 -20.540  0.00  0.00    +0.002 C 
ATOM     17  C   UNL     1      35.697 -20.503 -20.454  0.00  0.00    +0.002 C 
ATOM     18  C   UNL     1      34.582 -19.837 -20.965  0.00  0.00    +0.031 C 
BRANCH  18  21
ATOM     19  N   UNL     1      35.044 -17.467 -21.544  0.00  0.00    -0.343 N 
ATOM     20  N   UNL     1      34.635 -19.034 -23.229  0.00  0.00    -0.285 NA
ATOM     21  C   UNL     1      34.756 -18.772 -21.940  0.00  0.00    +0.117 C 
ATOM     22  H   UNL     1      35.158 -16.762 -22.222  0.00  0.00    +0.144 HD
ATOM     23  H   UNL     1      35.135 -17.251 -20.588  0.00  0.00    +0.144 HD
ATOM     24  H   UNL     1      34.751 -18.314 -23.891  0.00  0.00    +0.188 HD
ENDBRANCH  18  21
ENDBRANCH  12  13
ENDBRANCH   9  12
ENDBRANCH   3  10
BRANCH   7  25
ATOM     25  C   UNL     1      33.318 -23.458 -13.216  0.00  0.00    +0.006 C 
BRANCH  25  26
ATOM     26  N   UNL     1      32.309 -24.459 -13.526  0.00  0.00    +0.391 N 
ATOM     27  H   UNL     1      32.697 -25.388 -13.360  0.00  0.00    -0.084 HD
ATOM     28  H   UNL     1      31.498 -24.304 -12.928  0.00  0.00    -0.084 HD
BRANCH  26  29
ATOM     29  C   UNL     1      31.893 -24.354 -14.927  0.00  0.00    -0.061 C 
ATOM     30  C   UNL     1      30.888 -25.461 -15.271  0.00  0.00    -0.021 C 
ATOM     31  C   UNL     1      31.453 -22.908 -15.208  0.00  0.00    -0.021 C 
ATOM     32  C   UNL     1      30.798 -22.689 -16.573  0.00  0.00    -0.002 C 
ATOM     33  C   UNL     1      29.554 -25.464 -14.523  0.00  0.00    -0.002 C 
ATOM     34  C   UNL     1      29.275 -22.544 -16.529  0.00  0.00    -0.000 C 
ATOM     35  C   UNL     1      28.628 -24.265 -14.726  0.00  0.00    -0.000 C 
ATOM     36  C   UNL     1      28.472 -23.799 -16.174  0.00  0.00    -0.000 C 
ENDBRANCH  26  29
ENDBRANCH  25  26
ENDBRANCH   7  25
TORSDOF 7
ENDMDL
MODEL 3
REMARK VINA RESULT:     -10.6      2.187      6.629
REMARK  Name = 46937030
REMARK  7 active torsions:
REMARK  status: ('A' for Active; 'I' for Inactive)
REMARK    1  A    between atoms: C_3  and  C_10
REMARK    2  A    between atoms: C_7  and  C_25
REMARK    3  A    between atoms: N_9  and  C_12
REMARK    4  A    between atoms: C_12  and  C_13
REMARK    5  A    between atoms: C_18  and  C_21
REMARK    6  A    between atoms: C_25  and  N_26
REMARK    7  A    between atoms: N_26  and  C_29
REMARK                            x       y       z     vdW  Elec       q    Type
REMARK                         _______ _______ _______ _____ _____    ______ ____
ROOT
ATOM      1  O   UNL     1      38.286 -22.406 -16.237  0.00  0.00    -0.277 OA
ATOM      2  N   UNL     1      37.239 -24.186 -15.203  0.00  0.00    -0.275 N 
ATOM      3  C   UNL     1      36.131 -25.122 -15.020  0.00  0.00    +0.152 C 
ATOM      4  C   UNL     1      36.778 -26.367 -14.420  0.00  0.00    +0.031 C 
ATOM      5  C   UNL     1      38.436 -24.650 -14.514  0.00  0.00    +0.094 C 
ATOM      6  C   UNL     1      37.970 -25.808 -13.646  0.00  0.00    +0.024 C 
ATOM      7  C   UNL     1      37.272 -23.073 -16.028  0.00  0.00    +0.204 C 
ENDROOT
BRANCH   3  10
ATOM      8  O   UNL     1      35.527 -23.726 -13.180  0.00  0.00    -0.273 OA
ATOM      9  N   UNL     1      33.867 -24.949 -14.260  0.00  0.00    -0.299 N 
ATOM     10  C   UNL     1      35.163 -24.510 -14.053  0.00  0.00    +0.241 C 
ATOM     11  H   UNL     1      33.698 -25.581 -14.996  0.00  0.00    +0.150 HD
BRANCH   9  12
ATOM     12  C   UNL     1      32.749 -24.527 -13.447  0.00  0.00    +0.116 C 
BRANCH  12  13
ATOM     13  C   UNL     1      31.536 -24.218 -14.277  0.00  0.00    -0.003 C 
ATOM     14  C   UNL     1      30.385 -24.995 -14.144  0.00  0.00    -0.003 C 
ATOM     15  C   UNL     1      31.561 -23.156 -15.181  0.00  0.00    -0.003 C 
ATOM     16  C   UNL     1      29.258 -24.709 -14.915  0.00  0.00    +0.002 C 
ATOM     17  C   UNL     1      30.434 -22.870 -15.952  0.00  0.00    +0.002 C 
ATOM     18  C   UNL     1      29.283 -23.647 -15.819  0.00  0.00    +0.031 C 
BRANCH  18  21
ATOM     19  N   UNL     1      27.385 -22.171 -16.438  0.00  0.00    -0.343 N 
ATOM     20  N   UNL     1      27.706 -24.204 -17.545  0.00  0.00    -0.285 NA
ATOM     21  C   UNL     1      28.108 -23.348 -16.622  0.00  0.00    +0.117 C 
ATOM     22  H   UNL     1      26.592 -21.989 -16.994  0.00  0.00    +0.144 HD
ATOM     23  H   UNL     1      27.666 -21.522 -15.754  0.00  0.00    +0.144 HD
ATOM     24  H   UNL     1      26.911 -24.003 -18.089  0.00  0.00    +0.188 HD
ENDBRANCH  18  21
ENDBRANCH  12  13
ENDBRANCH   9  12
ENDBRANCH   3  10
BRANCH   7  25
ATOM     25  C   UNL     1      35.968 -22.696 -16.685  0.00  0.00    +0.006 C 
BRANCH  25  26
ATOM     26  N   UNL     1      36.190 -21.437 -17.377  0.00  0.00    +0.391 N 
ATOM     27  H   UNL     1      35.467 -20.771 -17.102  0.00  0.00    -0.084 HD
ATOM     28  H   UNL     1      37.112 -21.081 -17.126  0.00  0.00    -0.084 HD
BRANCH  26  29
ATOM     29  C   UNL     1      36.138 -21.631 -18.830  0.00  0.00    -0.061 C 
ATOM     30  C   UNL     1      34.889 -22.435 -19.217  0.00  0.00    -0.021 C 
ATOM     31  C   UNL     1      36.328 -20.272 -19.520  0.00  0.00    -0.021 C 
ATOM     32  C   UNL     1      36.094 -20.279 -21.032  0.00  0.00    -0.002 C 
ATOM     33  C   UNL     1      33.525 -21.815 -18.912  0.00  0.00    -0.002 C 
ATOM     34  C   UNL     1      34.756 -19.677 -21.469  0.00  0.00    -0.000 C 
ATOM     35  C   UNL     1      33.167 -20.510 -19.621  0.00  0.00    -0.000 C 
ATOM     36  C   UNL     1      33.494 -20.469 -21.115  0.00  0.00    -0.000 C 
ENDBRANCH  26  29
ENDBRANCH  25  26
ENDBRANCH   7  25
TORSDOF 7
ENDMDL
MODEL 4
REMARK VINA RESULT:     -10.2      6.927     11.757
REMARK  Name = 46937030
REMARK  7 active torsions:
REMARK  status: ('A' for Active; 'I' for Inactive)
REMARK    1  A    between atoms: C_3  and  C_10
REMARK    2  A    between atoms: C_7  and  C_25
REMARK    3  A    between atoms: N_9  and  C_12
REMARK    4  A    between atoms: C_12  and  C_13
REMARK    5  A    between atoms: C_18  and  C_21
REMARK    6  A    between atoms: C_25  and  N_26
REMARK    7  A    between atoms: N_26  and  C_29
REMARK                            x       y       z     vdW  Elec       q    Type
REMARK                         _______ _______ _______ _____ _____    ______ ____
ROOT
ATOM      1  O   UNL     1      34.416 -17.820 -25.239  0.00  0.00    -0.277 OA
ATOM      2  N   UNL     1      33.855 -15.588 -25.036  0.00  0.00    -0.275 N 
ATOM      3  C   UNL     1      34.000 -14.252 -24.460  0.00  0.00    +0.152 C 
ATOM      4  C   UNL     1      33.506 -13.310 -25.554  0.00  0.00    +0.031 C 
ATOM      5  C   UNL     1      33.064 -15.548 -26.259  0.00  0.00    +0.094 C 
ATOM      6  C   UNL     1      32.474 -14.148 -26.304  0.00  0.00    +0.024 C 
ATOM      7  C   UNL     1      34.479 -16.754 -24.622  0.00  0.00    +0.204 C 
ENDROOT
BRANCH   3  10
ATOM      8  O   UNL     1      32.884 -15.152 -22.551  0.00  0.00    -0.273 OA
ATOM      9  N   UNL     1      32.605 -12.899 -23.062  0.00  0.00    -0.299 N 
ATOM     10  C   UNL     1      33.116 -14.171 -23.252  0.00  0.00    +0.241 C 
ATOM     11  H   UNL     1      32.865 -12.189 -23.694  0.00  0.00    +0.150 HD
BRANCH   9  12
ATOM     12  C   UNL     1      31.708 -12.560 -21.981  0.00  0.00    +0.116 C 
BRANCH  12  13
ATOM     13  C   UNL     1      31.848 -11.124 -21.563  0.00  0.00    -0.003 C 
ATOM     14  C   UNL     1      31.660 -10.765 -20.229  0.00  0.00    -0.003 C 
ATOM     15  C   UNL     1      32.165 -10.150 -22.510  0.00  0.00    -0.003 C 
ATOM     16  C   UNL     1      31.790  -9.432 -19.840  0.00  0.00    +0.002 C 
ATOM     17  C   UNL     1      32.295  -8.816 -22.121  0.00  0.00    +0.002 C 
ATOM     18  C   UNL     1      32.108  -8.458 -20.786  0.00  0.00    +0.031 C 
BRANCH  18  21
ATOM     19  N   UNL     1      31.545  -6.052 -21.031  0.00  0.00    -0.343 N 
ATOM     20  N   UNL     1      33.049  -6.748 -19.383  0.00  0.00    -0.285 NA
ATOM     21  C   UNL     1      32.245  -7.068 -20.382  0.00  0.00    +0.117 C 
ATOM     22  H   UNL     1      31.653  -5.117 -20.740  0.00  0.00    +0.144 HD
ATOM     23  H   UNL     1      30.944  -6.268 -21.779  0.00  0.00    +0.144 HD
ATOM     24  H   UNL     1      33.143  -5.808 -19.108  0.00  0.00    +0.188 HD
ENDBRANCH  18  21
ENDBRANCH  12  13
ENDBRANCH   9  12
ENDBRANCH   3  10
BRANCH   7  25
ATOM     25  C   UNL     1      35.269 -16.665 -23.342  0.00  0.00    +0.006 C 
BRANCH  25  26
ATOM     26  N   UNL     1      35.887 -17.965 -23.133  0.00  0.00    +0.391 N 
ATOM     27  H   UNL     1      35.320 -18.683 -23.584  0.00  0.00    -0.084 HD
ATOM     28  H   UNL     1      36.825 -17.952 -23.535  0.00  0.00    -0.084 HD
BRANCH  26  29
ATOM     29  C   UNL     1      35.991 -18.262 -21.701  0.00  0.00    -0.061 C 
ATOM     30  C   UNL     1      34.686 -17.893 -20.982  0.00  0.00    -0.021 C 
ATOM     31  C   UNL     1      36.492 -19.704 -21.528  0.00  0.00    -0.021 C 
ATOM     32  C   UNL     1      36.456 -20.230 -20.092  0.00  0.00    -0.002 C 
ATOM     33  C   UNL     1      33.416 -18.641 -21.390  0.00  0.00    -0.002 C 
ATOM     34  C   UNL     1      35.305 -21.195 -19.798  0.00  0.00    -0.000 C 
ATOM     35  C   UNL     1      33.375 -20.149 -21.145  0.00  0.00    -0.000 C 
ATOM     36  C   UNL     1      33.894 -20.601 -19.779  0.00  0.00    -0.000 C 
ENDBRANCH  26  29
ENDBRANCH  25  26
ENDBRANCH   7  25
TORSDOF 7
ENDMDL
MODEL 5
REMARK VINA RESULT:      -9.8      8.453     13.136
REMARK  Name = 46937030
REMARK  7 active torsions:
REMARK  status: ('A' for Active; 'I' for Inactive)
REMARK    1  A    between atoms: C_3  and  C_10
REMARK    2  A    between atoms: C_7  and  C_25
REMARK    3  A    between atoms: N_9  and  C_12
REMARK    4  A    between atoms: C_12  and  C_13
REMARK    5  A    between atoms: C_18  and  C_21
REMARK    6  A    between atoms: C_25  and  N_26
REMARK    7  A    between atoms: N_26  and  C_29
REMARK                            x       y       z     vdW  Elec       q    Type
REMARK                         _______ _______ _______ _____ _____    ______ ____
ROOT
ATOM      1  O   UNL     1      33.675 -16.217 -24.737  0.00  0.00    -0.277 OA
ATOM      2  N   UNL     1      33.689 -13.909 -24.627  0.00  0.00    -0.275 N 
ATOM      3  C   UNL     1      33.968 -12.635 -23.967  0.00  0.00    +0.152 C 
ATOM      4  C   UNL     1      34.160 -11.647 -25.114  0.00  0.00    +0.031 C 
ATOM      5  C   UNL     1      33.420 -13.717 -26.046  0.00  0.00    +0.094 C 
ATOM      6  C   UNL     1      33.276 -12.214 -26.222  0.00  0.00    +0.024 C 
ATOM      7  C   UNL     1      33.795 -15.180 -24.083  0.00  0.00    +0.204 C 
ENDROOT
BRANCH   3  10
ATOM      8  O   UNL     1      31.918 -13.095 -22.835  0.00  0.00    -0.273 OA
ATOM      9  N   UNL     1      32.752 -10.922 -22.820  0.00  0.00    -0.299 N 
ATOM     10  C   UNL     1      32.770 -12.268 -23.145  0.00  0.00    +0.241 C 
ATOM     11  H   UNL     1      33.496 -10.355 -23.126  0.00  0.00    +0.150 HD
BRANCH   9  12
ATOM     12  C   UNL     1      31.692 -10.308 -22.051  0.00  0.00    +0.116 C 
BRANCH  12  13
ATOM     13  C   UNL     1      31.572  -8.839 -22.335  0.00  0.00    -0.003 C 
ATOM     14  C   UNL     1      31.941  -7.909 -21.362  0.00  0.00    -0.003 C 
ATOM     15  C   UNL     1      31.091  -8.403 -23.569  0.00  0.00    -0.003 C 
ATOM     16  C   UNL     1      31.829  -6.544 -21.624  0.00  0.00    +0.002 C 
ATOM     17  C   UNL     1      30.979  -7.038 -23.832  0.00  0.00    +0.002 C 
ATOM     18  C   UNL     1      31.348  -6.108 -22.860  0.00  0.00    +0.031 C 
BRANCH  18  21
ATOM     19  N   UNL     1      31.817  -4.114 -24.263  0.00  0.00    -0.343 N 
ATOM     20  N   UNL     1      30.566  -3.905 -22.301  0.00  0.00    -0.285 NA
ATOM     21  C   UNL     1      31.232  -4.685 -23.134  0.00  0.00    +0.117 C 
ATOM     22  H   UNL     1      31.725  -3.148 -24.429  0.00  0.00    +0.144 HD
ATOM     23  H   UNL     1      32.320  -4.677 -24.895  0.00  0.00    +0.144 HD
ATOM     24  H   UNL     1      30.487  -2.942 -22.485  0.00  0.00    +0.188 HD
ENDBRANCH  18  21
ENDBRANCH  12  13
ENDBRANCH   9  12
ENDBRANCH   3  10
BRANCH   7  25
ATOM     25  C   UNL     1      34.076 -15.245 -22.603  0.00  0.00    +0.006 C 
BRANCH  25  26
ATOM     26  N   UNL     1      35.140 -16.218 -22.416  0.00  0.00    +0.391 N 
ATOM     27  H   UNL     1      35.856 -16.074 -23.129  0.00  0.00    -0.084 HD
ATOM     28  H   UNL     1      35.540 -16.094 -21.485  0.00  0.00    -0.084 HD
BRANCH  26  29
ATOM     29  C   UNL     1      34.617 -17.583 -22.528  0.00  0.00    -0.061 C 
ATOM     30  C   UNL     1      35.721 -18.543 -22.989  0.00  0.00    -0.021 C 
ATOM     31  C   UNL     1      33.885 -17.943 -21.226  0.00  0.00    -0.021 C 
ATOM     32  C   UNL     1      33.460 -19.408 -21.111  0.00  0.00    -0.002 C 
ATOM     33  C   UNL     1      36.932 -18.723 -22.072  0.00  0.00    -0.002 C 
ATOM     34  C   UNL     1      34.339 -20.253 -20.185  0.00  0.00    -0.000 C 
ATOM     35  C   UNL     1      36.688 -19.325 -20.690  0.00  0.00    -0.000 C 
ATOM     36  C   UNL     1      35.764 -20.544 -20.664  0.00  0.00    -0.000 C 
ENDBRANCH  26  29
ENDBRANCH  25  26
ENDBRANCH   7  25
TORSDOF 7
ENDMDL
MODEL 6
REMARK VINA RESULT:      -9.6      6.745     12.616
REMARK  Name = 46937030
REMARK  7 active torsions:
REMARK  status: ('A' for Active; 'I' for Inactive)
REMARK    1  A    between atoms: C_3  and  C_10
REMARK    2  A    between atoms: C_7  and  C_25
REMARK    3  A    between atoms: N_9  and  C_12
REMARK    4  A    between atoms: C_12  and  C_13
REMARK    5  A    between atoms: C_18  and  C_21
REMARK    6  A    between atoms: C_25  and  N_26
REMARK    7  A    between atoms: N_26  and  C_29
REMARK                            x       y       z     vdW  Elec       q    Type
REMARK                         _______ _______ _______ _____ _____    ______ ____
ROOT
ATOM      1  O   UNL     1      31.372 -12.688 -22.785  0.00  0.00    -0.277 OA
ATOM      2  N   UNL     1      33.039 -13.973 -21.832  0.00  0.00    -0.275 N 
ATOM      3  C   UNL     1      34.416 -14.449 -21.716  0.00  0.00    +0.152 C 
ATOM      4  C   UNL     1      34.554 -14.864 -20.255  0.00  0.00    +0.031 C 
ATOM      5  C   UNL     1      32.262 -14.324 -20.650  0.00  0.00    +0.094 C 
ATOM      6  C   UNL     1      33.139 -15.292 -19.872  0.00  0.00    +0.024 C 
ATOM      7  C   UNL     1      32.509 -13.162 -22.823  0.00  0.00    +0.204 C 
ENDROOT
BRANCH   3  10
ATOM      8  O   UNL     1      34.625 -15.514 -23.842  0.00  0.00    -0.273 OA
ATOM      9  N   UNL     1      34.627 -16.825 -21.918  0.00  0.00    -0.299 N 
ATOM     10  C   UNL     1      34.574 -15.633 -22.621  0.00  0.00    +0.241 C 
ATOM     11  H   UNL     1      34.576 -16.793 -20.936  0.00  0.00    +0.150 HD
BRANCH   9  12
ATOM     12  C   UNL     1      34.753 -18.115 -22.557  0.00  0.00    +0.116 C 
BRANCH  12  13
ATOM     13  C   UNL     1      34.700 -19.241 -21.565  0.00  0.00    -0.003 C 
ATOM     14  C   UNL     1      35.882 -19.828 -21.115  0.00  0.00    -0.003 C 
ATOM     15  C   UNL     1      33.469 -19.699 -21.096  0.00  0.00    -0.003 C 
ATOM     16  C   UNL     1      35.834 -20.875 -20.193  0.00  0.00    +0.002 C 
ATOM     17  C   UNL     1      33.421 -20.746 -20.174  0.00  0.00    +0.002 C 
ATOM     18  C   UNL     1      34.603 -21.333 -19.722  0.00  0.00    +0.031 C 
BRANCH  18  21
ATOM     19  N   UNL     1      35.288 -22.382 -17.579  0.00  0.00    -0.343 N 
ATOM     20  N   UNL     1      33.798 -23.481 -19.004  0.00  0.00    -0.285 NA
ATOM     21  C   UNL     1      34.551 -22.423 -18.761  0.00  0.00    +0.117 C 
ATOM     22  H   UNL     1      35.238 -23.131 -16.942  0.00  0.00    +0.144 HD
ATOM     23  H   UNL     1      35.858 -21.604 -17.380  0.00  0.00    +0.144 HD
ATOM     24  H   UNL     1      33.763 -24.220 -18.355  0.00  0.00    +0.188 HD
ENDBRANCH  18  21
ENDBRANCH  12  13
ENDBRANCH   9  12
ENDBRANCH   3  10
BRANCH   7  25
ATOM     25  C   UNL     1      33.413 -12.870 -23.994  0.00  0.00    +0.006 C 
BRANCH  25  26
ATOM     26  N   UNL     1      34.232 -11.727 -23.624  0.00  0.00    +0.391 N 
ATOM     27  H   UNL     1      34.089 -11.518 -22.635  0.00  0.00    -0.084 HD
ATOM     28  H   UNL     1      35.211 -11.954 -23.799  0.00  0.00    -0.084 HD
BRANCH  26  29
ATOM     29  C   UNL     1      33.868 -10.552 -24.422  0.00  0.00    -0.061 C 
ATOM     30  C   UNL     1      32.557  -9.943 -23.910  0.00  0.00    -0.021 C 
ATOM     31  C   UNL     1      35.082  -9.614 -24.506  0.00  0.00    -0.021 C 
ATOM     32  C   UNL     1      34.797  -8.249 -25.135  0.00  0.00    -0.002 C 
ATOM     33  C   UNL     1      32.540  -9.396 -22.481  0.00  0.00    -0.002 C 
ATOM     34  C   UNL     1      34.691  -7.098 -24.131  0.00  0.00    -0.000 C 
ATOM     35  C   UNL     1      33.462  -8.219 -22.164  0.00  0.00    -0.000 C 
ATOM     36  C   UNL     1      33.470  -7.100 -23.206  0.00  0.00    -0.000 C 
ENDBRANCH  26  29
ENDBRANCH  25  26
ENDBRANCH   7  25
TORSDOF 7
ENDMDL
MODEL 7
REMARK VINA RESULT:      -9.1      8.390     12.738
REMARK  Name = 46937030
REMARK  7 active torsions:
REMARK  status: ('A' for Active; 'I' for Inactive)
REMARK    1  A    between atoms: C_3  and  C_10
REMARK    2  A    between atoms: C_7  and  C_25
REMARK    3  A    between atoms: N_9  and  C_12
REMARK    4  A    between atoms: C_12  and  C_13
REMARK    5  A    between atoms: C_18  and  C_21
REMARK    6  A    between atoms: C_25  and  N_26
REMARK    7  A    between atoms: N_26  and  C_29
REMARK                            x       y       z     vdW  Elec       q    Type
REMARK                         _______ _______ _______ _____ _____    ______ ____
ROOT
ATOM      1  O   UNL     1      33.854 -15.095 -20.096  0.00  0.00    -0.277 OA
ATOM      2  N   UNL     1      32.727 -13.517 -21.354  0.00  0.00    -0.275 N 
ATOM      3  C   UNL     1      32.128 -13.018 -22.590  0.00  0.00    +0.152 C 
ATOM      4  C   UNL     1      31.038 -12.058 -22.125  0.00  0.00    +0.031 C 
ATOM      5  C   UNL     1      32.285 -12.737 -20.205  0.00  0.00    +0.094 C 
ATOM      6  C   UNL     1      31.573 -11.531 -20.795  0.00  0.00    +0.024 C 
ATOM      7  C   UNL     1      33.495 -14.660 -21.192  0.00  0.00    +0.204 C 
ENDROOT
BRANCH   3  10
ATOM      8  O   UNL     1      34.021 -12.875 -24.038  0.00  0.00    -0.273 OA
ATOM      9  N   UNL     1      33.115 -10.915 -23.169  0.00  0.00    -0.299 N 
ATOM     10  C   UNL     1      33.189 -12.285 -23.354  0.00  0.00    +0.241 C 
ATOM     11  H   UNL     1      32.399 -10.557 -22.595  0.00  0.00    +0.150 HD
BRANCH   9  12
ATOM     12  C   UNL     1      34.037  -9.983 -23.778  0.00  0.00    +0.116 C 
BRANCH  12  13
ATOM     13  C   UNL     1      33.420  -8.628 -23.974  0.00  0.00    -0.003 C 
ATOM     14  C   UNL     1      34.215  -7.550 -24.363  0.00  0.00    -0.003 C 
ATOM     15  C   UNL     1      32.053  -8.448 -23.765  0.00  0.00    -0.003 C 
ATOM     16  C   UNL     1      33.642  -6.291 -24.544  0.00  0.00    +0.002 C 
ATOM     17  C   UNL     1      31.480  -7.189 -23.947  0.00  0.00    +0.002 C 
ATOM     18  C   UNL     1      32.275  -6.111 -24.337  0.00  0.00    +0.031 C 
BRANCH  18  21
ATOM     19  N   UNL     1      32.037  -3.987 -25.600  0.00  0.00    -0.343 N 
ATOM     20  N   UNL     1      30.776  -4.355 -23.668  0.00  0.00    -0.285 NA
ATOM     21  C   UNL     1      31.677  -4.799 -24.527  0.00  0.00    +0.117 C 
ATOM     22  H   UNL     1      31.619  -3.102 -25.709  0.00  0.00    +0.144 HD
ATOM     23  H   UNL     1      32.709  -4.297 -26.249  0.00  0.00    +0.144 HD
ATOM     24  H   UNL     1      30.370  -3.467 -23.795  0.00  0.00    +0.188 HD
ENDBRANCH  18  21
ENDBRANCH  12  13
ENDBRANCH   9  12
ENDBRANCH   3  10
BRANCH   7  25
ATOM     25  C   UNL     1      33.887 -15.379 -22.458  0.00  0.00    +0.006 C 
BRANCH  25  26
ATOM     26  N   UNL     1      34.951 -16.306 -22.108  0.00  0.00    +0.391 N 
ATOM     27  H   UNL     1      35.772 -16.107 -22.681  0.00  0.00    -0.084 HD
ATOM     28  H   UNL     1      35.175 -16.192 -21.119  0.00  0.00    -0.084 HD
BRANCH  26  29
ATOM     29  C   UNL     1      34.526 -17.690 -22.339  0.00  0.00    -0.061 C 
ATOM     30  C   UNL     1      35.707 -18.537 -22.832  0.00  0.00    -0.021 C 
ATOM     31  C   UNL     1      33.783 -18.197 -21.093  0.00  0.00    -0.021 C 
ATOM     32  C   UNL     1      33.456 -19.691 -21.102  0.00  0.00    -0.002 C 
ATOM     33  C   UNL     1      36.900 -18.706 -21.891  0.00  0.00    -0.002 C 
ATOM     34  C   UNL     1      34.364 -20.544 -20.213  0.00  0.00    -0.000 C 
ATOM     35  C   UNL     1      36.658 -19.427 -20.566  0.00  0.00    -0.000 C 
ATOM     36  C   UNL     1      35.819 -20.702 -20.662  0.00  0.00    -0.000 C 
ENDBRANCH  26  29
ENDBRANCH  25  26
ENDBRANCH   7  25
TORSDOF 7
ENDMDL
MODEL 8
REMARK VINA RESULT:      -9.1      1.686      4.856
REMARK  Name = 46937030
REMARK  7 active torsions:
REMARK  status: ('A' for Active; 'I' for Inactive)
REMARK    1  A    between atoms: C_3  and  C_10
REMARK    2  A    between atoms: C_7  and  C_25
REMARK    3  A    between atoms: N_9  and  C_12
REMARK    4  A    between atoms: C_12  and  C_13
REMARK    5  A    between atoms: C_18  and  C_21
REMARK    6  A    between atoms: C_25  and  N_26
REMARK    7  A    between atoms: N_26  and  C_29
REMARK                            x       y       z     vdW  Elec       q    Type
REMARK                         _______ _______ _______ _____ _____    ______ ____
ROOT
ATOM      1  O   UNL     1      30.756 -24.306 -12.616  0.00  0.00    -0.277 OA
ATOM      2  N   UNL     1      30.980 -23.681 -14.829  0.00  0.00    -0.275 N 
ATOM      3  C   UNL     1      31.505 -23.840 -16.185  0.00  0.00    +0.152 C 
ATOM      4  C   UNL     1      30.460 -23.177 -17.077  0.00  0.00    +0.031 C 
ATOM      5  C   UNL     1      29.863 -22.745 -14.806  0.00  0.00    +0.094 C 
ATOM      6  C   UNL     1      29.861 -22.096 -16.181  0.00  0.00    +0.024 C 
ATOM      7  C   UNL     1      31.337 -24.399 -13.699  0.00  0.00    +0.204 C 
ENDROOT
BRANCH   3  10
ATOM      8  O   UNL     1      33.177 -22.340 -15.378  0.00  0.00    -0.273 OA
ATOM      9  N   UNL     1      33.500 -23.391 -17.429  0.00  0.00    -0.299 N 
ATOM     10  C   UNL     1      32.811 -23.108 -16.263  0.00  0.00    +0.241 C 
ATOM     11  H   UNL     1      33.102 -24.028 -18.067  0.00  0.00    +0.150 HD
BRANCH   9  12
ATOM     12  C   UNL     1      34.776 -22.798 -17.758  0.00  0.00    +0.116 C 
BRANCH  12  13
ATOM     13  C   UNL     1      34.659 -21.792 -18.867  0.00  0.00    -0.003 C 
ATOM     14  C   UNL     1      33.399 -21.396 -19.318  0.00  0.00    -0.003 C 
ATOM     15  C   UNL     1      35.808 -21.253 -19.445  0.00  0.00    -0.003 C 
ATOM     16  C   UNL     1      33.289 -20.462 -20.348  0.00  0.00    +0.002 C 
ATOM     17  C   UNL     1      35.698 -20.319 -20.475  0.00  0.00    +0.002 C 
ATOM     18  C   UNL     1      34.439 -19.923 -20.926  0.00  0.00    +0.031 C 
BRANCH  18  21
ATOM     19  N   UNL     1      34.421 -19.327 -23.336  0.00  0.00    -0.343 N 
ATOM     20  N   UNL     1      34.131 -17.672 -21.712  0.00  0.00    -0.285 NA
ATOM     21  C   UNL     1      34.325 -18.948 -21.999  0.00  0.00    +0.117 C 
ATOM     22  H   UNL     1      34.340 -18.650 -24.047  0.00  0.00    +0.144 HD
ATOM     23  H   UNL     1      34.568 -20.272 -23.571  0.00  0.00    +0.144 HD
ATOM     24  H   UNL     1      34.054 -17.011 -22.437  0.00  0.00    +0.188 HD
ENDBRANCH  18  21
ENDBRANCH  12  13
ENDBRANCH   9  12
ENDBRANCH   3  10
BRANCH   7  25
ATOM     25  C   UNL     1      32.509 -25.336 -13.852  0.00  0.00    +0.006 C 
BRANCH  25  26
ATOM     26  N   UNL     1      33.492 -24.954 -12.853  0.00  0.00    +0.391 N 
ATOM     27  H   UNL     1      33.049 -24.350 -12.160  0.00  0.00    -0.084 HD
ATOM     28  H   UNL     1      33.852 -25.797 -12.406  0.00  0.00    -0.084 HD
BRANCH  26  29
ATOM     29  C   UNL     1      34.608 -24.235 -13.476  0.00  0.00    -0.061 C 
ATOM     30  C   UNL     1      35.571 -23.709 -12.403  0.00  0.00    -0.021 C 
ATOM     31  C   UNL     1      35.215 -25.119 -14.577  0.00  0.00    -0.021 C 
ATOM     32  C   UNL     1      36.517 -24.590 -15.181  0.00  0.00    -0.002 C 
ATOM     33  C   UNL     1      36.283 -24.737 -11.524  0.00  0.00    -0.002 C 
ATOM     34  C   UNL     1      37.779 -25.309 -14.696  0.00  0.00    -0.000 C 
ATOM     35  C   UNL     1      37.240 -25.712 -12.210  0.00  0.00    -0.000 C 
ATOM     36  C   UNL     1      38.183 -25.084 -13.237  0.00  0.00    -0.000 C 
ENDBRANCH  26  29
ENDBRANCH  25  26
ENDBRANCH   7  25
TORSDOF 7
ENDMDL
MODEL 9
REMARK VINA RESULT:      -9.0      9.586     14.134
REMARK  Name = 46937030
REMARK  7 active torsions:
REMARK  status: ('A' for Active; 'I' for Inactive)
REMARK    1  A    between atoms: C_3  and  C_10
REMARK    2  A    between atoms: C_7  and  C_25
REMARK    3  A    between atoms: N_9  and  C_12
REMARK    4  A    between atoms: C_12  and  C_13
REMARK    5  A    between atoms: C_18  and  C_21
REMARK    6  A    between atoms: C_25  and  N_26
REMARK    7  A    between atoms: N_26  and  C_29
REMARK                            x       y       z     vdW  Elec       q    Type
REMARK                         _______ _______ _______ _____ _____    ______ ____
ROOT
ATOM      1  O   UNL     1      33.359 -14.270 -20.603  0.00  0.00    -0.277 OA
ATOM      2  N   UNL     1      32.253 -12.409 -21.409  0.00  0.00    -0.275 N 
ATOM      3  C   UNL     1      31.675 -11.593 -22.475  0.00  0.00    +0.152 C 
ATOM      4  C   UNL     1      30.575 -10.790 -21.788  0.00  0.00    +0.031 C 
ATOM      5  C   UNL     1      31.789 -11.965 -20.101  0.00  0.00    +0.094 C 
ATOM      6  C   UNL     1      31.086 -10.642 -20.357  0.00  0.00    +0.024 C 
ATOM      7  C   UNL     1      33.019 -13.555 -21.547  0.00  0.00    +0.204 C 
ENDROOT
BRANCH   3  10
ATOM      8  O   UNL     1      33.671 -11.102 -23.690  0.00  0.00    -0.273 OA
ATOM      9  N   UNL     1      32.572  -9.376 -22.581  0.00  0.00    -0.299 N 
ATOM     10  C   UNL     1      32.748 -10.685 -22.995  0.00  0.00    +0.241 C 
ATOM     11  H   UNL     1      31.789  -9.161 -22.024  0.00  0.00    +0.150 HD
BRANCH   9  12
ATOM     12  C   UNL     1      33.482  -8.307 -22.927  0.00  0.00    +0.116 C 
BRANCH  12  13
ATOM     13  C   UNL     1      32.771  -6.994 -23.085  0.00  0.00    -0.003 C 
ATOM     14  C   UNL     1      32.819  -6.318 -24.305  0.00  0.00    -0.003 C 
ATOM     15  C   UNL     1      32.065  -6.449 -22.013  0.00  0.00    -0.003 C 
ATOM     16  C   UNL     1      32.159  -5.098 -24.452  0.00  0.00    +0.002 C 
ATOM     17  C   UNL     1      31.406  -5.228 -22.160  0.00  0.00    +0.002 C 
ATOM     18  C   UNL     1      31.452  -4.553 -23.380  0.00  0.00    +0.031 C 
BRANCH  18  21
ATOM     19  N   UNL     1      30.476  -2.760 -24.793  0.00  0.00    -0.343 N 
ATOM     20  N   UNL     1      30.403  -2.595 -22.464  0.00  0.00    -0.285 NA
ATOM     21  C   UNL     1      30.764  -3.282 -23.533  0.00  0.00    +0.117 C 
ATOM     22  H   UNL     1      30.009  -1.897 -24.874  0.00  0.00    +0.144 HD
ATOM     23  H   UNL     1      30.740  -3.255 -25.603  0.00  0.00    +0.144 HD
ATOM     24  H   UNL     1      29.937  -1.734 -22.566  0.00  0.00    +0.188 HD
ENDBRANCH  18  21
ENDBRANCH  12  13
ENDBRANCH   9  12
ENDBRANCH   3  10
BRANCH   7  25
ATOM     25  C   UNL     1      33.435 -13.909 -22.953  0.00  0.00    +0.006 C 
BRANCH  25  26
ATOM     26  N   UNL     1      33.144 -15.321 -23.140  0.00  0.00    +0.391 N 
ATOM     27  H   UNL     1      32.826 -15.718 -22.255  0.00  0.00    -0.084 HD
ATOM     28  H   UNL     1      32.418 -15.416 -23.850  0.00  0.00    -0.084 HD
BRANCH  26  29
ATOM     29  C   UNL     1      34.341 -16.039 -23.587  0.00  0.00    -0.061 C 
ATOM     30  C   UNL     1      35.146 -16.542 -22.381  0.00  0.00    -0.021 C 
ATOM     31  C   UNL     1      33.930 -17.088 -24.631  0.00  0.00    -0.021 C 
ATOM     32  C   UNL     1      35.041 -18.057 -25.042  0.00  0.00    -0.002 C 
ATOM     33  C   UNL     1      34.474 -17.555 -21.454  0.00  0.00    -0.002 C 
ATOM     34  C   UNL     1      34.927 -19.452 -24.424  0.00  0.00    -0.000 C 
ATOM     35  C   UNL     1      34.102 -18.915 -22.044  0.00  0.00    -0.000 C 
ATOM     36  C   UNL     1      35.177 -19.562 -22.918  0.00  0.00    -0.000 C 
ENDBRANCH  26  29
ENDBRANCH  25  26
ENDBRANCH   7  25
TORSDOF 7
ENDMDL
