MODEL 1
REMARK VINA RESULT:      -9.4      0.000      0.000
REMARK  Name = 4747
REMARK  6 active torsions:
REMARK  status: ('A' for Active; 'I' for Inactive)
REMARK    1  A    between atoms: N_2  and  C_17
REMARK    2  A    between atoms: C_11  and  C_16
REMARK    3  A    between atoms: C_17  and  C_18
REMARK    4  A    between atoms: C_18  and  C_19
REMARK    5  A    between atoms: C_19  and  N_20
REMARK    6  A    between atoms: C_23  and  O_27
REMARK                            x       y       z     vdW  Elec       q    Type
REMARK                         _______ _______ _______ _____ _____    ______ ____
ROOT
ATOM      1  S   UNL     1      32.234  -7.784 -19.964  0.00  0.00    -0.084 S 
ATOM      2  N   UNL     1      32.322  -9.007 -22.821  0.00  0.00    -0.286 N 
ATOM      3  C   UNL     1      32.121  -7.605 -22.758  0.00  0.00    +0.058 C 
ATOM      4  C   UNL     1      32.046  -9.918 -21.770  0.00  0.00    +0.058 C 
ATOM      5  C   UNL     1      32.039  -6.938 -21.520  0.00  0.00    +0.043 C 
ATOM      6  C   UNL     1      31.957  -9.480 -20.434  0.00  0.00    +0.043 C 
ATOM      7  C   UNL     1      31.958  -6.820 -23.921  0.00  0.00    +0.026 C 
ATOM      8  C   UNL     1      31.812 -11.289 -22.011  0.00  0.00    +0.015 C 
ATOM      9  C   UNL     1      31.831  -5.547 -21.463  0.00  0.00    +0.008 C 
ATOM     10  C   UNL     1      31.675 -10.386 -19.396  0.00  0.00    +0.008 C 
ATOM     11  C   UNL     1      31.747  -5.440 -23.858  0.00  0.00    +0.070 C 
ATOM     12  C   UNL     1      31.528 -12.186 -20.977  0.00  0.00    +0.001 C 
ATOM     13  C   UNL     1      31.686  -4.802 -22.629  0.00  0.00    +0.011 C 
ATOM     14  C   UNL     1      31.463 -11.734 -19.668  0.00  0.00    +0.001 C 
ENDROOT
BRANCH  11  16
ATOM     15  N   UNL     1      31.478  -4.069 -26.041  0.00  0.00    -0.191 NA
ATOM     16  C   UNL     1      31.599  -4.684 -25.063  0.00  0.00    +0.100 C 
ENDBRANCH  11  16
BRANCH   2  17
ATOM     17  C   UNL     1      32.789  -9.567 -24.096  0.00  0.00    +0.093 C 
BRANCH  17  18
ATOM     18  C   UNL     1      34.280  -9.901 -24.011  0.00  0.00    -0.001 C 
BRANCH  18  19
ATOM     19  C   UNL     1      34.741 -10.856 -25.113  0.00  0.00    -0.076 C 
BRANCH  19  20
ATOM     20  N   UNL     1      33.752 -11.899 -25.383  0.00  0.00    +0.387 N 
ATOM     21  C   UNL     1      33.851 -12.354 -26.775  0.00  0.00    -0.075 C 
ATOM     22  C   UNL     1      33.915 -13.018 -24.445  0.00  0.00    -0.075 C 
ATOM     23  C   UNL     1      32.810 -14.578 -26.119  0.00  0.00    +0.106 C 
ATOM     24  C   UNL     1      32.778 -13.401 -27.094  0.00  0.00    +0.006 C 
ATOM     25  C   UNL     1      32.847 -14.091 -24.672  0.00  0.00    +0.006 C 
ATOM     26  H   UNL     1      32.819 -11.508 -25.246  0.00  0.00    -0.080 HD
BRANCH  23  27
ATOM     27  O   UNL     1      33.938 -15.407 -26.387  0.00  0.00    -0.385 OA
ATOM     28  H   UNL     1      34.752 -14.894 -26.269  0.00  0.00    +0.210 HD
ENDBRANCH  23  27
ENDBRANCH  19  20
ENDBRANCH  18  19
ENDBRANCH  17  18
ENDBRANCH   2  17
TORSDOF 6
ENDMDL
MODEL 2
REMARK VINA RESULT:      -9.0     13.620     16.608
REMARK  Name = 4747
REMARK  6 active torsions:
REMARK  status: ('A' for Active; 'I' for Inactive)
REMARK    1  A    between atoms: N_2  and  C_17
REMARK    2  A    between atoms: C_11  and  C_16
REMARK    3  A    between atoms: C_17  and  C_18
REMARK    4  A    between atoms: C_18  and  C_19
REMARK    5  A    between atoms: C_19  and  N_20
REMARK    6  A    between atoms: C_23  and  O_27
REMARK                            x       y       z     vdW  Elec       q    Type
REMARK                         _______ _______ _______ _____ _____    ______ ____
ROOT
ATOM      1  S   UNL     1      37.861 -23.040 -15.228  0.00  0.00    -0.084 S 
ATOM      2  N   UNL     1      34.876 -23.875 -14.988  0.00  0.00    -0.286 N 
ATOM      3  C   UNL     1      35.224 -23.167 -16.166  0.00  0.00    +0.058 C 
ATOM      4  C   UNL     1      35.606 -23.843 -13.772  0.00  0.00    +0.058 C 
ATOM      5  C   UNL     1      36.541 -22.714 -16.379  0.00  0.00    +0.043 C 
ATOM      6  C   UNL     1      36.960 -23.458 -13.748  0.00  0.00    +0.043 C 
ATOM      7  C   UNL     1      34.270 -22.852 -17.159  0.00  0.00    +0.026 C 
ATOM      8  C   UNL     1      35.007 -24.157 -12.533  0.00  0.00    +0.015 C 
ATOM      9  C   UNL     1      36.879 -22.005 -17.546  0.00  0.00    +0.008 C 
ATOM     10  C   UNL     1      37.677 -23.420 -12.539  0.00  0.00    +0.008 C 
ATOM     11  C   UNL     1      34.610 -22.143 -18.314  0.00  0.00    +0.070 C 
ATOM     12  C   UNL     1      35.722 -24.114 -11.333  0.00  0.00    +0.001 C 
ATOM     13  C   UNL     1      35.917 -21.722 -18.509  0.00  0.00    +0.011 C 
ATOM     14  C   UNL     1      37.059 -23.748 -11.336  0.00  0.00    +0.001 C 
ENDROOT
BRANCH  11  16
ATOM     15  N   UNL     1      32.801 -21.624 -20.094  0.00  0.00    -0.191 NA
ATOM     16  C   UNL     1      33.613 -21.856 -19.296  0.00  0.00    +0.100 C 
ENDBRANCH  11  16
BRANCH   2  17
ATOM     17  C   UNL     1      33.627 -24.648 -15.007  0.00  0.00    +0.093 C 
BRANCH  17  18
ATOM     18  C   UNL     1      32.541 -23.915 -14.216  0.00  0.00    -0.001 C 
BRANCH  18  19
ATOM     19  C   UNL     1      31.363 -24.817 -13.844  0.00  0.00    -0.076 C 
BRANCH  19  20
ATOM     20  N   UNL     1      30.100 -24.319 -14.387  0.00  0.00    +0.387 N 
ATOM     21  C   UNL     1      30.102 -22.851 -14.429  0.00  0.00    -0.075 C 
ATOM     22  C   UNL     1      29.852 -24.888 -15.718  0.00  0.00    -0.075 C 
ATOM     23  C   UNL     1      28.367 -22.905 -16.285  0.00  0.00    +0.106 C 
ATOM     24  C   UNL     1      28.760 -22.309 -14.934  0.00  0.00    +0.006 C 
ATOM     25  C   UNL     1      28.502 -24.427 -16.275  0.00  0.00    +0.006 C 
ATOM     26  H   UNL     1      29.341 -24.614 -13.772  0.00  0.00    -0.080 HD
BRANCH  23  27
ATOM     27  O   UNL     1      29.173 -22.348 -17.321  0.00  0.00    -0.385 OA
ATOM     28  H   UNL     1      28.603 -22.016 -18.031  0.00  0.00    +0.210 HD
ENDBRANCH  23  27
ENDBRANCH  19  20
ENDBRANCH  18  19
ENDBRANCH  17  18
ENDBRANCH   2  17
TORSDOF 6
ENDMDL
MODEL 3
REMARK VINA RESULT:      -8.8     12.707     15.759
REMARK  Name = 4747
REMARK  6 active torsions:
REMARK  status: ('A' for Active; 'I' for Inactive)
REMARK    1  A    between atoms: N_2  and  C_17
REMARK    2  A    between atoms: C_11  and  C_16
REMARK    3  A    between atoms: C_17  and  C_18
REMARK    4  A    between atoms: C_18  and  C_19
REMARK    5  A    between atoms: C_19  and  N_20
REMARK    6  A    between atoms: C_23  and  O_27
REMARK                            x       y       z     vdW  Elec       q    Type
REMARK                         _______ _______ _______ _____ _____    ______ ____
ROOT
ATOM      1  S   UNL     1      35.662 -24.883 -12.850  0.00  0.00    -0.084 S 
ATOM      2  N   UNL     1      36.067 -23.139 -15.392  0.00  0.00    -0.286 N 
ATOM      3  C   UNL     1      34.723 -23.461 -15.074  0.00  0.00    +0.058 C 
ATOM      4  C   UNL     1      37.204 -23.867 -14.957  0.00  0.00    +0.058 C 
ATOM      5  C   UNL     1      34.413 -24.265 -13.960  0.00  0.00    +0.043 C 
ATOM      6  C   UNL     1      37.139 -24.710 -13.831  0.00  0.00    +0.043 C 
ATOM      7  C   UNL     1      33.641 -23.026 -15.872  0.00  0.00    +0.026 C 
ATOM      8  C   UNL     1      38.435 -23.812 -15.647  0.00  0.00    +0.015 C 
ATOM      9  C   UNL     1      33.078 -24.587 -13.653  0.00  0.00    +0.008 C 
ATOM     10  C   UNL     1      38.267 -25.436 -13.409  0.00  0.00    +0.008 C 
ATOM     11  C   UNL     1      32.318 -23.354 -15.565  0.00  0.00    +0.070 C 
ATOM     12  C   UNL     1      39.552 -24.538 -15.226  0.00  0.00    +0.001 C 
ATOM     13  C   UNL     1      32.036 -24.133 -14.454  0.00  0.00    +0.011 C 
ATOM     14  C   UNL     1      39.470 -25.349 -14.104  0.00  0.00    +0.001 C 
ENDROOT
BRANCH  11  16
ATOM     15  N   UNL     1      30.391 -22.498 -17.072  0.00  0.00    -0.191 NA
ATOM     16  C   UNL     1      31.255 -22.882 -16.396  0.00  0.00    +0.100 C 
ENDBRANCH  11  16
BRANCH   2  17
ATOM     17  C   UNL     1      36.295 -22.004 -16.296  0.00  0.00    +0.093 C 
BRANCH  17  18
ATOM     18  C   UNL     1      35.824 -22.353 -17.709  0.00  0.00    -0.001 C 
BRANCH  18  19
ATOM     19  C   UNL     1      36.633 -21.646 -18.798  0.00  0.00    -0.076 C 
BRANCH  19  20
ATOM     20  N   UNL     1      35.885 -20.546 -19.408  0.00  0.00    +0.387 N 
ATOM     21  C   UNL     1      36.716 -19.846 -20.397  0.00  0.00    -0.075 C 
ATOM     22  C   UNL     1      34.642 -21.042 -20.013  0.00  0.00    -0.075 C 
ATOM     23  C   UNL     1      34.617 -19.047 -21.587  0.00  0.00    +0.106 C 
ATOM     24  C   UNL     1      35.971 -18.650 -20.999  0.00  0.00    +0.006 C 
ATOM     25  C   UNL     1      33.816 -19.894 -20.600  0.00  0.00    +0.006 C 
ATOM     26  H   UNL     1      35.635 -19.877 -18.679  0.00  0.00    -0.080 HD
BRANCH  23  27
ATOM     27  O   UNL     1      34.803 -19.759 -22.808  0.00  0.00    -0.385 OA
ATOM     28  H   UNL     1      34.542 -19.197 -23.553  0.00  0.00    +0.210 HD
ENDBRANCH  23  27
ENDBRANCH  19  20
ENDBRANCH  18  19
ENDBRANCH  17  18
ENDBRANCH   2  17
TORSDOF 6
ENDMDL
MODEL 4
REMARK VINA RESULT:      -8.7      3.253      6.177
REMARK  Name = 4747
REMARK  6 active torsions:
REMARK  status: ('A' for Active; 'I' for Inactive)
REMARK    1  A    between atoms: N_2  and  C_17
REMARK    2  A    between atoms: C_11  and  C_16
REMARK    3  A    between atoms: C_17  and  C_18
REMARK    4  A    between atoms: C_18  and  C_19
REMARK    5  A    between atoms: C_19  and  N_20
REMARK    6  A    between atoms: C_23  and  O_27
REMARK                            x       y       z     vdW  Elec       q    Type
REMARK                         _______ _______ _______ _____ _____    ______ ____
ROOT
ATOM      1  S   UNL     1      33.903  -9.955 -23.926  0.00  0.00    -0.084 S 
ATOM      2  N   UNL     1      32.591 -12.332 -22.412  0.00  0.00    -0.286 N 
ATOM      3  C   UNL     1      32.939 -12.580 -23.764  0.00  0.00    +0.058 C 
ATOM      4  C   UNL     1      32.374 -11.048 -21.849  0.00  0.00    +0.058 C 
ATOM      5  C   UNL     1      33.518 -11.574 -24.561  0.00  0.00    +0.043 C 
ATOM      6  C   UNL     1      32.898  -9.891 -22.456  0.00  0.00    +0.043 C 
ATOM      7  C   UNL     1      32.691 -13.825 -24.383  0.00  0.00    +0.026 C 
ATOM      8  C   UNL     1      31.599 -10.865 -20.683  0.00  0.00    +0.015 C 
ATOM      9  C   UNL     1      33.853 -11.823 -25.905  0.00  0.00    +0.008 C 
ATOM     10  C   UNL     1      32.673  -8.620 -21.898  0.00  0.00    +0.008 C 
ATOM     11  C   UNL     1      33.021 -14.066 -25.719  0.00  0.00    +0.070 C 
ATOM     12  C   UNL     1      31.375  -9.600 -20.134  0.00  0.00    +0.001 C 
ATOM     13  C   UNL     1      33.606 -13.065 -26.480  0.00  0.00    +0.011 C 
ATOM     14  C   UNL     1      31.915  -8.476 -20.740  0.00  0.00    +0.001 C 
ENDROOT
BRANCH  11  16
ATOM     15  N   UNL     1      32.550 -16.387 -26.772  0.00  0.00    -0.191 NA
ATOM     16  C   UNL     1      32.761 -15.346 -26.301  0.00  0.00    +0.100 C 
ENDBRANCH  11  16
BRANCH   2  17
ATOM     17  C   UNL     1      32.374 -13.497 -21.545  0.00  0.00    +0.093 C 
BRANCH  17  18
ATOM     18  C   UNL     1      33.713 -14.143 -21.184  0.00  0.00    -0.001 C 
BRANCH  18  19
ATOM     19  C   UNL     1      33.568 -15.587 -20.701  0.00  0.00    -0.076 C 
BRANCH  19  20
ATOM     20  N   UNL     1      33.853 -16.551 -21.763  0.00  0.00    +0.387 N 
ATOM     21  C   UNL     1      34.856 -16.012 -22.690  0.00  0.00    -0.075 C 
ATOM     22  C   UNL     1      34.290 -17.832 -21.192  0.00  0.00    -0.075 C 
ATOM     23  C   UNL     1      35.505 -18.377 -23.356  0.00  0.00    +0.106 C 
ATOM     24  C   UNL     1      35.120 -16.983 -23.847  0.00  0.00    +0.006 C 
ATOM     25  C   UNL     1      34.531 -18.873 -22.289  0.00  0.00    +0.006 C 
ATOM     26  H   UNL     1      32.996 -16.718 -22.292  0.00  0.00    -0.080 HD
BRANCH  23  27
ATOM     27  O   UNL     1      36.834 -18.367 -22.842  0.00  0.00    -0.385 OA
ATOM     28  H   UNL     1      37.262 -19.215 -23.034  0.00  0.00    +0.210 HD
ENDBRANCH  23  27
ENDBRANCH  19  20
ENDBRANCH  18  19
ENDBRANCH  17  18
ENDBRANCH   2  17
TORSDOF 6
ENDMDL
MODEL 5
REMARK VINA RESULT:      -8.7      3.771      7.345
REMARK  Name = 4747
REMARK  6 active torsions:
REMARK  status: ('A' for Active; 'I' for Inactive)
REMARK    1  A    between atoms: N_2  and  C_17
REMARK    2  A    between atoms: C_11  and  C_16
REMARK    3  A    between atoms: C_17  and  C_18
REMARK    4  A    between atoms: C_18  and  C_19
REMARK    5  A    between atoms: C_19  and  N_20
REMARK    6  A    between atoms: C_23  and  O_27
REMARK                            x       y       z     vdW  Elec       q    Type
REMARK                         _______ _______ _______ _____ _____    ______ ____
ROOT
ATOM      1  S   UNL     1      33.324 -15.904 -26.108  0.00  0.00    -0.084 S 
ATOM      2  N   UNL     1      34.061 -15.028 -23.217  0.00  0.00    -0.286 N 
ATOM      3  C   UNL     1      33.911 -13.979 -24.159  0.00  0.00    +0.058 C 
ATOM      4  C   UNL     1      34.344 -16.380 -23.542  0.00  0.00    +0.058 C 
ATOM      5  C   UNL     1      33.601 -14.251 -25.506  0.00  0.00    +0.043 C 
ATOM      6  C   UNL     1      34.076 -16.889 -24.827  0.00  0.00    +0.043 C 
ATOM      7  C   UNL     1      34.097 -12.624 -23.805  0.00  0.00    +0.026 C 
ATOM      8  C   UNL     1      34.935 -17.263 -22.613  0.00  0.00    +0.015 C 
ATOM      9  C   UNL     1      33.460 -13.206 -26.438  0.00  0.00    +0.008 C 
ATOM     10  C   UNL     1      34.365 -18.228 -25.146  0.00  0.00    +0.008 C 
ATOM     11  C   UNL     1      33.962 -11.591 -24.736  0.00  0.00    +0.070 C 
ATOM     12  C   UNL     1      35.224 -18.592 -22.935  0.00  0.00    +0.001 C 
ATOM     13  C   UNL     1      33.640 -11.881 -26.052  0.00  0.00    +0.011 C 
ATOM     14  C   UNL     1      34.936 -19.076 -24.202  0.00  0.00    +0.001 C 
ENDROOT
BRANCH  11  16
ATOM     15  N   UNL     1      34.303  -9.130 -23.997  0.00  0.00    -0.191 NA
ATOM     16  C   UNL     1      34.149 -10.233 -24.329  0.00  0.00    +0.100 C 
ENDBRANCH  11  16
BRANCH   2  17
ATOM     17  C   UNL     1      33.986 -14.676 -21.793  0.00  0.00    +0.093 C 
BRANCH  17  18
ATOM     18  C   UNL     1      32.530 -14.439 -21.385  0.00  0.00    -0.001 C 
BRANCH  18  19
ATOM     19  C   UNL     1      32.395 -13.566 -20.137  0.00  0.00    -0.076 C 
BRANCH  19  20
ATOM     20  N   UNL     1      31.667 -12.327 -20.411  0.00  0.00    +0.387 N 
ATOM     21  C   UNL     1      32.086 -11.269 -19.483  0.00  0.00    -0.075 C 
ATOM     22  C   UNL     1      31.859 -11.916 -21.808  0.00  0.00    -0.075 C 
ATOM     23  C   UNL     1      31.354  -9.510 -21.165  0.00  0.00    +0.106 C 
ATOM     24  C   UNL     1      31.287  -9.982 -19.714  0.00  0.00    +0.006 C 
ATOM     25  C   UNL     1      31.052 -10.655 -22.130  0.00  0.00    +0.006 C 
ATOM     26  H   UNL     1      30.671 -12.495 -20.266  0.00  0.00    -0.080 HD
BRANCH  23  27
ATOM     27  O   UNL     1      32.640  -8.960 -21.443  0.00  0.00    -0.385 OA
ATOM     28  H   UNL     1      32.832  -9.050 -22.389  0.00  0.00    +0.210 HD
ENDBRANCH  23  27
ENDBRANCH  19  20
ENDBRANCH  18  19
ENDBRANCH  17  18
ENDBRANCH   2  17
TORSDOF 6
ENDMDL
MODEL 6
REMARK VINA RESULT:      -8.7     12.108     15.438
REMARK  Name = 4747
REMARK  6 active torsions:
REMARK  status: ('A' for Active; 'I' for Inactive)
REMARK    1  A    between atoms: N_2  and  C_17
REMARK    2  A    between atoms: C_11  and  C_16
REMARK    3  A    between atoms: C_17  and  C_18
REMARK    4  A    between atoms: C_18  and  C_19
REMARK    5  A    between atoms: C_19  and  N_20
REMARK    6  A    between atoms: C_23  and  O_27
REMARK                            x       y       z     vdW  Elec       q    Type
REMARK                         _______ _______ _______ _____ _____    ______ ____
ROOT
ATOM      1  S   UNL     1      32.251 -24.488 -13.448  0.00  0.00    -0.084 S 
ATOM      2  N   UNL     1      33.111 -23.706 -16.332  0.00  0.00    -0.286 N 
ATOM      3  C   UNL     1      34.168 -23.905 -15.407  0.00  0.00    +0.058 C 
ATOM      4  C   UNL     1      31.771 -23.398 -15.984  0.00  0.00    +0.058 C 
ATOM      5  C   UNL     1      33.904 -24.239 -14.064  0.00  0.00    +0.043 C 
ATOM      6  C   UNL     1      31.271 -23.682 -14.699  0.00  0.00    +0.043 C 
ATOM      7  C   UNL     1      35.523 -23.744 -15.774  0.00  0.00    +0.026 C 
ATOM      8  C   UNL     1      30.892 -22.763 -16.888  0.00  0.00    +0.015 C 
ATOM      9  C   UNL     1      34.956 -24.428 -13.149  0.00  0.00    +0.008 C 
ATOM     10  C   UNL     1      29.944 -23.367 -14.357  0.00  0.00    +0.008 C 
ATOM     11  C   UNL     1      36.563 -23.928 -14.859  0.00  0.00    +0.070 C 
ATOM     12  C   UNL     1      29.575 -22.448 -16.542  0.00  0.00    +0.001 C 
ATOM     13  C   UNL     1      36.280 -24.273 -13.546  0.00  0.00    +0.011 C 
ATOM     14  C   UNL     1      29.099 -22.753 -15.276  0.00  0.00    +0.001 C 
ENDROOT
BRANCH  11  16
ATOM     15  N   UNL     1      39.023 -23.632 -15.620  0.00  0.00    -0.191 NA
ATOM     16  C   UNL     1      37.920 -23.764 -15.278  0.00  0.00    +0.100 C 
ENDBRANCH  11  16
BRANCH   2  17
ATOM     17  C   UNL     1      33.445 -23.757 -17.761  0.00  0.00    +0.093 C 
BRANCH  17  18
ATOM     18  C   UNL     1      33.514 -22.341 -18.337  0.00  0.00    -0.001 C 
BRANCH  18  19
ATOM     19  C   UNL     1      34.844 -22.044 -19.032  0.00  0.00    -0.076 C 
BRANCH  19  20
ATOM     20  N   UNL     1      34.862 -20.711 -19.634  0.00  0.00    +0.387 N 
ATOM     21  C   UNL     1      36.068 -20.533 -20.453  0.00  0.00    -0.075 C 
ATOM     22  C   UNL     1      33.645 -20.487 -20.425  0.00  0.00    -0.075 C 
ATOM     23  C   UNL     1      34.874 -18.753 -21.818  0.00  0.00    +0.106 C 
ATOM     24  C   UNL     1      36.136 -19.119 -21.039  0.00  0.00    +0.006 C 
ATOM     25  C   UNL     1      33.617 -19.072 -21.010  0.00  0.00    +0.006 C 
ATOM     26  H   UNL     1      34.885 -20.016 -18.887  0.00  0.00    -0.080 HD
BRANCH  23  27
ATOM     27  O   UNL     1      34.847 -19.448 -23.063  0.00  0.00    -0.385 OA
ATOM     28  H   UNL     1      35.615 -20.036 -23.121  0.00  0.00    +0.210 HD
ENDBRANCH  23  27
ENDBRANCH  19  20
ENDBRANCH  18  19
ENDBRANCH  17  18
ENDBRANCH   2  17
TORSDOF 6
ENDMDL
MODEL 7
REMARK VINA RESULT:      -8.5     13.727     17.241
REMARK  Name = 4747
REMARK  6 active torsions:
REMARK  status: ('A' for Active; 'I' for Inactive)
REMARK    1  A    between atoms: N_2  and  C_17
REMARK    2  A    between atoms: C_11  and  C_16
REMARK    3  A    between atoms: C_17  and  C_18
REMARK    4  A    between atoms: C_18  and  C_19
REMARK    5  A    between atoms: C_19  and  N_20
REMARK    6  A    between atoms: C_23  and  O_27
REMARK                            x       y       z     vdW  Elec       q    Type
REMARK                         _______ _______ _______ _____ _____    ______ ____
ROOT
ATOM      1  S   UNL     1      37.179 -21.718 -16.887  0.00  0.00    -0.084 S 
ATOM      2  N   UNL     1      34.703 -23.461 -16.182  0.00  0.00    -0.286 N 
ATOM      3  C   UNL     1      35.893 -23.767 -15.473  0.00  0.00    +0.058 C 
ATOM      4  C   UNL     1      34.647 -22.789 -17.430  0.00  0.00    +0.058 C 
ATOM      5  C   UNL     1      37.087 -23.063 -15.722  0.00  0.00    +0.043 C 
ATOM      6  C   UNL     1      35.718 -21.988 -17.871  0.00  0.00    +0.043 C 
ATOM      7  C   UNL     1      35.949 -24.806 -14.519  0.00  0.00    +0.026 C 
ATOM      8  C   UNL     1      33.543 -22.918 -18.299  0.00  0.00    +0.015 C 
ATOM      9  C   UNL     1      38.267 -23.375 -15.022  0.00  0.00    +0.008 C 
ATOM     10  C   UNL     1      35.661 -21.330 -19.112  0.00  0.00    +0.008 C 
ATOM     11  C   UNL     1      37.124 -25.116 -13.830  0.00  0.00    +0.070 C 
ATOM     12  C   UNL     1      33.492 -22.266 -19.534  0.00  0.00    +0.001 C 
ATOM     13  C   UNL     1      38.284 -24.398 -14.080  0.00  0.00    +0.011 C 
ATOM     14  C   UNL     1      34.551 -21.468 -19.940  0.00  0.00    +0.001 C 
ENDROOT
BRANCH  11  16
ATOM     15  N   UNL     1      37.135 -27.026 -12.079  0.00  0.00    -0.191 NA
ATOM     16  C   UNL     1      37.130 -26.170 -12.864  0.00  0.00    +0.100 C 
ENDBRANCH  11  16
BRANCH   2  17
ATOM     17  C   UNL     1      33.436 -23.937 -15.612  0.00  0.00    +0.093 C 
BRANCH  17  18
ATOM     18  C   UNL     1      32.778 -22.827 -14.789  0.00  0.00    -0.001 C 
BRANCH  18  19
ATOM     19  C   UNL     1      31.919 -23.363 -13.643  0.00  0.00    -0.076 C 
BRANCH  19  20
ATOM     20  N   UNL     1      30.516 -23.508 -14.032  0.00  0.00    +0.387 N 
ATOM     21  C   UNL     1      30.156 -22.502 -15.040  0.00  0.00    -0.075 C 
ATOM     22  C   UNL     1      30.255 -24.868 -14.522  0.00  0.00    -0.075 C 
ATOM     23  C   UNL     1      28.276 -24.003 -15.860  0.00  0.00    +0.106 C 
ATOM     24  C   UNL     1      28.672 -22.597 -15.411  0.00  0.00    +0.006 C 
ATOM     25  C   UNL     1      28.777 -25.056 -14.873  0.00  0.00    +0.006 C 
ATOM     26  H   UNL     1      29.931 -23.352 -13.210  0.00  0.00    -0.080 HD
BRANCH  23  27
ATOM     27  O   UNL     1      28.791 -24.265 -17.162  0.00  0.00    -0.385 OA
ATOM     28  H   UNL     1      29.286 -23.493 -17.476  0.00  0.00    +0.210 HD
ENDBRANCH  23  27
ENDBRANCH  19  20
ENDBRANCH  18  19
ENDBRANCH  17  18
ENDBRANCH   2  17
TORSDOF 6
ENDMDL
MODEL 8
REMARK VINA RESULT:      -8.4     12.255     15.383
REMARK  Name = 4747
REMARK  6 active torsions:
REMARK  status: ('A' for Active; 'I' for Inactive)
REMARK    1  A    between atoms: N_2  and  C_17
REMARK    2  A    between atoms: C_11  and  C_16
REMARK    3  A    between atoms: C_17  and  C_18
REMARK    4  A    between atoms: C_18  and  C_19
REMARK    5  A    between atoms: C_19  and  N_20
REMARK    6  A    between atoms: C_23  and  O_27
REMARK                            x       y       z     vdW  Elec       q    Type
REMARK                         _______ _______ _______ _____ _____    ______ ____
ROOT
ATOM      1  S   UNL     1      33.193 -23.371 -12.923  0.00  0.00    -0.084 S 
ATOM      2  N   UNL     1      33.551 -23.718 -15.992  0.00  0.00    -0.286 N 
ATOM      3  C   UNL     1      32.219 -23.527 -15.546  0.00  0.00    +0.058 C 
ATOM      4  C   UNL     1      34.619 -24.196 -15.190  0.00  0.00    +0.058 C 
ATOM      5  C   UNL     1      31.926 -23.382 -14.176  0.00  0.00    +0.043 C 
ATOM      6  C   UNL     1      34.563 -24.116 -13.785  0.00  0.00    +0.043 C 
ATOM      7  C   UNL     1      31.125 -23.509 -16.440  0.00  0.00    +0.026 C 
ATOM      8  C   UNL     1      35.762 -24.802 -15.753  0.00  0.00    +0.015 C 
ATOM      9  C   UNL     1      30.601 -23.200 -13.737  0.00  0.00    +0.008 C 
ATOM     10  C   UNL     1      35.621 -24.598 -12.994  0.00  0.00    +0.008 C 
ATOM     11  C   UNL     1      29.811 -23.334 -15.999  0.00  0.00    +0.070 C 
ATOM     12  C   UNL     1      36.810 -25.284 -14.963  0.00  0.00    +0.001 C 
ATOM     13  C   UNL     1      29.549 -23.177 -14.647  0.00  0.00    +0.011 C 
ATOM     14  C   UNL     1      36.740 -25.179 -13.582  0.00  0.00    +0.001 C 
ENDROOT
BRANCH  11  16
ATOM     15  N   UNL     1      27.865 -23.294 -17.710  0.00  0.00    -0.191 NA
ATOM     16  C   UNL     1      28.738 -23.312 -16.943  0.00  0.00    +0.100 C 
ENDBRANCH  11  16
BRANCH   2  17
ATOM     17  C   UNL     1      33.831 -23.465 -17.412  0.00  0.00    +0.093 C 
BRANCH  17  18
ATOM     18  C   UNL     1      34.823 -22.309 -17.555  0.00  0.00    -0.001 C 
BRANCH  18  19
ATOM     19  C   UNL     1      35.328 -22.131 -18.988  0.00  0.00    -0.076 C 
BRANCH  19  20
ATOM     20  N   UNL     1      34.990 -20.815 -19.529  0.00  0.00    +0.387 N 
ATOM     21  C   UNL     1      36.077 -20.314 -20.381  0.00  0.00    -0.075 C 
ATOM     22  C   UNL     1      33.721 -20.872 -20.265  0.00  0.00    -0.075 C 
ATOM     23  C   UNL     1      34.420 -18.840 -21.621  0.00  0.00    +0.106 C 
ATOM     24  C   UNL     1      35.768 -18.908 -20.904  0.00  0.00    +0.006 C 
ATOM     25  C   UNL     1      33.319 -19.488 -20.784  0.00  0.00    +0.006 C 
ATOM     26  H   UNL     1      34.875 -20.162 -18.753  0.00  0.00    -0.080 HD
BRANCH  23  27
ATOM     27  O   UNL     1      34.509 -19.475 -22.894  0.00  0.00    -0.385 OA
ATOM     28  H   UNL     1      35.283 -20.059 -22.911  0.00  0.00    +0.210 HD
ENDBRANCH  23  27
ENDBRANCH  19  20
ENDBRANCH  18  19
ENDBRANCH  17  18
ENDBRANCH   2  17
TORSDOF 6
ENDMDL
MODEL 9
REMARK VINA RESULT:      -8.2      3.510      7.132
REMARK  Name = 4747
REMARK  6 active torsions:
REMARK  status: ('A' for Active; 'I' for Inactive)
REMARK    1  A    between atoms: N_2  and  C_17
REMARK    2  A    between atoms: C_11  and  C_16
REMARK    3  A    between atoms: C_17  and  C_18
REMARK    4  A    between atoms: C_18  and  C_19
REMARK    5  A    between atoms: C_19  and  N_20
REMARK    6  A    between atoms: C_23  and  O_27
REMARK                            x       y       z     vdW  Elec       q    Type
REMARK                         _______ _______ _______ _____ _____    ______ ____
ROOT
ATOM      1  S   UNL     1      34.581 -16.377 -21.298  0.00  0.00    -0.084 S 
ATOM      2  N   UNL     1      33.585 -14.648 -23.683  0.00  0.00    -0.286 N 
ATOM      3  C   UNL     1      33.151 -14.233 -22.398  0.00  0.00    +0.058 C 
ATOM      4  C   UNL     1      34.023 -15.956 -24.011  0.00  0.00    +0.058 C 
ATOM      5  C   UNL     1      33.516 -14.949 -21.242  0.00  0.00    +0.043 C 
ATOM      6  C   UNL     1      34.476 -16.842 -23.015  0.00  0.00    +0.043 C 
ATOM      7  C   UNL     1      32.309 -13.113 -22.219  0.00  0.00    +0.026 C 
ATOM      8  C   UNL     1      33.994 -16.443 -25.336  0.00  0.00    +0.015 C 
ATOM      9  C   UNL     1      33.076 -14.538 -19.970  0.00  0.00    +0.008 C 
ATOM     10  C   UNL     1      34.902 -18.141 -23.345  0.00  0.00    +0.008 C 
ATOM     11  C   UNL     1      31.870 -12.712 -20.954  0.00  0.00    +0.070 C 
ATOM     12  C   UNL     1      34.414 -17.736 -25.660  0.00  0.00    +0.001 C 
ATOM     13  C   UNL     1      32.256 -13.423 -19.829  0.00  0.00    +0.011 C 
ATOM     14  C   UNL     1      34.872 -18.585 -24.663  0.00  0.00    +0.001 C 
ENDROOT
BRANCH  11  16
ATOM     15  N   UNL     1      30.343 -10.632 -20.713  0.00  0.00    -0.191 NA
ATOM     16  C   UNL     1      31.027 -11.565 -20.821  0.00  0.00    +0.100 C 
ENDBRANCH  11  16
BRANCH   2  17
ATOM     17  C   UNL     1      33.511 -13.666 -24.772  0.00  0.00    +0.093 C 
BRANCH  17  18
ATOM     18  C   UNL     1      34.301 -12.408 -24.401  0.00  0.00    -0.001 C 
BRANCH  18  19
ATOM     19  C   UNL     1      33.636 -11.121 -24.892  0.00  0.00    -0.076 C 
BRANCH  19  20
ATOM     20  N   UNL     1      33.770 -10.032 -23.925  0.00  0.00    +0.387 N 
ATOM     21  C   UNL     1      34.663  -8.988 -24.446  0.00  0.00    -0.075 C 
ATOM     22  C   UNL     1      32.451  -9.481 -23.584  0.00  0.00    -0.075 C 
ATOM     23  C   UNL     1      33.543  -7.280 -22.934  0.00  0.00    +0.106 C 
ATOM     24  C   UNL     1      34.866  -7.870 -23.419  0.00  0.00    +0.006 C 
ATOM     25  C   UNL     1      32.568  -8.382 -22.524  0.00  0.00    +0.006 C 
ATOM     26  H   UNL     1      34.187 -10.403 -23.070  0.00  0.00    -0.080 HD
BRANCH  23  27
ATOM     27  O   UNL     1      32.965  -6.468 -23.953  0.00  0.00    -0.385 OA
ATOM     28  H   UNL     1      33.358  -6.695 -24.810  0.00  0.00    +0.210 HD
ENDBRANCH  23  27
ENDBRANCH  19  20
ENDBRANCH  18  19
ENDBRANCH  17  18
ENDBRANCH   2  17
TORSDOF 6
ENDMDL
