MODEL 1
REMARK VINA RESULT:      -7.3      0.000      0.000
REMARK  Name = 7452
REMARK  2 active torsions:
REMARK  status: ('A' for Active; 'I' for Inactive)
REMARK    1  A    between atoms: C_1  and  N_9
REMARK    2  A    between atoms: C_2  and  N_12
REMARK                            x       y       z     vdW  Elec       q    Type
REMARK                         _______ _______ _______ _____ _____    ______ ____
ROOT
ATOM      1  C   UNL     1      37.737 -24.582 -12.713  0.00  0.00    +0.145 C 
ATOM      2  C   UNL     1      39.113 -25.804 -14.279  0.00  0.00    +0.145 C 
ATOM      3  C   UNL     1      38.998 -24.953 -13.179  0.00  0.00    +0.048 C 
ATOM      4  C   UNL     1      36.590 -25.060 -13.348  0.00  0.00    +0.024 C 
ATOM      5  C   UNL     1      37.966 -26.283 -14.913  0.00  0.00    +0.024 C 
ATOM      6  C   UNL     1      36.704 -25.911 -14.448  0.00  0.00    +0.003 C 
ENDROOT
BRANCH   1   9
ATOM      7  O   UNL     1      36.841 -24.030 -10.661  0.00  0.00    -0.126 OA
ATOM      8  O   UNL     1      38.297 -22.660 -11.569  0.00  0.00    -0.126 OA
ATOM      9  N   UNL     1      37.619 -23.716 -11.594  0.00  0.00    +0.058 N 
ENDBRANCH   1   9
BRANCH   2  12
ATOM     10  O   UNL     1      40.658 -26.051 -15.972  0.00  0.00    -0.126 OA
ATOM     11  O   UNL     1      41.234 -26.643 -13.938  0.00  0.00    -0.126 OA
ATOM     12  N   UNL     1      40.396 -26.184 -14.753  0.00  0.00    +0.058 N 
ENDBRANCH   2  12
TORSDOF 2
ENDMDL
MODEL 2
REMARK VINA RESULT:      -7.2      0.054      4.331
REMARK  Name = 7452
REMARK  2 active torsions:
REMARK  status: ('A' for Active; 'I' for Inactive)
REMARK    1  A    between atoms: C_1  and  N_9
REMARK    2  A    between atoms: C_2  and  N_12
REMARK                            x       y       z     vdW  Elec       q    Type
REMARK                         _______ _______ _______ _____ _____    ______ ____
ROOT
ATOM      1  C   UNL     1      39.086 -25.810 -14.247  0.00  0.00    +0.145 C 
ATOM      2  C   UNL     1      37.699 -24.572 -12.703  0.00  0.00    +0.145 C 
ATOM      3  C   UNL     1      38.963 -24.959 -13.148  0.00  0.00    +0.048 C 
ATOM      4  C   UNL     1      37.944 -26.275 -14.900  0.00  0.00    +0.024 C 
ATOM      5  C   UNL     1      36.557 -25.036 -13.357  0.00  0.00    +0.024 C 
ATOM      6  C   UNL     1      36.680 -25.888 -14.455  0.00  0.00    +0.003 C 
ENDROOT
BRANCH   1   9
ATOM      7  O   UNL     1      40.665 -26.045 -15.910  0.00  0.00    -0.126 OA
ATOM      8  O   UNL     1      41.181 -26.700 -13.879  0.00  0.00    -0.126 OA
ATOM      9  N   UNL     1      40.372 -26.204 -14.700  0.00  0.00    +0.058 N 
ENDBRANCH   1   9
BRANCH   2  12
ATOM     10  O   UNL     1      36.810 -24.031 -10.645  0.00  0.00    -0.126 OA
ATOM     11  O   UNL     1      38.230 -22.635 -11.569  0.00  0.00    -0.126 OA
ATOM     12  N   UNL     1      37.573 -23.705 -11.586  0.00  0.00    +0.058 N 
ENDBRANCH   2  12
TORSDOF 2
ENDMDL
MODEL 3
REMARK VINA RESULT:      -7.0      2.178      2.889
REMARK  Name = 7452
REMARK  2 active torsions:
REMARK  status: ('A' for Active; 'I' for Inactive)
REMARK    1  A    between atoms: C_1  and  N_9
REMARK    2  A    between atoms: C_2  and  N_12
REMARK                            x       y       z     vdW  Elec       q    Type
REMARK                         _______ _______ _______ _____ _____    ______ ____
ROOT
ATOM      1  C   UNL     1      35.847 -24.681 -12.393  0.00  0.00    +0.145 C 
ATOM      2  C   UNL     1      36.452 -25.795 -14.450  0.00  0.00    +0.145 C 
ATOM      3  C   UNL     1      36.623 -25.617 -13.077  0.00  0.00    +0.048 C 
ATOM      4  C   UNL     1      34.902 -23.922 -13.082  0.00  0.00    +0.024 C 
ATOM      5  C   UNL     1      35.505 -25.036 -15.139  0.00  0.00    +0.024 C 
ATOM      6  C   UNL     1      34.730 -24.099 -14.455  0.00  0.00    +0.003 C 
ENDROOT
BRANCH   1   9
ATOM      7  O   UNL     1      36.949 -23.760 -10.589  0.00  0.00    -0.126 OA
ATOM      8  O   UNL     1      35.241 -25.085 -10.205  0.00  0.00    -0.126 OA
ATOM      9  N   UNL     1      36.021 -24.500 -10.995  0.00  0.00    +0.058 N 
ENDBRANCH   1   9
BRANCH   2  12
ATOM     10  O   UNL     1      38.385 -27.022 -14.716  0.00  0.00    -0.126 OA
ATOM     11  O   UNL     1      36.767 -27.293 -16.174  0.00  0.00    -0.126 OA
ATOM     12  N   UNL     1      37.239 -26.748 -15.147  0.00  0.00    +0.058 N 
ENDBRANCH   2  12
TORSDOF 2
ENDMDL
MODEL 4
REMARK VINA RESULT:      -7.0     13.247     13.849
REMARK  Name = 7452
REMARK  2 active torsions:
REMARK  status: ('A' for Active; 'I' for Inactive)
REMARK    1  A    between atoms: C_1  and  N_9
REMARK    2  A    between atoms: C_2  and  N_12
REMARK                            x       y       z     vdW  Elec       q    Type
REMARK                         _______ _______ _______ _____ _____    ______ ____
ROOT
ATOM      1  C   UNL     1      34.222 -16.681 -24.491  0.00  0.00    +0.145 C 
ATOM      2  C   UNL     1      35.032 -17.700 -22.455  0.00  0.00    +0.145 C 
ATOM      3  C   UNL     1      34.588 -16.575 -23.150  0.00  0.00    +0.048 C 
ATOM      4  C   UNL     1      34.301 -17.914 -25.139  0.00  0.00    +0.024 C 
ATOM      5  C   UNL     1      35.110 -18.933 -23.103  0.00  0.00    +0.024 C 
ATOM      6  C   UNL     1      34.746 -19.040 -24.446  0.00  0.00    +0.003 C 
ENDROOT
BRANCH   1   9
ATOM      7  O   UNL     1      33.404 -14.527 -24.550  0.00  0.00    -0.126 OA
ATOM      8  O   UNL     1      33.749 -15.566 -26.453  0.00  0.00    -0.126 OA
ATOM      9  N   UNL     1      33.770 -15.536 -25.198  0.00  0.00    +0.058 N 
ENDBRANCH   1   9
BRANCH   2  12
ATOM     10  O   UNL     1      35.979 -18.560 -20.537  0.00  0.00    -0.126 OA
ATOM     11  O   UNL     1      35.144 -16.531 -20.470  0.00  0.00    -0.126 OA
ATOM     12  N   UNL     1      35.402 -17.592 -21.089  0.00  0.00    +0.058 N 
ENDBRANCH   2  12
TORSDOF 2
ENDMDL
MODEL 5
REMARK VINA RESULT:      -7.0     13.226     13.748
REMARK  Name = 7452
REMARK  2 active torsions:
REMARK  status: ('A' for Active; 'I' for Inactive)
REMARK    1  A    between atoms: C_1  and  N_9
REMARK    2  A    between atoms: C_2  and  N_12
REMARK                            x       y       z     vdW  Elec       q    Type
REMARK                         _______ _______ _______ _____ _____    ______ ____
ROOT
ATOM      1  C   UNL     1      35.046 -17.707 -22.437  0.00  0.00    +0.145 C 
ATOM      2  C   UNL     1      34.245 -16.682 -24.473  0.00  0.00    +0.145 C 
ATOM      3  C   UNL     1      34.611 -16.578 -23.131  0.00  0.00    +0.048 C 
ATOM      4  C   UNL     1      35.114 -18.940 -23.084  0.00  0.00    +0.024 C 
ATOM      5  C   UNL     1      34.313 -17.916 -25.120  0.00  0.00    +0.024 C 
ATOM      6  C   UNL     1      34.747 -19.046 -24.426  0.00  0.00    +0.003 C 
ENDROOT
BRANCH   1   9
ATOM      7  O   UNL     1      35.163 -16.541 -20.451  0.00  0.00    -0.126 OA
ATOM      8  O   UNL     1      35.997 -18.571 -20.522  0.00  0.00    -0.126 OA
ATOM      9  N   UNL     1      35.420 -17.601 -21.071  0.00  0.00    +0.058 N 
ENDBRANCH   1   9
BRANCH   2  12
ATOM     10  O   UNL     1      33.467 -14.512 -24.534  0.00  0.00    -0.126 OA
ATOM     11  O   UNL     1      33.763 -15.570 -26.435  0.00  0.00    -0.126 OA
ATOM     12  N   UNL     1      33.804 -15.534 -25.181  0.00  0.00    +0.058 N 
ENDBRANCH   2  12
TORSDOF 2
ENDMDL
MODEL 6
REMARK VINA RESULT:      -7.0      2.194      4.921
REMARK  Name = 7452
REMARK  2 active torsions:
REMARK  status: ('A' for Active; 'I' for Inactive)
REMARK    1  A    between atoms: C_1  and  N_9
REMARK    2  A    between atoms: C_2  and  N_12
REMARK                            x       y       z     vdW  Elec       q    Type
REMARK                         _______ _______ _______ _____ _____    ______ ____
ROOT
ATOM      1  C   UNL     1      36.433 -25.784 -14.444  0.00  0.00    +0.145 C 
ATOM      2  C   UNL     1      35.841 -24.663 -12.388  0.00  0.00    +0.145 C 
ATOM      3  C   UNL     1      36.603 -25.610 -13.071  0.00  0.00    +0.048 C 
ATOM      4  C   UNL     1      35.499 -25.011 -15.134  0.00  0.00    +0.024 C 
ATOM      5  C   UNL     1      34.908 -23.889 -13.078  0.00  0.00    +0.024 C 
ATOM      6  C   UNL     1      34.737 -24.063 -14.451  0.00  0.00    +0.003 C 
ENDROOT
BRANCH   1   9
ATOM      7  O   UNL     1      38.345 -27.048 -14.701  0.00  0.00    -0.126 OA
ATOM      8  O   UNL     1      36.736 -27.274 -16.178  0.00  0.00    -0.126 OA
ATOM      9  N   UNL     1      37.208 -26.748 -15.141  0.00  0.00    +0.058 N 
ENDBRANCH   1   9
BRANCH   2  12
ATOM     10  O   UNL     1      35.242 -25.077 -10.200  0.00  0.00    -0.126 OA
ATOM     11  O   UNL     1      36.940 -23.739 -10.582  0.00  0.00    -0.126 OA
ATOM     12  N   UNL     1      36.016 -24.484 -10.990  0.00  0.00    +0.058 N 
ENDBRANCH   2  12
TORSDOF 2
ENDMDL
MODEL 7
REMARK VINA RESULT:      -7.0      8.895      9.446
REMARK  Name = 7452
REMARK  2 active torsions:
REMARK  status: ('A' for Active; 'I' for Inactive)
REMARK    1  A    between atoms: C_1  and  N_9
REMARK    2  A    between atoms: C_2  and  N_12
REMARK                            x       y       z     vdW  Elec       q    Type
REMARK                         _______ _______ _______ _____ _____    ______ ____
ROOT
ATOM      1  C   UNL     1      34.296 -21.412 -19.610  0.00  0.00    +0.145 C 
ATOM      2  C   UNL     1      35.180 -19.575 -20.907  0.00  0.00    +0.145 C 
ATOM      3  C   UNL     1      35.386 -20.717 -20.133  0.00  0.00    +0.048 C 
ATOM      4  C   UNL     1      32.999 -20.964 -19.860  0.00  0.00    +0.024 C 
ATOM      5  C   UNL     1      33.883 -19.128 -21.158  0.00  0.00    +0.024 C 
ATOM      6  C   UNL     1      32.791 -19.822 -20.634  0.00  0.00    +0.003 C 
ENDROOT
BRANCH   1   9
ATOM      7  O   UNL     1      33.837 -23.607 -19.072  0.00  0.00    -0.126 OA
ATOM      8  O   UNL     1      35.353 -22.537 -17.898  0.00  0.00    -0.126 OA
ATOM      9  N   UNL     1      34.505 -22.575 -18.822  0.00  0.00    +0.058 N 
ENDBRANCH   1   9
BRANCH   2  12
ATOM     10  O   UNL     1      36.088 -17.991 -22.316  0.00  0.00    -0.126 OA
ATOM     11  O   UNL     1      37.442 -19.140 -21.025  0.00  0.00    -0.126 OA
ATOM     12  N   UNL     1      36.289 -18.869 -21.441  0.00  0.00    +0.058 N 
ENDBRANCH   2  12
TORSDOF 2
ENDMDL
MODEL 8
REMARK VINA RESULT:      -7.0      8.874      9.596
REMARK  Name = 7452
REMARK  2 active torsions:
REMARK  status: ('A' for Active; 'I' for Inactive)
REMARK    1  A    between atoms: C_1  and  N_9
REMARK    2  A    between atoms: C_2  and  N_12
REMARK                            x       y       z     vdW  Elec       q    Type
REMARK                         _______ _______ _______ _____ _____    ______ ____
ROOT
ATOM      1  C   UNL     1      35.170 -19.589 -20.884  0.00  0.00    +0.145 C 
ATOM      2  C   UNL     1      34.291 -21.426 -19.584  0.00  0.00    +0.145 C 
ATOM      3  C   UNL     1      35.380 -20.725 -20.102  0.00  0.00    +0.048 C 
ATOM      4  C   UNL     1      33.871 -19.154 -21.148  0.00  0.00    +0.024 C 
ATOM      5  C   UNL     1      32.992 -20.990 -19.847  0.00  0.00    +0.024 C 
ATOM      6  C   UNL     1      32.782 -19.854 -20.629  0.00  0.00    +0.003 C 
ENDROOT
BRANCH   1   9
ATOM      7  O   UNL     1      37.431 -19.149 -20.999  0.00  0.00    -0.126 OA
ATOM      8  O   UNL     1      36.074 -17.990 -22.278  0.00  0.00    -0.126 OA
ATOM      9  N   UNL     1      36.278 -18.875 -21.412  0.00  0.00    +0.058 N 
ENDBRANCH   1   9
BRANCH   2  12
ATOM     10  O   UNL     1      33.829 -23.613 -19.018  0.00  0.00    -0.126 OA
ATOM     11  O   UNL     1      35.362 -22.539 -17.871  0.00  0.00    -0.126 OA
ATOM     12  N   UNL     1      34.504 -22.581 -18.786  0.00  0.00    +0.058 N 
ENDBRANCH   2  12
TORSDOF 2
ENDMDL
MODEL 9
REMARK VINA RESULT:      -6.8     13.936     14.596
REMARK  Name = 7452
REMARK  2 active torsions:
REMARK  status: ('A' for Active; 'I' for Inactive)
REMARK    1  A    between atoms: C_1  and  N_9
REMARK    2  A    between atoms: C_2  and  N_12
REMARK                            x       y       z     vdW  Elec       q    Type
REMARK                         _______ _______ _______ _____ _____    ______ ____
ROOT
ATOM      1  C   UNL     1      34.029 -15.987 -24.677  0.00  0.00    +0.145 C 
ATOM      2  C   UNL     1      34.828 -16.596 -22.480  0.00  0.00    +0.145 C 
ATOM      3  C   UNL     1      34.214 -15.677 -23.330  0.00  0.00    +0.048 C 
ATOM      4  C   UNL     1      34.459 -17.218 -25.174  0.00  0.00    +0.024 C 
ATOM      5  C   UNL     1      35.257 -17.827 -22.977  0.00  0.00    +0.024 C 
ATOM      6  C   UNL     1      35.073 -18.138 -24.325  0.00  0.00    +0.003 C 
ENDROOT
BRANCH   1   9
ATOM      7  O   UNL     1      32.865 -14.032 -25.049  0.00  0.00    -0.126 OA
ATOM      8  O   UNL     1      33.407 -15.271 -26.779  0.00  0.00    -0.126 OA
ATOM      9  N   UNL     1      33.404 -15.052 -25.543  0.00  0.00    +0.058 N 
ENDBRANCH   1   9
BRANCH   2  12
ATOM     10  O   UNL     1      35.449 -17.169 -20.334  0.00  0.00    -0.126 OA
ATOM     11  O   UNL     1      34.743 -15.124 -20.707  0.00  0.00    -0.126 OA
ATOM     12  N   UNL     1      35.015 -16.282 -21.108  0.00  0.00    +0.058 N 
ENDBRANCH   2  12
TORSDOF 2
ENDMDL
