MODEL 1
REMARK VINA RESULT:      -6.5      0.000      0.000
REMARK  Name = 5289554
REMARK  9 active torsions:
REMARK  status: ('A' for Active; 'I' for Inactive)
REMARK    1  A    between atoms: C_1  and  C_2
REMARK    2  A    between atoms: C_1  and  C_12
REMARK    3  A    between atoms: C_2  and  CA_3
REMARK    4  A    between atoms: CA_3  and  N_4
REMARK    5  A    between atoms: CA_3  and  C_9
REMARK    6  A    between atoms: C_9  and  O_10
REMARK    7  A    between atoms: C_12  and  N_13
REMARK    8  A    between atoms: C_15  and  C_19
REMARK    9  A    between atoms: C_19  and  C_20
REMARK                            x       y       z     vdW  Elec       q    Type
REMARK                         _______ _______ _______ _____ _____    ______ ____
ROOT
ATOM      1  C   UNL     1      32.077 -23.519 -16.305  0.00  0.00    +0.020 C 
ENDROOT
BRANCH   1   2
ATOM      2  C   UNL     1      30.807 -22.680 -16.514  0.00  0.00    -0.009 C 
BRANCH   2   3
ATOM      3  CA  UNL     1      29.508 -23.337 -16.019  0.00  0.00    +0.036 C 
BRANCH   3   4
ATOM      4  N   UNL     1      29.610 -24.795 -15.991  0.00  0.00    +0.389 N 
ATOM      5  H1  UNL     1      29.035 -25.162 -15.231  0.00  0.00    -0.088 HD
ATOM      6  H2  UNL     1      30.581 -25.066 -15.843  0.00  0.00    -0.088 HD
ATOM      7  H3  UNL     1      29.281 -25.177 -16.878  0.00  0.00    -0.088 HD
ENDBRANCH   3   4
BRANCH   3   9
ATOM      8  OXT UNL     1      27.862 -21.817 -16.990  0.00  0.00    -0.253 OA
ATOM      9  C   UNL     1      28.311 -22.950 -16.870  0.00  0.00    +0.293 C 
BRANCH   9  10
ATOM     10  O   UNL     1      27.768 -24.023 -17.504  0.00  0.00    -0.482 OA
ATOM     11  H   UNL     1      28.145 -24.873 -17.390  0.00  0.00    +0.295 HD
ENDBRANCH   9  10
ENDBRANCH   3   9
ENDBRANCH   2   3
ENDBRANCH   1   2
BRANCH   1  12
ATOM     12  C   UNL     1      33.112 -23.273 -17.396  0.00  0.00    +0.088 C 
BRANCH  12  13
ATOM     13  N   UNL     1      32.620 -22.247 -18.316  0.00  0.00    -0.323 N 
ATOM     14  N   UNL     1      32.963 -20.858 -20.210  0.00  0.00    -0.390 N 
ATOM     15  C   UNL     1      33.340 -21.786 -19.339  0.00  0.00    +0.075 C 
ATOM     16  H   UNL     1      31.718 -21.881 -18.173  0.00  0.00    +0.148 HD
ATOM     17  H   UNL     1      32.073 -20.443 -20.133  0.00  0.00    +0.157 HD
ATOM     18  H   UNL     1      33.573 -20.583 -20.932  0.00  0.00    +0.157 HD
BRANCH  15  19
ATOM     19  C   UNL     1      34.696 -22.362 -19.525  0.00  0.00    +0.058 C 
BRANCH  19  20
ATOM     20  C   UNL     1      35.798 -21.338 -19.257  0.00  0.00    +0.008 C 
ATOM     21  C   UNL     1      36.620 -21.664 -18.018  0.00  0.00    +0.000 C 
ENDBRANCH  19  20
ENDBRANCH  15  19
ENDBRANCH  12  13
ENDBRANCH   1  12
TORSDOF 9
ENDMDL
MODEL 2
REMARK VINA RESULT:      -6.4      6.932      9.393
REMARK  Name = 5289554
REMARK  9 active torsions:
REMARK  status: ('A' for Active; 'I' for Inactive)
REMARK    1  A    between atoms: C_1  and  C_2
REMARK    2  A    between atoms: C_1  and  C_12
REMARK    3  A    between atoms: C_2  and  CA_3
REMARK    4  A    between atoms: CA_3  and  N_4
REMARK    5  A    between atoms: CA_3  and  C_9
REMARK    6  A    between atoms: C_9  and  O_10
REMARK    7  A    between atoms: C_12  and  N_13
REMARK    8  A    between atoms: C_15  and  C_19
REMARK    9  A    between atoms: C_19  and  C_20
REMARK                            x       y       z     vdW  Elec       q    Type
REMARK                         _______ _______ _______ _____ _____    ______ ____
ROOT
ATOM      1  C   UNL     1      34.175 -18.200 -25.101  0.00  0.00    +0.020 C 
ENDROOT
BRANCH   1   2
ATOM      2  C   UNL     1      34.746 -16.773 -25.121  0.00  0.00    -0.009 C 
BRANCH   2   3
ATOM      3  CA  UNL     1      33.791 -15.685 -24.606  0.00  0.00    +0.036 C 
BRANCH   3   4
ATOM      4  N   UNL     1      33.343 -14.798 -25.679  0.00  0.00    +0.389 N 
ATOM      5  H1  UNL     1      33.486 -15.256 -26.580  0.00  0.00    -0.088 HD
ATOM      6  H2  UNL     1      33.878 -13.931 -25.650  0.00  0.00    -0.088 HD
ATOM      7  H3  UNL     1      32.352 -14.591 -25.558  0.00  0.00    -0.088 HD
ENDBRANCH   3   4
BRANCH   3   9
ATOM      8  OXT UNL     1      35.046 -15.278 -22.552  0.00  0.00    -0.253 OA
ATOM      9  C   UNL     1      34.420 -14.842 -23.510  0.00  0.00    +0.293 C 
BRANCH   9  10
ATOM     10  O   UNL     1      34.210 -13.514 -23.705  0.00  0.00    -0.482 OA
ATOM     11  H   UNL     1      34.030 -13.190 -24.566  0.00  0.00    +0.295 HD
ENDBRANCH   9  10
ENDBRANCH   3   9
ENDBRANCH   2   3
ENDBRANCH   1   2
BRANCH   1  12
ATOM     12  C   UNL     1      34.945 -19.113 -24.155  0.00  0.00    +0.088 C 
BRANCH  12  13
ATOM     13  N   UNL     1      35.488 -18.324 -23.048  0.00  0.00    -0.323 N 
ATOM     14  N   UNL     1      35.546 -17.814 -20.730  0.00  0.00    -0.390 N 
ATOM     15  C   UNL     1      35.102 -18.491 -21.783  0.00  0.00    +0.075 C 
ATOM     16  H   UNL     1      36.169 -17.642 -23.246  0.00  0.00    +0.148 HD
ATOM     17  H   UNL     1      36.227 -17.113 -20.848  0.00  0.00    +0.157 HD
ATOM     18  H   UNL     1      35.192 -18.011 -19.833  0.00  0.00    +0.157 HD
BRANCH  15  19
ATOM     19  C   UNL     1      34.074 -19.531 -21.520  0.00  0.00    +0.058 C 
BRANCH  19  20
ATOM     20  C   UNL     1      34.440 -20.413 -20.327  0.00  0.00    +0.008 C 
ATOM     21  C   UNL     1      33.232 -21.101 -19.707  0.00  0.00    +0.000 C 
ENDBRANCH  19  20
ENDBRANCH  15  19
ENDBRANCH  12  13
ENDBRANCH   1  12
TORSDOF 9
ENDMDL
MODEL 3
REMARK VINA RESULT:      -6.4      6.270      8.685
REMARK  Name = 5289554
REMARK  9 active torsions:
REMARK  status: ('A' for Active; 'I' for Inactive)
REMARK    1  A    between atoms: C_1  and  C_2
REMARK    2  A    between atoms: C_1  and  C_12
REMARK    3  A    between atoms: C_2  and  CA_3
REMARK    4  A    between atoms: CA_3  and  N_4
REMARK    5  A    between atoms: CA_3  and  C_9
REMARK    6  A    between atoms: C_9  and  O_10
REMARK    7  A    between atoms: C_12  and  N_13
REMARK    8  A    between atoms: C_15  and  C_19
REMARK    9  A    between atoms: C_19  and  C_20
REMARK                            x       y       z     vdW  Elec       q    Type
REMARK                         _______ _______ _______ _____ _____    ______ ____
ROOT
ATOM      1  C   UNL     1      34.414 -16.273 -24.398  0.00  0.00    +0.020 C 
ENDROOT
BRANCH   1   2
ATOM      2  C   UNL     1      34.625 -15.327 -23.205  0.00  0.00    -0.009 C 
BRANCH   2   3
ATOM      3  CA  UNL     1      33.401 -15.153 -22.291  0.00  0.00    +0.036 C 
BRANCH   3   4
ATOM      4  N   UNL     1      32.767 -13.847 -22.470  0.00  0.00    +0.389 N 
ATOM      5  H1  UNL     1      33.256 -13.329 -23.201  0.00  0.00    -0.088 HD
ATOM      6  H2  UNL     1      32.812 -13.324 -21.596  0.00  0.00    -0.088 HD
ATOM      7  H3  UNL     1      31.792 -13.976 -22.739  0.00  0.00    -0.088 HD
ENDBRANCH   3   4
BRANCH   3   9
ATOM      8  OXT UNL     1      34.847 -15.664 -20.392  0.00  0.00    -0.253 OA
ATOM      9  C   UNL     1      33.753 -15.326 -20.824  0.00  0.00    +0.293 C 
BRANCH   9  10
ATOM     10  O   UNL     1      32.696 -15.060 -20.012  0.00  0.00    -0.482 OA
ATOM     11  H   UNL     1      31.886 -14.764 -20.379  0.00  0.00    +0.295 HD
ENDBRANCH   9  10
ENDBRANCH   3   9
ENDBRANCH   2   3
ENDBRANCH   1   2
BRANCH   1  12
ATOM     12  C   UNL     1      34.957 -17.670 -24.125  0.00  0.00    +0.088 C 
BRANCH  12  13
ATOM     13  N   UNL     1      35.736 -17.659 -22.887  0.00  0.00    -0.323 N 
ATOM     14  N   UNL     1      36.160 -18.543 -20.724  0.00  0.00    -0.390 N 
ATOM     15  C   UNL     1      35.500 -18.496 -21.876  0.00  0.00    +0.075 C 
ATOM     16  H   UNL     1      36.467 -17.007 -22.796  0.00  0.00    +0.148 HD
ATOM     17  H   UNL     1      36.904 -17.921 -20.558  0.00  0.00    +0.157 HD
ATOM     18  H   UNL     1      35.904 -19.200 -20.037  0.00  0.00    +0.157 HD
BRANCH  15  19
ATOM     19  C   UNL     1      34.391 -19.468 -22.047  0.00  0.00    +0.058 C 
BRANCH  19  20
ATOM     20  C   UNL     1      33.379 -19.396 -20.904  0.00  0.00    +0.008 C 
ATOM     21  C   UNL     1      33.268 -20.701 -20.128  0.00  0.00    +0.000 C 
ENDBRANCH  19  20
ENDBRANCH  15  19
ENDBRANCH  12  13
ENDBRANCH   1  12
TORSDOF 9
ENDMDL
MODEL 4
REMARK VINA RESULT:      -6.3      6.927      9.214
REMARK  Name = 5289554
REMARK  9 active torsions:
REMARK  status: ('A' for Active; 'I' for Inactive)
REMARK    1  A    between atoms: C_1  and  C_2
REMARK    2  A    between atoms: C_1  and  C_12
REMARK    3  A    between atoms: C_2  and  CA_3
REMARK    4  A    between atoms: CA_3  and  N_4
REMARK    5  A    between atoms: CA_3  and  C_9
REMARK    6  A    between atoms: C_9  and  O_10
REMARK    7  A    between atoms: C_12  and  N_13
REMARK    8  A    between atoms: C_15  and  C_19
REMARK    9  A    between atoms: C_19  and  C_20
REMARK                            x       y       z     vdW  Elec       q    Type
REMARK                         _______ _______ _______ _____ _____    ______ ____
ROOT
ATOM      1  C   UNL     1      34.149 -15.159 -21.571  0.00  0.00    +0.020 C 
ENDROOT
BRANCH   1   2
ATOM      2  C   UNL     1      34.586 -14.870 -23.016  0.00  0.00    -0.009 C 
BRANCH   2   3
ATOM      3  CA  UNL     1      34.163 -15.930 -24.045  0.00  0.00    +0.036 C 
BRANCH   3   4
ATOM      4  N   UNL     1      35.292 -16.754 -24.476  0.00  0.00    +0.389 N 
ATOM      5  H1  UNL     1      35.703 -16.354 -25.320  0.00  0.00    -0.088 HD
ATOM      6  H2  UNL     1      34.967 -17.701 -24.672  0.00  0.00    -0.088 HD
ATOM      7  H3  UNL     1      35.994 -16.782 -23.737  0.00  0.00    -0.088 HD
ENDBRANCH   3   4
BRANCH   3   9
ATOM      8  OXT UNL     1      33.570 -15.768 -26.408  0.00  0.00    -0.253 OA
ATOM      9  C   UNL     1      33.518 -15.311 -25.273  0.00  0.00    +0.293 C 
BRANCH   9  10
ATOM     10  O   UNL     1      32.858 -14.161 -24.976  0.00  0.00    -0.482 OA
ATOM     11  H   UNL     1      31.921 -14.152 -24.952  0.00  0.00    +0.295 HD
ENDBRANCH   9  10
ENDBRANCH   3   9
ENDBRANCH   2   3
ENDBRANCH   1   2
BRANCH   1  12
ATOM     12  C   UNL     1      33.870 -16.639 -21.341  0.00  0.00    +0.088 C 
BRANCH  12  13
ATOM     13  N   UNL     1      35.086 -17.298 -20.864  0.00  0.00    -0.323 N 
ATOM     14  N   UNL     1      36.360 -19.278 -20.562  0.00  0.00    -0.390 N 
ATOM     15  C   UNL     1      35.288 -18.611 -20.972  0.00  0.00    +0.075 C 
ATOM     16  H   UNL     1      35.786 -16.748 -20.444  0.00  0.00    +0.148 HD
ATOM     17  H   UNL     1      37.103 -18.797 -20.131  0.00  0.00    +0.157 HD
ATOM     18  H   UNL     1      36.411 -20.253 -20.686  0.00  0.00    +0.157 HD
BRANCH  15  19
ATOM     19  C   UNL     1      34.212 -19.411 -21.612  0.00  0.00    +0.058 C 
BRANCH  19  20
ATOM     20  C   UNL     1      33.124 -19.813 -20.616  0.00  0.00    +0.008 C 
ATOM     21  C   UNL     1      33.458 -21.091 -19.860  0.00  0.00    +0.000 C 
ENDBRANCH  19  20
ENDBRANCH  15  19
ENDBRANCH  12  13
ENDBRANCH   1  12
TORSDOF 9
ENDMDL
MODEL 5
REMARK VINA RESULT:      -6.3      8.003      9.768
REMARK  Name = 5289554
REMARK  9 active torsions:
REMARK  status: ('A' for Active; 'I' for Inactive)
REMARK    1  A    between atoms: C_1  and  C_2
REMARK    2  A    between atoms: C_1  and  C_12
REMARK    3  A    between atoms: C_2  and  CA_3
REMARK    4  A    between atoms: CA_3  and  N_4
REMARK    5  A    between atoms: CA_3  and  C_9
REMARK    6  A    between atoms: C_9  and  O_10
REMARK    7  A    between atoms: C_12  and  N_13
REMARK    8  A    between atoms: C_15  and  C_19
REMARK    9  A    between atoms: C_19  and  C_20
REMARK                            x       y       z     vdW  Elec       q    Type
REMARK                         _______ _______ _______ _____ _____    ______ ____
ROOT
ATOM      1  C   UNL     1      34.338 -15.102 -21.964  0.00  0.00    +0.020 C 
ENDROOT
BRANCH   1   2
ATOM      2  C   UNL     1      34.503 -15.285 -23.481  0.00  0.00    -0.009 C 
BRANCH   2   3
ATOM      3  CA  UNL     1      33.715 -14.288 -24.345  0.00  0.00    +0.036 C 
BRANCH   3   4
ATOM      4  N   UNL     1      32.522 -13.794 -23.658  0.00  0.00    +0.389 N 
ATOM      5  H1  UNL     1      32.752 -12.942 -23.145  0.00  0.00    -0.088 HD
ATOM      6  H2  UNL     1      32.187 -14.503 -23.006  0.00  0.00    -0.088 HD
ATOM      7  H3  UNL     1      31.794 -13.591 -24.343  0.00  0.00    -0.088 HD
ENDBRANCH   3   4
BRANCH   3   9
ATOM      8  OXT UNL     1      33.878 -15.793 -26.260  0.00  0.00    -0.253 OA
ATOM      9  C   UNL     1      33.295 -14.889 -25.675  0.00  0.00    +0.293 C 
BRANCH   9  10
ATOM     10  O   UNL     1      32.173 -14.301 -26.168  0.00  0.00    -0.482 OA
ATOM     11  H   UNL     1      31.346 -14.737 -26.095  0.00  0.00    +0.295 HD
ENDBRANCH   9  10
ENDBRANCH   3   9
ENDBRANCH   2   3
ENDBRANCH   1   2
BRANCH   1  12
ATOM     12  C   UNL     1      33.873 -16.381 -21.279  0.00  0.00    +0.088 C 
BRANCH  12  13
ATOM     13  N   UNL     1      35.029 -17.089 -20.729  0.00  0.00    -0.323 N 
ATOM     14  N   UNL     1      36.435 -19.002 -20.696  0.00  0.00    -0.390 N 
ATOM     15  C   UNL     1      35.404 -18.298 -21.148  0.00  0.00    +0.075 C 
ATOM     16  H   UNL     1      35.553 -16.654 -20.018  0.00  0.00    +0.148 HD
ATOM     17  H   UNL     1      37.008 -18.634 -19.984  0.00  0.00    +0.157 HD
ATOM     18  H   UNL     1      36.627 -19.891 -21.071  0.00  0.00    +0.157 HD
BRANCH  15  19
ATOM     19  C   UNL     1      34.591 -18.924 -22.222  0.00  0.00    +0.058 C 
BRANCH  19  20
ATOM     20  C   UNL     1      35.316 -18.921 -23.568  0.00  0.00    +0.008 C 
ATOM     21  C   UNL     1      34.363 -18.852 -24.753  0.00  0.00    +0.000 C 
ENDBRANCH  19  20
ENDBRANCH  15  19
ENDBRANCH  12  13
ENDBRANCH   1  12
TORSDOF 9
ENDMDL
MODEL 6
REMARK VINA RESULT:      -6.2      6.975      8.707
REMARK  Name = 5289554
REMARK  9 active torsions:
REMARK  status: ('A' for Active; 'I' for Inactive)
REMARK    1  A    between atoms: C_1  and  C_2
REMARK    2  A    between atoms: C_1  and  C_12
REMARK    3  A    between atoms: C_2  and  CA_3
REMARK    4  A    between atoms: CA_3  and  N_4
REMARK    5  A    between atoms: CA_3  and  C_9
REMARK    6  A    between atoms: C_9  and  O_10
REMARK    7  A    between atoms: C_12  and  N_13
REMARK    8  A    between atoms: C_15  and  C_19
REMARK    9  A    between atoms: C_19  and  C_20
REMARK                            x       y       z     vdW  Elec       q    Type
REMARK                         _______ _______ _______ _____ _____    ______ ____
ROOT
ATOM      1  C   UNL     1      37.281 -26.754 -14.779  0.00  0.00    +0.020 C 
ENDROOT
BRANCH   1   2
ATOM      2  C   UNL     1      38.093 -26.013 -13.704  0.00  0.00    -0.009 C 
BRANCH   2   3
ATOM      3  CA  UNL     1      39.251 -25.158 -14.242  0.00  0.00    +0.036 C 
BRANCH   3   4
ATOM      4  N   UNL     1      38.819 -24.268 -15.319  0.00  0.00    +0.389 N 
ATOM      5  H1  UNL     1      37.844 -24.005 -15.173  0.00  0.00    -0.088 HD
ATOM      6  H2  UNL     1      38.910 -24.748 -16.214  0.00  0.00    -0.088 HD
ATOM      7  H3  UNL     1      39.399 -23.430 -15.322  0.00  0.00    -0.088 HD
ENDBRANCH   3   4
BRANCH   3   9
ATOM      8  OXT UNL     1      41.171 -26.652 -14.043  0.00  0.00    -0.253 OA
ATOM      9  C   UNL     1      40.404 -26.007 -14.747  0.00  0.00    +0.293 C 
BRANCH   9  10
ATOM     10  O   UNL     1      40.505 -25.977 -16.102  0.00  0.00    -0.482 OA
ATOM     11  H   UNL     1      40.325 -26.748 -16.602  0.00  0.00    +0.295 HD
ENDBRANCH   9  10
ENDBRANCH   3   9
ENDBRANCH   2   3
ENDBRANCH   1   2
BRANCH   1  12
ATOM     12  C   UNL     1      35.979 -26.035 -15.111  0.00  0.00    +0.088 C 
BRANCH  12  13
ATOM     13  N   UNL     1      35.525 -25.281 -13.942  0.00  0.00    -0.323 N 
ATOM     14  N   UNL     1      34.249 -23.503 -13.019  0.00  0.00    -0.390 N 
ATOM     15  C   UNL     1      34.701 -24.236 -14.031  0.00  0.00    +0.075 C 
ATOM     16  H   UNL     1      35.841 -25.556 -13.052  0.00  0.00    +0.148 HD
ATOM     17  H   UNL     1      34.522 -23.717 -12.098  0.00  0.00    +0.157 HD
ATOM     18  H   UNL     1      33.644 -22.747 -13.191  0.00  0.00    +0.157 HD
BRANCH  15  19
ATOM     19  C   UNL     1      34.242 -23.849 -15.389  0.00  0.00    +0.058 C 
BRANCH  19  20
ATOM     20  C   UNL     1      32.745 -23.547 -15.427  0.00  0.00    +0.008 C 
ATOM     21  C   UNL     1      32.269 -23.085 -16.797  0.00  0.00    +0.000 C 
ENDBRANCH  19  20
ENDBRANCH  15  19
ENDBRANCH  12  13
ENDBRANCH   1  12
TORSDOF 9
ENDMDL
MODEL 7
REMARK VINA RESULT:      -6.2      5.762      7.613
REMARK  Name = 5289554
REMARK  9 active torsions:
REMARK  status: ('A' for Active; 'I' for Inactive)
REMARK    1  A    between atoms: C_1  and  C_2
REMARK    2  A    between atoms: C_1  and  C_12
REMARK    3  A    between atoms: C_2  and  CA_3
REMARK    4  A    between atoms: CA_3  and  N_4
REMARK    5  A    between atoms: CA_3  and  C_9
REMARK    6  A    between atoms: C_9  and  O_10
REMARK    7  A    between atoms: C_12  and  N_13
REMARK    8  A    between atoms: C_15  and  C_19
REMARK    9  A    between atoms: C_19  and  C_20
REMARK                            x       y       z     vdW  Elec       q    Type
REMARK                         _______ _______ _______ _____ _____    ______ ____
ROOT
ATOM      1  C   UNL     1      34.808 -24.673 -14.931  0.00  0.00    +0.020 C 
ENDROOT
BRANCH   1   2
ATOM      2  C   UNL     1      36.324 -24.554 -14.703  0.00  0.00    -0.009 C 
BRANCH   2   3
ATOM      3  CA  UNL     1      37.072 -25.893 -14.610  0.00  0.00    +0.036 C 
BRANCH   3   4
ATOM      4  N   UNL     1      36.217 -27.023 -14.971  0.00  0.00    +0.389 N 
ATOM      5  H1  UNL     1      36.699 -27.897 -14.755  0.00  0.00    -0.088 HD
ATOM      6  H2  UNL     1      36.008 -26.988 -15.968  0.00  0.00    -0.088 HD
ATOM      7  H3  UNL     1      35.348 -26.976 -14.439  0.00  0.00    -0.088 HD
ENDBRANCH   3   4
BRANCH   3   9
ATOM      8  OXT UNL     1      36.977 -26.330 -12.210  0.00  0.00    -0.253 OA
ATOM      9  C   UNL     1      37.639 -26.137 -13.222  0.00  0.00    +0.293 C 
BRANCH   9  10
ATOM     10  O   UNL     1      38.997 -26.115 -13.215  0.00  0.00    -0.482 OA
ATOM     11  H   UNL     1      39.475 -26.840 -12.862  0.00  0.00    +0.295 HD
ENDBRANCH   9  10
ENDBRANCH   3   9
ENDBRANCH   2   3
ENDBRANCH   1   2
BRANCH   1  12
ATOM     12  C   UNL     1      34.010 -24.271 -13.697  0.00  0.00    +0.088 C 
BRANCH  12  13
ATOM     13  N   UNL     1      32.793 -25.079 -13.617  0.00  0.00    -0.323 N 
ATOM     14  N   UNL     1      30.428 -25.241 -13.742  0.00  0.00    -0.390 N 
ATOM     15  C   UNL     1      31.574 -24.573 -13.802  0.00  0.00    +0.075 C 
ATOM     16  H   UNL     1      32.878 -26.039 -13.418  0.00  0.00    +0.148 HD
ATOM     17  H   UNL     1      30.431 -26.206 -13.547  0.00  0.00    +0.157 HD
ATOM     18  H   UNL     1      29.576 -24.771 -13.892  0.00  0.00    +0.157 HD
BRANCH  15  19
ATOM     19  C   UNL     1      31.483 -23.121 -14.102  0.00  0.00    +0.058 C 
BRANCH  19  20
ATOM     20  C   UNL     1      30.879 -22.855 -15.481  0.00  0.00    +0.008 C 
ATOM     21  C   UNL     1      31.853 -23.131 -16.617  0.00  0.00    +0.000 C 
ENDBRANCH  19  20
ENDBRANCH  15  19
ENDBRANCH  12  13
ENDBRANCH   1  12
TORSDOF 9
ENDMDL
MODEL 8
REMARK VINA RESULT:      -6.2      5.513      7.321
REMARK  Name = 5289554
REMARK  9 active torsions:
REMARK  status: ('A' for Active; 'I' for Inactive)
REMARK    1  A    between atoms: C_1  and  C_2
REMARK    2  A    between atoms: C_1  and  C_12
REMARK    3  A    between atoms: C_2  and  CA_3
REMARK    4  A    between atoms: CA_3  and  N_4
REMARK    5  A    between atoms: CA_3  and  C_9
REMARK    6  A    between atoms: C_9  and  O_10
REMARK    7  A    between atoms: C_12  and  N_13
REMARK    8  A    between atoms: C_15  and  C_19
REMARK    9  A    between atoms: C_19  and  C_20
REMARK                            x       y       z     vdW  Elec       q    Type
REMARK                         _______ _______ _______ _____ _____    ______ ____
ROOT
ATOM      1  C   UNL     1      34.890 -19.322 -22.208  0.00  0.00    +0.020 C 
ENDROOT
BRANCH   1   2
ATOM      2  C   UNL     1      34.249 -19.406 -20.813  0.00  0.00    -0.009 C 
BRANCH   2   3
ATOM      3  CA  UNL     1      33.902 -20.829 -20.344  0.00  0.00    +0.036 C 
BRANCH   3   4
ATOM      4  N   UNL     1      32.694 -20.853 -19.521  0.00  0.00    +0.389 N 
ATOM      5  H1  UNL     1      32.544 -19.931 -19.110  0.00  0.00    -0.088 HD
ATOM      6  H2  UNL     1      32.801 -21.543 -18.779  0.00  0.00    -0.088 HD
ATOM      7  H3  UNL     1      31.892 -21.098 -20.102  0.00  0.00    -0.088 HD
ENDBRANCH   3   4
BRANCH   3   9
ATOM      8  OXT UNL     1      35.044 -22.611 -19.128  0.00  0.00    -0.253 OA
ATOM      9  C   UNL     1      35.037 -21.465 -19.560  0.00  0.00    +0.293 C 
BRANCH   9  10
ATOM     10  O   UNL     1      36.075 -20.607 -19.378  0.00  0.00    -0.482 OA
ATOM     11  H   UNL     1      35.917 -19.685 -19.333  0.00  0.00    +0.295 HD
ENDBRANCH   9  10
ENDBRANCH   3   9
ENDBRANCH   2   3
ENDBRANCH   1   2
BRANCH   1  12
ATOM     12  C   UNL     1      35.939 -18.220 -22.291  0.00  0.00    +0.088 C 
BRANCH  12  13
ATOM     13  N   UNL     1      35.509 -17.207 -23.255  0.00  0.00    -0.323 N 
ATOM     14  N   UNL     1      34.509 -15.102 -23.708  0.00  0.00    -0.390 N 
ATOM     15  C   UNL     1      34.927 -16.063 -22.893  0.00  0.00    +0.075 C 
ATOM     16  H   UNL     1      35.656 -17.376 -24.214  0.00  0.00    +0.148 HD
ATOM     17  H   UNL     1      34.621 -15.199 -24.681  0.00  0.00    +0.157 HD
ATOM     18  H   UNL     1      34.086 -14.293 -23.339  0.00  0.00    +0.157 HD
BRANCH  15  19
ATOM     19  C   UNL     1      34.721 -15.840 -21.439  0.00  0.00    +0.058 C 
BRANCH  19  20
ATOM     20  C   UNL     1      33.240 -15.808 -21.065  0.00  0.00    +0.008 C 
ATOM     21  C   UNL     1      32.778 -14.436 -20.594  0.00  0.00    +0.000 C 
ENDBRANCH  19  20
ENDBRANCH  15  19
ENDBRANCH  12  13
ENDBRANCH   1  12
TORSDOF 9
ENDMDL
MODEL 9
REMARK VINA RESULT:      -6.2      2.504      2.879
REMARK  Name = 5289554
REMARK  9 active torsions:
REMARK  status: ('A' for Active; 'I' for Inactive)
REMARK    1  A    between atoms: C_1  and  C_2
REMARK    2  A    between atoms: C_1  and  C_12
REMARK    3  A    between atoms: C_2  and  CA_3
REMARK    4  A    between atoms: CA_3  and  N_4
REMARK    5  A    between atoms: CA_3  and  C_9
REMARK    6  A    between atoms: C_9  and  O_10
REMARK    7  A    between atoms: C_12  and  N_13
REMARK    8  A    between atoms: C_15  and  C_19
REMARK    9  A    between atoms: C_19  and  C_20
REMARK                            x       y       z     vdW  Elec       q    Type
REMARK                         _______ _______ _______ _____ _____    ______ ____
ROOT
ATOM      1  C   UNL     1      33.259 -23.220 -16.476  0.00  0.00    +0.020 C 
ENDROOT
BRANCH   1   2
ATOM      2  C   UNL     1      31.742 -23.329 -16.253  0.00  0.00    -0.009 C 
BRANCH   2   3
ATOM      3  CA  UNL     1      31.313 -23.482 -14.785  0.00  0.00    +0.036 C 
BRANCH   3   4
ATOM      4  N   UNL     1      32.283 -22.886 -13.867  0.00  0.00    +0.389 N 
ATOM      5  H1  UNL     1      33.070 -22.513 -14.399  0.00  0.00    -0.088 HD
ATOM      6  H2  UNL     1      32.618 -23.596 -13.217  0.00  0.00    -0.088 HD
ATOM      7  H3  UNL     1      31.838 -22.130 -13.346  0.00  0.00    -0.088 HD
ENDBRANCH   3   4
BRANCH   3   9
ATOM      8  OXT UNL     1      30.089 -25.586 -14.595  0.00  0.00    -0.253 OA
ATOM      9  C   UNL     1      31.107 -24.936 -14.397  0.00  0.00    +0.293 C 
BRANCH   9  10
ATOM     10  O   UNL     1      32.203 -25.460 -13.786  0.00  0.00    -0.482 OA
ATOM     11  H   UNL     1      32.457 -26.345 -13.959  0.00  0.00    +0.295 HD
ENDBRANCH   9  10
ENDBRANCH   3   9
ENDBRANCH   2   3
ENDBRANCH   1   2
BRANCH   1  12
ATOM     12  C   UNL     1      33.623 -23.239 -17.956  0.00  0.00    +0.088 C 
BRANCH  12  13
ATOM     13  N   UNL     1      32.813 -22.254 -18.672  0.00  0.00    -0.323 N 
ATOM     14  N   UNL     1      32.672 -20.403 -20.153  0.00  0.00    -0.390 N 
ATOM     15  C   UNL     1      33.341 -21.329 -19.474  0.00  0.00    +0.075 C 
ATOM     16  H   UNL     1      31.836 -22.274 -18.557  0.00  0.00    +0.148 HD
ATOM     17  H   UNL     1      31.691 -20.359 -20.088  0.00  0.00    +0.157 HD
ATOM     18  H   UNL     1      33.157 -19.760 -20.718  0.00  0.00    +0.157 HD
BRANCH  15  19
ATOM     19  C   UNL     1      34.818 -21.327 -19.626  0.00  0.00    +0.058 C 
BRANCH  19  20
ATOM     20  C   UNL     1      35.290 -20.300 -20.655  0.00  0.00    +0.008 C 
ATOM     21  C   UNL     1      36.705 -19.806 -20.391  0.00  0.00    +0.000 C 
ENDBRANCH  19  20
ENDBRANCH  15  19
ENDBRANCH  12  13
ENDBRANCH   1  12
TORSDOF 9
ENDMDL
