MODEL 1
REMARK VINA RESULT:     -12.7      0.000      0.000
REMARK  Name = 115237
REMARK  5 active torsions:
REMARK  status: ('A' for Active; 'I' for Inactive)
REMARK    1  A    between atoms: N_1  and  C_18
REMARK    2  A    between atoms: C_2  and  C_11
REMARK    3  A    between atoms: C_18  and  C_19
REMARK    4  A    between atoms: C_19  and  C_23
REMARK    5  A    between atoms: C_25  and  O_32
REMARK                            x       y       z     vdW  Elec       q    Type
REMARK                         _______ _______ _______ _____ _____    ______ ____
ROOT
ATOM      1  N   UNL     1      35.710 -20.266 -19.562  0.00  0.00    +0.387 N 
ATOM      2  C   UNL     1      35.231 -19.113 -22.216  0.00  0.00    +0.039 C 
ATOM      3  C   UNL     1      34.086 -19.525 -21.277  0.00  0.00    -0.017 C 
ATOM      4  C   UNL     1      36.493 -18.799 -21.395  0.00  0.00    -0.017 C 
ATOM      5  C   UNL     1      34.520 -20.650 -20.334  0.00  0.00    -0.077 C 
ATOM      6  C   UNL     1      36.839 -19.950 -20.447  0.00  0.00    -0.077 C 
ATOM      7  H   UNL     1      35.482 -19.424 -19.031  0.00  0.00    -0.080 HD
ENDROOT
BRANCH   2  11
ATOM      8  F   UNL     1      33.646 -12.643 -23.141  0.00  0.00    -0.204 F 
ATOM      9  O   UNL     1      34.367 -17.015 -25.014  0.00  0.00    -0.354 OA
ATOM     10  N   UNL     1      34.721 -18.234 -24.451  0.00  0.00    -0.081 NA
ATOM     11  C   UNL     1      34.846 -17.987 -23.148  0.00  0.00    +0.100 A 
ATOM     12  C   UNL     1      34.591 -16.648 -22.816  0.00  0.00    +0.054 A 
ATOM     13  C   UNL     1      34.290 -16.070 -24.037  0.00  0.00    +0.179 A 
ATOM     14  C   UNL     1      34.573 -15.852 -21.661  0.00  0.00    +0.007 C 
ATOM     15  C   UNL     1      33.965 -14.727 -24.210  0.00  0.00    +0.070 C 
ATOM     16  C   UNL     1      34.248 -14.495 -21.799  0.00  0.00    +0.030 C 
ATOM     17  C   UNL     1      33.951 -13.946 -23.051  0.00  0.00    +0.143 C 
ENDBRANCH   2  11
BRANCH   1  18
ATOM     18  C   UNL     1      36.075 -21.328 -18.625  0.00  0.00    -0.076 C 
BRANCH  18  19
ATOM     19  C   UNL     1      35.109 -22.496 -18.763  0.00  0.00    -0.007 C 
BRANCH  19  23
ATOM     20  O   UNL     1      32.341 -22.534 -18.468  0.00  0.00    -0.274 OA
ATOM     21  N   UNL     1      32.372 -23.219 -16.241  0.00  0.00    -0.235 N 
ATOM     22  N   UNL     1      34.447 -23.400 -15.116  0.00  0.00    -0.397 NA
ATOM     23  C   UNL     1      34.457 -22.809 -17.447  0.00  0.00    +0.123 C 
ATOM     24  C   UNL     1      30.908 -23.224 -16.193  0.00  0.00    +0.100 C 
ATOM     25  C   UNL     1      32.465 -23.871 -13.823  0.00  0.00    +0.177 C 
ATOM     26  C   UNL     1      30.321 -24.023 -15.045  0.00  0.00    +0.025 C 
ATOM     27  C   UNL     1      30.979 -23.576 -13.758  0.00  0.00    +0.040 C 
ATOM     28  C   UNL     1      33.151 -23.454 -15.119  0.00  0.00    +0.192 C 
ATOM     29  C   UNL     1      32.962 -22.842 -17.451  0.00  0.00    +0.237 C 
ATOM     30  C   UNL     1      35.088 -23.076 -16.286  0.00  0.00    +0.097 C 
ATOM     31  C   UNL     1      36.586 -23.031 -16.139  0.00  0.00    +0.062 C 
BRANCH  25  32
ATOM     32  O   UNL     1      33.110 -23.210 -12.744  0.00  0.00    -0.376 OA
ATOM     33  H   UNL     1      33.497 -23.869 -12.146  0.00  0.00    +0.211 HD
ENDBRANCH  25  32
ENDBRANCH  19  23
ENDBRANCH  18  19
ENDBRANCH   1  18
TORSDOF 5
ENDMDL
MODEL 2
REMARK VINA RESULT:     -12.7      3.322     10.287
REMARK  Name = 115237
REMARK  5 active torsions:
REMARK  status: ('A' for Active; 'I' for Inactive)
REMARK    1  A    between atoms: N_1  and  C_18
REMARK    2  A    between atoms: C_2  and  C_11
REMARK    3  A    between atoms: C_18  and  C_19
REMARK    4  A    between atoms: C_19  and  C_23
REMARK    5  A    between atoms: C_25  and  O_32
REMARK                            x       y       z     vdW  Elec       q    Type
REMARK                         _______ _______ _______ _____ _____    ______ ____
ROOT
ATOM      1  N   UNL     1      34.402 -19.988 -20.697  0.00  0.00    +0.387 N 
ATOM      2  C   UNL     1      34.214 -22.245 -18.832  0.00  0.00    +0.039 C 
ATOM      3  C   UNL     1      35.542 -21.530 -19.131  0.00  0.00    -0.017 C 
ATOM      4  C   UNL     1      33.037 -21.291 -19.096  0.00  0.00    -0.017 C 
ATOM      5  C   UNL     1      35.535 -20.909 -20.530  0.00  0.00    -0.077 C 
ATOM      6  C   UNL     1      33.121 -20.679 -20.496  0.00  0.00    -0.077 C 
ATOM      7  H   UNL     1      34.482 -19.260 -19.985  0.00  0.00    -0.080 HD
ENDROOT
BRANCH   2  11
ATOM      8  F   UNL     1      30.658 -24.415 -13.553  0.00  0.00    -0.204 F 
ATOM      9  O   UNL     1      34.943 -23.691 -15.614  0.00  0.00    -0.354 OA
ATOM     10  N   UNL     1      35.320 -23.167 -16.844  0.00  0.00    -0.081 NA
ATOM     11  C   UNL     1      34.176 -22.851 -17.448  0.00  0.00    +0.100 A 
ATOM     12  C   UNL     1      33.046 -23.143 -16.670  0.00  0.00    +0.054 A 
ATOM     13  C   UNL     1      33.586 -23.676 -15.513  0.00  0.00    +0.179 A 
ATOM     14  C   UNL     1      31.652 -23.033 -16.785  0.00  0.00    +0.007 C 
ATOM     15  C   UNL     1      32.833 -24.122 -14.430  0.00  0.00    +0.070 C 
ATOM     16  C   UNL     1      30.863 -23.471 -15.712  0.00  0.00    +0.030 C 
ATOM     17  C   UNL     1      31.446 -24.006 -14.558  0.00  0.00    +0.143 C 
ENDBRANCH   2  11
BRANCH   1  18
ATOM     18  C   UNL     1      34.444 -19.361 -22.017  0.00  0.00    -0.076 C 
BRANCH  18  19
ATOM     19  C   UNL     1      35.480 -18.246 -22.029  0.00  0.00    -0.007 C 
BRANCH  19  23
ATOM     20  O   UNL     1      35.024 -17.858 -24.747  0.00  0.00    -0.274 OA
ATOM     21  N   UNL     1      34.026 -15.767 -24.501  0.00  0.00    -0.235 N 
ATOM     22  N   UNL     1      33.963 -14.761 -22.360  0.00  0.00    -0.397 NA
ATOM     23  C   UNL     1      34.889 -16.971 -22.558  0.00  0.00    +0.123 C 
ATOM     24  C   UNL     1      33.816 -15.666 -25.947  0.00  0.00    +0.100 C 
ATOM     25  C   UNL     1      33.040 -13.484 -24.188  0.00  0.00    +0.177 C 
ATOM     26  C   UNL     1      32.783 -14.635 -26.361  0.00  0.00    +0.025 C 
ATOM     27  C   UNL     1      33.119 -13.320 -25.693  0.00  0.00    +0.040 C 
ATOM     28  C   UNL     1      33.735 -14.725 -23.636  0.00  0.00    +0.192 C 
ATOM     29  C   UNL     1      34.655 -16.924 -24.035  0.00  0.00    +0.237 C 
ATOM     30  C   UNL     1      34.540 -15.890 -21.833  0.00  0.00    +0.097 C 
ATOM     31  C   UNL     1      34.765 -15.793 -20.348  0.00  0.00    +0.062 C 
BRANCH  25  32
ATOM     32  O   UNL     1      33.614 -12.340 -23.572  0.00  0.00    -0.376 OA
ATOM     33  H   UNL     1      34.201 -11.894 -24.202  0.00  0.00    +0.211 HD
ENDBRANCH  25  32
ENDBRANCH  19  23
ENDBRANCH  18  19
ENDBRANCH   1  18
TORSDOF 5
ENDMDL
MODEL 3
REMARK VINA RESULT:     -12.7      5.229     11.420
REMARK  Name = 115237
REMARK  5 active torsions:
REMARK  status: ('A' for Active; 'I' for Inactive)
REMARK    1  A    between atoms: N_1  and  C_18
REMARK    2  A    between atoms: C_2  and  C_11
REMARK    3  A    between atoms: C_18  and  C_19
REMARK    4  A    between atoms: C_19  and  C_23
REMARK    5  A    between atoms: C_25  and  O_32
REMARK                            x       y       z     vdW  Elec       q    Type
REMARK                         _______ _______ _______ _____ _____    ______ ____
ROOT
ATOM      1  N   UNL     1      34.451 -14.258 -23.002  0.00  0.00    +0.387 N 
ATOM      2  C   UNL     1      34.394 -17.008 -21.984  0.00  0.00    +0.039 C 
ATOM      3  C   UNL     1      34.913 -16.658 -23.388  0.00  0.00    -0.017 C 
ATOM      4  C   UNL     1      34.530 -15.788 -21.058  0.00  0.00    -0.017 C 
ATOM      5  C   UNL     1      34.252 -15.386 -23.923  0.00  0.00    -0.077 C 
ATOM      6  C   UNL     1      33.883 -14.547 -21.678  0.00  0.00    -0.077 C 
ATOM      7  H   UNL     1      35.455 -14.116 -22.889  0.00  0.00    -0.080 HD
ENDROOT
BRANCH   2  11
ATOM      8  F   UNL     1      33.804 -22.982 -18.953  0.00  0.00    -0.204 F 
ATOM      9  O   UNL     1      36.636 -19.597 -20.865  0.00  0.00    -0.354 OA
ATOM     10  N   UNL     1      36.368 -18.369 -21.458  0.00  0.00    -0.081 NA
ATOM     11  C   UNL     1      35.042 -18.249 -21.413  0.00  0.00    +0.100 A 
ATOM     12  C   UNL     1      34.411 -19.348 -20.814  0.00  0.00    +0.054 A 
ATOM     13  C   UNL     1      35.467 -20.179 -20.482  0.00  0.00    +0.179 A 
ATOM     14  C   UNL     1      33.102 -19.753 -20.509  0.00  0.00    +0.007 C 
ATOM     15  C   UNL     1      35.326 -21.414 -19.855  0.00  0.00    +0.070 C 
ATOM     16  C   UNL     1      32.924 -20.992 -19.876  0.00  0.00    +0.030 C 
ATOM     17  C   UNL     1      34.017 -21.805 -19.557  0.00  0.00    +0.143 C 
ENDBRANCH   2  11
BRANCH   1  18
ATOM     18  C   UNL     1      33.864 -13.037 -23.555  0.00  0.00    -0.076 C 
BRANCH  18  19
ATOM     19  C   UNL     1      32.478 -12.815 -22.963  0.00  0.00    -0.007 C 
BRANCH  19  23
ATOM     20  O   UNL     1      33.095 -10.561 -24.476  0.00  0.00    -0.274 OA
ATOM     21  N   UNL     1      32.466  -9.026 -22.840  0.00  0.00    -0.235 N 
ATOM     22  N   UNL     1      31.827  -9.813 -20.702  0.00  0.00    -0.397 NA
ATOM     23  C   UNL     1      32.352 -11.427 -22.404  0.00  0.00    +0.123 C 
ATOM     24  C   UNL     1      32.806  -7.906 -23.721  0.00  0.00    +0.100 C 
ATOM     25  C   UNL     1      31.858  -7.420 -21.014  0.00  0.00    +0.177 C 
ATOM     26  C   UNL     1      32.190  -6.580 -23.316  0.00  0.00    +0.025 C 
ATOM     27  C   UNL     1      32.495  -6.331 -21.855  0.00  0.00    +0.040 C 
ATOM     28  C   UNL     1      32.078  -8.841 -21.523  0.00  0.00    +0.192 C 
ATOM     29  C   UNL     1      32.671 -10.311 -23.348  0.00  0.00    +0.237 C 
ATOM     30  C   UNL     1      31.968 -11.101 -21.154  0.00  0.00    +0.097 C 
ATOM     31  C   UNL     1      31.663 -12.129 -20.097  0.00  0.00    +0.062 C 
BRANCH  25  32
ATOM     32  O   UNL     1      32.371  -7.335 -19.692  0.00  0.00    -0.376 OA
ATOM     33  H   UNL     1      33.301  -7.066 -19.723  0.00  0.00    +0.211 HD
ENDBRANCH  25  32
ENDBRANCH  19  23
ENDBRANCH  18  19
ENDBRANCH   1  18
TORSDOF 5
ENDMDL
MODEL 4
REMARK VINA RESULT:     -12.6      4.917     11.367
REMARK  Name = 115237
REMARK  5 active torsions:
REMARK  status: ('A' for Active; 'I' for Inactive)
REMARK    1  A    between atoms: N_1  and  C_18
REMARK    2  A    between atoms: C_2  and  C_11
REMARK    3  A    between atoms: C_18  and  C_19
REMARK    4  A    between atoms: C_19  and  C_23
REMARK    5  A    between atoms: C_25  and  O_32
REMARK                            x       y       z     vdW  Elec       q    Type
REMARK                         _______ _______ _______ _____ _____    ______ ____
ROOT
ATOM      1  N   UNL     1      34.474 -14.937 -23.499  0.00  0.00    +0.387 N 
ATOM      2  C   UNL     1      34.478 -17.509 -22.090  0.00  0.00    +0.039 C 
ATOM      3  C   UNL     1      34.993 -17.356 -23.530  0.00  0.00    -0.017 C 
ATOM      4  C   UNL     1      34.583 -16.164 -21.353  0.00  0.00    -0.017 C 
ATOM      5  C   UNL     1      34.305 -16.192 -24.245  0.00  0.00    -0.077 C 
ATOM      6  C   UNL     1      33.910 -15.042 -22.146  0.00  0.00    -0.077 C 
ATOM      7  H   UNL     1      35.475 -14.757 -23.409  0.00  0.00    -0.080 HD
ENDROOT
BRANCH   2  11
ATOM      8  F   UNL     1      34.015 -23.190 -18.521  0.00  0.00    -0.204 F 
ATOM      9  O   UNL     1      36.777 -19.805 -20.533  0.00  0.00    -0.354 OA
ATOM     10  N   UNL     1      36.483 -18.664 -21.268  0.00  0.00    -0.081 NA
ATOM     11  C   UNL     1      35.154 -18.638 -21.344  0.00  0.00    +0.100 A 
ATOM     12  C   UNL     1      34.545 -19.718 -20.689  0.00  0.00    +0.054 A 
ATOM     13  C   UNL     1      35.619 -20.433 -20.189  0.00  0.00    +0.179 A 
ATOM     14  C   UNL     1      33.244 -20.187 -20.451  0.00  0.00    +0.007 C 
ATOM     15  C   UNL     1      35.504 -21.608 -19.453  0.00  0.00    +0.070 C 
ATOM     16  C   UNL     1      33.092 -21.368 -19.712  0.00  0.00    +0.030 C 
ATOM     17  C   UNL     1      34.203 -22.064 -19.223  0.00  0.00    +0.143 C 
ENDBRANCH   2  11
BRANCH   1  18
ATOM     18  C   UNL     1      33.861 -13.824 -24.224  0.00  0.00    -0.076 C 
BRANCH  18  19
ATOM     19  C   UNL     1      32.702 -13.256 -23.417  0.00  0.00    -0.007 C 
BRANCH  19  23
ATOM     20  O   UNL     1      31.540 -11.900 -21.282  0.00  0.00    -0.274 OA
ATOM     21  N   UNL     1      32.417  -9.817 -21.848  0.00  0.00    -0.235 N 
ATOM     22  N   UNL     1      33.628  -9.583 -23.867  0.00  0.00    -0.397 NA
ATOM     23  C   UNL     1      32.841 -11.770 -23.253  0.00  0.00    +0.123 C 
ATOM     24  C   UNL     1      31.776  -9.200 -20.685  0.00  0.00    +0.100 C 
ATOM     25  C   UNL     1      33.315  -7.585 -22.551  0.00  0.00    +0.177 C 
ATOM     26  C   UNL     1      32.356  -7.856 -20.288  0.00  0.00    +0.025 C 
ATOM     27  C   UNL     1      32.399  -6.968 -21.512  0.00  0.00    +0.040 C 
ATOM     28  C   UNL     1      33.100  -9.075 -22.798  0.00  0.00    +0.192 C 
ATOM     29  C   UNL     1      32.205 -11.186 -22.032  0.00  0.00    +0.237 C 
ATOM     30  C   UNL     1      33.492 -10.932 -24.084  0.00  0.00    +0.097 C 
ATOM     31  C   UNL     1      34.135 -11.387 -25.367  0.00  0.00    +0.062 C 
BRANCH  25  32
ATOM     32  O   UNL     1      33.138  -6.899 -23.782  0.00  0.00    -0.376 OA
ATOM     33  H   UNL     1      33.202  -5.944 -23.632  0.00  0.00    +0.211 HD
ENDBRANCH  25  32
ENDBRANCH  19  23
ENDBRANCH  18  19
ENDBRANCH   1  18
TORSDOF 5
ENDMDL
MODEL 5
REMARK VINA RESULT:     -12.4      1.913      3.252
REMARK  Name = 115237
REMARK  5 active torsions:
REMARK  status: ('A' for Active; 'I' for Inactive)
REMARK    1  A    between atoms: N_1  and  C_18
REMARK    2  A    between atoms: C_2  and  C_11
REMARK    3  A    between atoms: C_18  and  C_19
REMARK    4  A    between atoms: C_19  and  C_23
REMARK    5  A    between atoms: C_25  and  O_32
REMARK                            x       y       z     vdW  Elec       q    Type
REMARK                         _______ _______ _______ _____ _____    ______ ____
ROOT
ATOM      1  N   UNL     1      33.983 -22.468 -19.451  0.00  0.00    +0.387 N 
ATOM      2  C   UNL     1      34.468 -19.823 -20.622  0.00  0.00    +0.039 C 
ATOM      3  C   UNL     1      35.518 -20.946 -20.656  0.00  0.00    -0.017 C 
ATOM      4  C   UNL     1      33.059 -20.429 -20.506  0.00  0.00    -0.017 C 
ATOM      5  C   UNL     1      35.341 -21.907 -19.479  0.00  0.00    -0.077 C 
ATOM      6  C   UNL     1      32.972 -21.409 -19.333  0.00  0.00    -0.077 C 
ATOM      7  H   UNL     1      33.827 -22.956 -20.334  0.00  0.00    -0.080 HD
ENDROOT
BRANCH   2  11
ATOM      8  F   UNL     1      34.493 -13.518 -22.962  0.00  0.00    -0.204 F 
ATOM      9  O   UNL     1      34.885 -18.234 -23.828  0.00  0.00    -0.354 OA
ATOM     10  N   UNL     1      34.817 -19.351 -23.006  0.00  0.00    -0.081 NA
ATOM     11  C   UNL     1      34.598 -18.866 -21.785  0.00  0.00    +0.100 A 
ATOM     12  C   UNL     1      34.516 -17.466 -21.757  0.00  0.00    +0.054 A 
ATOM     13  C   UNL     1      34.706 -17.110 -23.081  0.00  0.00    +0.179 A 
ATOM     14  C   UNL     1      34.311 -16.458 -20.802  0.00  0.00    +0.007 C 
ATOM     15  C   UNL     1      34.709 -15.799 -23.547  0.00  0.00    +0.070 C 
ATOM     16  C   UNL     1      34.307 -15.126 -21.238  0.00  0.00    +0.030 C 
ATOM     17  C   UNL     1      34.503 -14.805 -22.585  0.00  0.00    +0.143 C 
ENDBRANCH   2  11
BRANCH   1  18
ATOM     18  C   UNL     1      33.849 -23.428 -18.355  0.00  0.00    -0.076 C 
BRANCH  18  19
ATOM     19  C   UNL     1      33.035 -22.813 -17.225  0.00  0.00    -0.007 C 
BRANCH  19  23
ATOM     20  O   UNL     1      35.769 -22.748 -16.704  0.00  0.00    -0.274 OA
ATOM     21  N   UNL     1      35.574 -23.357 -14.463  0.00  0.00    -0.235 N 
ATOM     22  N   UNL     1      33.449 -23.946 -13.606  0.00  0.00    -0.397 NA
ATOM     23  C   UNL     1      33.596 -23.204 -15.888  0.00  0.00    +0.123 C 
ATOM     24  C   UNL     1      37.027 -23.279 -14.287  0.00  0.00    +0.100 C 
ATOM     25  C   UNL     1      35.315 -24.100 -12.084  0.00  0.00    +0.177 C 
ATOM     26  C   UNL     1      37.479 -23.175 -12.843  0.00  0.00    +0.025 C 
ATOM     27  C   UNL     1      36.820 -24.282 -12.050  0.00  0.00    +0.040 C 
ATOM     28  C   UNL     1      34.730 -23.809 -13.462  0.00  0.00    +0.192 C 
ATOM     29  C   UNL     1      35.078 -23.072 -15.738  0.00  0.00    +0.237 C 
ATOM     30  C   UNL     1      32.894 -23.639 -14.824  0.00  0.00    +0.097 C 
ATOM     31  C   UNL     1      31.404 -23.859 -14.859  0.00  0.00    +0.062 C 
BRANCH  25  32
ATOM     32  O   UNL     1      34.700 -25.277 -11.578  0.00  0.00    -0.376 OA
ATOM     33  H   UNL     1      33.789 -25.330 -11.903  0.00  0.00    +0.211 HD
ENDBRANCH  25  32
ENDBRANCH  19  23
ENDBRANCH  18  19
ENDBRANCH   1  18
TORSDOF 5
ENDMDL
MODEL 6
REMARK VINA RESULT:     -12.4      3.201     10.350
REMARK  Name = 115237
REMARK  5 active torsions:
REMARK  status: ('A' for Active; 'I' for Inactive)
REMARK    1  A    between atoms: N_1  and  C_18
REMARK    2  A    between atoms: C_2  and  C_11
REMARK    3  A    between atoms: C_18  and  C_19
REMARK    4  A    between atoms: C_19  and  C_23
REMARK    5  A    between atoms: C_25  and  O_32
REMARK                            x       y       z     vdW  Elec       q    Type
REMARK                         _______ _______ _______ _____ _____    ______ ____
ROOT
ATOM      1  N   UNL     1      34.732 -20.422 -20.272  0.00  0.00    +0.387 N 
ATOM      2  C   UNL     1      34.355 -22.596 -18.338  0.00  0.00    +0.039 C 
ATOM      3  C   UNL     1      35.705 -21.885 -18.528  0.00  0.00    -0.017 C 
ATOM      4  C   UNL     1      33.210 -21.663 -18.766  0.00  0.00    -0.017 C 
ATOM      5  C   UNL     1      35.844 -21.327 -19.946  0.00  0.00    -0.077 C 
ATOM      6  C   UNL     1      33.439 -21.114 -20.176  0.00  0.00    -0.077 C 
ATOM      7  H   UNL     1      34.734 -19.664 -19.589  0.00  0.00    -0.080 HD
ENDROOT
BRANCH   2  11
ATOM      8  F   UNL     1      30.288 -24.201 -13.229  0.00  0.00    -0.204 F 
ATOM      9  O   UNL     1      34.741 -23.978 -15.033  0.00  0.00    -0.354 OA
ATOM     10  N   UNL     1      35.242 -23.542 -16.253  0.00  0.00    -0.081 NA
ATOM     11  C   UNL     1      34.174 -23.140 -16.939  0.00  0.00    +0.100 A 
ATOM     12  C   UNL     1      32.975 -23.291 -16.227  0.00  0.00    +0.054 A 
ATOM     13  C   UNL     1      33.388 -23.828 -15.020  0.00  0.00    +0.179 A 
ATOM     14  C   UNL     1      31.608 -23.051 -16.434  0.00  0.00    +0.007 C 
ATOM     15  C   UNL     1      32.531 -24.156 -13.973  0.00  0.00    +0.070 C 
ATOM     16  C   UNL     1      30.717 -23.368 -15.399  0.00  0.00    +0.030 C 
ATOM     17  C   UNL     1      31.173 -23.910 -14.193  0.00  0.00    +0.143 C 
ENDBRANCH   2  11
BRANCH   1  18
ATOM     18  C   UNL     1      34.910 -19.854 -21.608  0.00  0.00    -0.076 C 
BRANCH  18  19
ATOM     19  C   UNL     1      35.449 -18.434 -21.499  0.00  0.00    -0.007 C 
BRANCH  19  23
ATOM     20  O   UNL     1      34.689 -15.789 -21.086  0.00  0.00    -0.274 OA
ATOM     21  N   UNL     1      34.204 -15.353 -23.323  0.00  0.00    -0.235 N 
ATOM     22  N   UNL     1      34.304 -17.122 -24.892  0.00  0.00    -0.397 NA
ATOM     23  C   UNL     1      34.928 -17.577 -22.616  0.00  0.00    +0.123 C 
ATOM     24  C   UNL     1      33.840 -13.971 -23.005  0.00  0.00    +0.100 C 
ATOM     25  C   UNL     1      33.614 -14.966 -25.728  0.00  0.00    +0.177 C 
ATOM     26  C   UNL     1      33.825 -13.035 -24.198  0.00  0.00    +0.025 C 
ATOM     27  C   UNL     1      32.984 -13.658 -25.290  0.00  0.00    +0.040 C 
ATOM     28  C   UNL     1      34.046 -15.887 -24.592  0.00  0.00    +0.192 C 
ATOM     29  C   UNL     1      34.606 -16.161 -22.256  0.00  0.00    +0.237 C 
ATOM     30  C   UNL     1      34.744 -17.957 -23.895  0.00  0.00    +0.097 C 
ATOM     31  C   UNL     1      34.987 -19.363 -24.375  0.00  0.00    +0.062 C 
BRANCH  25  32
ATOM     32  O   UNL     1      32.689 -15.669 -26.545  0.00  0.00    -0.376 OA
ATOM     33  H   UNL     1      33.169 -16.165 -27.224  0.00  0.00    +0.211 HD
ENDBRANCH  25  32
ENDBRANCH  19  23
ENDBRANCH  18  19
ENDBRANCH   1  18
TORSDOF 5
ENDMDL
MODEL 7
REMARK VINA RESULT:     -12.3      2.302      3.687
REMARK  Name = 115237
REMARK  5 active torsions:
REMARK  status: ('A' for Active; 'I' for Inactive)
REMARK    1  A    between atoms: N_1  and  C_18
REMARK    2  A    between atoms: C_2  and  C_11
REMARK    3  A    between atoms: C_18  and  C_19
REMARK    4  A    between atoms: C_19  and  C_23
REMARK    5  A    between atoms: C_25  and  O_32
REMARK                            x       y       z     vdW  Elec       q    Type
REMARK                         _______ _______ _______ _____ _____    ______ ____
ROOT
ATOM      1  N   UNL     1      34.356 -22.003 -18.604  0.00  0.00    +0.387 N 
ATOM      2  C   UNL     1      34.735 -20.126 -20.827  0.00  0.00    +0.039 C 
ATOM      3  C   UNL     1      33.375 -20.325 -20.137  0.00  0.00    -0.017 C 
ATOM      4  C   UNL     1      35.870 -20.501 -19.859  0.00  0.00    -0.017 C 
ATOM      5  C   UNL     1      33.256 -21.729 -19.540  0.00  0.00    -0.077 C 
ATOM      6  C   UNL     1      35.660 -21.898 -19.272  0.00  0.00    -0.077 C 
ATOM      7  H   UNL     1      34.323 -21.299 -17.866  0.00  0.00    -0.080 HD
ENDROOT
BRANCH   2  11
ATOM      8  F   UNL     1      34.584 -16.028 -26.157  0.00  0.00    -0.204 F 
ATOM      9  O   UNL     1      35.294 -16.620 -21.436  0.00  0.00    -0.354 OA
ATOM     10  N   UNL     1      35.227 -17.732 -20.606  0.00  0.00    -0.081 NA
ATOM     11  C   UNL     1      34.897 -18.741 -21.409  0.00  0.00    +0.100 A 
ATOM     12  C   UNL     1      34.740 -18.349 -22.747  0.00  0.00    +0.054 A 
ATOM     13  C   UNL     1      35.002 -16.991 -22.713  0.00  0.00    +0.179 A 
ATOM     14  C   UNL     1      34.413 -18.950 -23.972  0.00  0.00    +0.007 C 
ATOM     15  C   UNL     1      34.965 -16.157 -23.827  0.00  0.00    +0.070 C 
ATOM     16  C   UNL     1      34.368 -18.140 -25.115  0.00  0.00    +0.030 C 
ATOM     17  C   UNL     1      34.639 -16.770 -25.041  0.00  0.00    +0.143 C 
ENDBRANCH   2  11
BRANCH   1  18
ATOM     18  C   UNL     1      34.195 -23.325 -17.999  0.00  0.00    -0.076 C 
BRANCH  18  19
ATOM     19  C   UNL     1      33.115 -23.276 -16.928  0.00  0.00    -0.007 C 
BRANCH  19  23
ATOM     20  O   UNL     1      35.848 -23.084 -16.439  0.00  0.00    -0.274 OA
ATOM     21  N   UNL     1      35.689 -23.516 -14.155  0.00  0.00    -0.235 N 
ATOM     22  N   UNL     1      33.590 -24.100 -13.233  0.00  0.00    -0.397 NA
ATOM     23  C   UNL     1      33.697 -23.541 -15.569  0.00  0.00    +0.123 C 
ATOM     24  C   UNL     1      37.140 -23.379 -14.000  0.00  0.00    +0.100 C 
ATOM     25  C   UNL     1      35.470 -24.073 -11.721  0.00  0.00    +0.177 C 
ATOM     26  C   UNL     1      37.598 -23.145 -12.574  0.00  0.00    +0.025 C 
ATOM     27  C   UNL     1      36.980 -24.204 -11.687  0.00  0.00    +0.040 C 
ATOM     28  C   UNL     1      34.867 -23.912 -13.113  0.00  0.00    +0.192 C 
ATOM     29  C   UNL     1      35.175 -23.351 -15.444  0.00  0.00    +0.237 C 
ATOM     30  C   UNL     1      33.016 -23.910 -14.466  0.00  0.00    +0.097 C 
ATOM     31  C   UNL     1      31.535 -24.178 -14.469  0.00  0.00    +0.062 C 
BRANCH  25  32
ATOM     32  O   UNL     1      34.897 -25.223 -11.116  0.00  0.00    -0.376 OA
ATOM     33  H   UNL     1      33.966 -25.050 -10.911  0.00  0.00    +0.211 HD
ENDBRANCH  25  32
ENDBRANCH  19  23
ENDBRANCH  18  19
ENDBRANCH   1  18
TORSDOF 5
ENDMDL
MODEL 8
REMARK VINA RESULT:     -12.3      3.328     10.352
REMARK  Name = 115237
REMARK  5 active torsions:
REMARK  status: ('A' for Active; 'I' for Inactive)
REMARK    1  A    between atoms: N_1  and  C_18
REMARK    2  A    between atoms: C_2  and  C_11
REMARK    3  A    between atoms: C_18  and  C_19
REMARK    4  A    between atoms: C_19  and  C_23
REMARK    5  A    between atoms: C_25  and  O_32
REMARK                            x       y       z     vdW  Elec       q    Type
REMARK                         _______ _______ _______ _____ _____    ______ ____
ROOT
ATOM      1  N   UNL     1      35.424 -19.211 -20.858  0.00  0.00    +0.387 N 
ATOM      2  C   UNL     1      34.571 -21.658 -19.483  0.00  0.00    +0.039 C 
ATOM      3  C   UNL     1      35.972 -21.052 -19.297  0.00  0.00    -0.017 C 
ATOM      4  C   UNL     1      33.580 -20.560 -19.907  0.00  0.00    -0.017 C 
ATOM      5  C   UNL     1      36.402 -20.259 -20.533  0.00  0.00    -0.077 C 
ATOM      6  C   UNL     1      34.097 -19.785 -21.121  0.00  0.00    -0.077 C 
ATOM      7  H   UNL     1      35.344 -18.593 -20.049  0.00  0.00    -0.080 HD
ENDROOT
BRANCH   2  11
ATOM      8  F   UNL     1      35.851 -24.234 -13.405  0.00  0.00    -0.204 F 
ATOM      9  O   UNL     1      32.747 -23.541 -17.013  0.00  0.00    -0.354 OA
ATOM     10  N   UNL     1      32.854 -22.892 -18.236  0.00  0.00    -0.081 NA
ATOM     11  C   UNL     1      34.103 -22.431 -18.271  0.00  0.00    +0.100 A 
ATOM     12  C   UNL     1      34.837 -22.745 -17.119  0.00  0.00    +0.054 A 
ATOM     13  C   UNL     1      33.931 -23.452 -16.347  0.00  0.00    +0.179 A 
ATOM     14  C   UNL     1      36.133 -22.531 -16.624  0.00  0.00    +0.007 C 
ATOM     15  C   UNL     1      34.214 -23.977 -15.090  0.00  0.00    +0.070 C 
ATOM     16  C   UNL     1      36.452 -23.048 -15.360  0.00  0.00    +0.030 C 
ATOM     17  C   UNL     1      35.508 -23.757 -14.610  0.00  0.00    +0.143 C 
ENDBRANCH   2  11
BRANCH   1  18
ATOM     18  C   UNL     1      35.878 -18.425 -22.005  0.00  0.00    -0.076 C 
BRANCH  18  19
ATOM     19  C   UNL     1      34.762 -18.319 -23.035  0.00  0.00    -0.007 C 
BRANCH  19  23
ATOM     20  O   UNL     1      34.261 -17.487 -25.643  0.00  0.00    -0.274 OA
ATOM     21  N   UNL     1      33.827 -15.268 -25.081  0.00  0.00    -0.235 N 
ATOM     22  N   UNL     1      34.137 -14.561 -22.844  0.00  0.00    -0.397 NA
ATOM     23  C   UNL     1      34.475 -16.883 -23.366  0.00  0.00    +0.123 C 
ATOM     24  C   UNL     1      33.567 -14.934 -26.484  0.00  0.00    +0.100 C 
ATOM     25  C   UNL     1      33.455 -12.876 -24.432  0.00  0.00    +0.177 C 
ATOM     26  C   UNL     1      32.799 -13.643 -26.689  0.00  0.00    +0.025 C 
ATOM     27  C   UNL     1      33.487 -12.542 -25.911  0.00  0.00    +0.040 C 
ATOM     28  C   UNL     1      33.852 -14.307 -24.084  0.00  0.00    +0.192 C 
ATOM     29  C   UNL     1      34.176 -16.592 -24.803  0.00  0.00    +0.237 C 
ATOM     30  C   UNL     1      34.446 -15.853 -22.498  0.00  0.00    +0.097 C 
ATOM     31  C   UNL     1      34.773 -16.004 -21.036  0.00  0.00    +0.062 C 
BRANCH  25  32
ATOM     32  O   UNL     1      34.329 -11.991 -23.745  0.00  0.00    -0.376 OA
ATOM     33  H   UNL     1      35.213 -12.038 -24.140  0.00  0.00    +0.211 HD
ENDBRANCH  25  32
ENDBRANCH  19  23
ENDBRANCH  18  19
ENDBRANCH   1  18
TORSDOF 5
ENDMDL
MODEL 9
REMARK VINA RESULT:     -12.3      1.897      2.920
REMARK  Name = 115237
REMARK  5 active torsions:
REMARK  status: ('A' for Active; 'I' for Inactive)
REMARK    1  A    between atoms: N_1  and  C_18
REMARK    2  A    between atoms: C_2  and  C_11
REMARK    3  A    between atoms: C_18  and  C_19
REMARK    4  A    between atoms: C_19  and  C_23
REMARK    5  A    between atoms: C_25  and  O_32
REMARK                            x       y       z     vdW  Elec       q    Type
REMARK                         _______ _______ _______ _____ _____    ______ ____
ROOT
ATOM      1  N   UNL     1      35.335 -20.918 -20.475  0.00  0.00    +0.387 N 
ATOM      2  C   UNL     1      34.968 -18.065 -21.051  0.00  0.00    +0.039 C 
ATOM      3  C   UNL     1      36.333 -18.763 -21.172  0.00  0.00    -0.017 C 
ATOM      4  C   UNL     1      33.838 -19.095 -21.224  0.00  0.00    -0.017 C 
ATOM      5  C   UNL     1      36.427 -19.965 -20.230  0.00  0.00    -0.077 C 
ATOM      6  C   UNL     1      34.023 -20.285 -20.280  0.00  0.00    -0.077 C 
ATOM      7  H   UNL     1      35.396 -21.222 -21.447  0.00  0.00    -0.080 HD
ENDROOT
BRANCH   2  11
ATOM      8  F   UNL     1      32.099 -12.172 -22.556  0.00  0.00    -0.204 F 
ATOM      9  O   UNL     1      35.211 -15.652 -23.715  0.00  0.00    -0.354 OA
ATOM     10  N   UNL     1      35.569 -16.841 -23.092  0.00  0.00    -0.081 NA
ATOM     11  C   UNL     1      34.830 -16.884 -21.985  0.00  0.00    +0.100 A 
ATOM     12  C   UNL     1      33.990 -15.771 -21.842  0.00  0.00    +0.054 A 
ATOM     13  C   UNL     1      34.269 -15.015 -22.967  0.00  0.00    +0.179 A 
ATOM     14  C   UNL     1      33.040 -15.300 -20.922  0.00  0.00    +0.007 C 
ATOM     15  C   UNL     1      33.666 -13.796 -23.262  0.00  0.00    +0.070 C 
ATOM     16  C   UNL     1      32.412 -14.076 -21.189  0.00  0.00    +0.030 C 
ATOM     17  C   UNL     1      32.721 -13.339 -22.338  0.00  0.00    +0.143 C 
ENDBRANCH   2  11
BRANCH   1  18
ATOM     18  C   UNL     1      35.473 -22.087 -19.607  0.00  0.00    -0.076 C 
BRANCH  18  19
ATOM     19  C   UNL     1      36.276 -21.720 -18.367  0.00  0.00    -0.007 C 
BRANCH  19  23
ATOM     20  O   UNL     1      37.815 -22.185 -16.096  0.00  0.00    -0.274 OA
ATOM     21  N   UNL     1      36.068 -23.059 -14.826  0.00  0.00    -0.235 N 
ATOM     22  N   UNL     1      33.958 -23.396 -15.843  0.00  0.00    -0.397 NA
ATOM     23  C   UNL     1      35.705 -22.380 -17.146  0.00  0.00    +0.123 C 
ATOM     24  C   UNL     1      36.959 -23.249 -13.680  0.00  0.00    +0.100 C 
ATOM     25  C   UNL     1      34.172 -24.070 -13.536  0.00  0.00    +0.177 C 
ATOM     26  C   UNL     1      36.245 -23.424 -12.353  0.00  0.00    +0.025 C 
ATOM     27  C   UNL     1      35.197 -24.504 -12.506  0.00  0.00    +0.040 C 
ATOM     28  C   UNL     1      34.754 -23.498 -14.825  0.00  0.00    +0.192 C 
ATOM     29  C   UNL     1      36.637 -22.520 -15.984  0.00  0.00    +0.237 C 
ATOM     30  C   UNL     1      34.445 -22.836 -16.998  0.00  0.00    +0.097 C 
ATOM     31  C   UNL     1      33.425 -22.796 -18.105  0.00  0.00    +0.062 C 
BRANCH  25  32
ATOM     32  O   UNL     1      33.359 -25.186 -13.871  0.00  0.00    -0.376 OA
ATOM     33  H   UNL     1      33.182 -25.182 -14.824  0.00  0.00    +0.211 HD
ENDBRANCH  25  32
ENDBRANCH  19  23
ENDBRANCH  18  19
ENDBRANCH   1  18
TORSDOF 5
ENDMDL
