MODEL 1
REMARK VINA RESULT:     -13.2      0.000      0.000
REMARK  Name = 6105620
REMARK  4 active torsions:
REMARK  status: ('A' for Active; 'I' for Inactive)
REMARK    1  A    between atoms: N_2  and  C_7
REMARK    2  A    between atoms: N_3  and  C_21
REMARK    3  A    between atoms: C_9  and  C_29
REMARK    4  A    between atoms: C_30  and  C_31
REMARK                            x       y       z     vdW  Elec       q    Type
REMARK                         _______ _______ _______ _____ _____    ______ ____
ROOT
ATOM      1  N   UNL     1      33.682 -22.657 -17.602  0.00  0.00    -0.086 NA
ATOM      2  N   UNL     1      35.072 -22.427 -17.221  0.00  0.00    -0.132 N 
ATOM      3  N   UNL     1      33.543 -22.101 -18.906  0.00  0.00    -0.240 N 
ATOM      4  N   UNL     1      35.687 -21.682 -18.219  0.00  0.00    -0.146 NA
ATOM      5  C   UNL     1      34.767 -21.523 -19.158  0.00  0.00    +0.162 C 
ATOM      6  H   UNL     1      32.753 -22.125 -19.493  0.00  0.00    +0.170 HD
ENDROOT
BRANCH   2  11
ATOM      7  O   UNL     1      36.336 -27.154 -15.768  0.00  0.00    -0.220 OA
ATOM      8  O   UNL     1      38.811 -24.133 -12.337  0.00  0.00    -0.220 OA
ATOM      9  N   UNL     1      37.692 -26.934 -13.947  0.00  0.00    -0.062 NA
ATOM     10  N   UNL     1      38.285 -26.209 -13.123  0.00  0.00    -0.062 NA
ATOM     11  C   UNL     1      35.856 -23.012 -16.205  0.00  0.00    +0.089 C 
ATOM     12  C   UNL     1      35.981 -24.409 -16.107  0.00  0.00    +0.030 C 
ATOM     13  C   UNL     1      36.532 -22.210 -15.268  0.00  0.00    +0.019 C 
ATOM     14  C   UNL     1      36.761 -24.980 -15.098  0.00  0.00    +0.097 C 
ATOM     15  C   UNL     1      37.418 -24.177 -14.185  0.00  0.00    +0.096 C 
ATOM     16  C   UNL     1      37.310 -22.785 -14.262  0.00  0.00    +0.014 C 
ATOM     17  C   UNL     1      36.915 -26.432 -14.962  0.00  0.00    +0.174 C 
ATOM     18  C   UNL     1      38.221 -24.838 -13.151  0.00  0.00    +0.174 C 
ENDBRANCH   2  11
BRANCH   1  21
ATOM     19  S   UNL     1      32.980 -23.770 -15.272  0.00  0.00    -0.074 S 
ATOM     20  N   UNL     1      31.408 -23.157 -17.277  0.00  0.00    -0.310 N 
ATOM     21  C   UNL     1      32.686 -23.124 -16.883  0.00  0.00    +0.222 C 
ATOM     22  C   UNL     1      30.587 -23.692 -16.337  0.00  0.00    +0.052 C 
ATOM     23  C   UNL     1      31.236 -24.092 -15.163  0.00  0.00    +0.041 C 
ATOM     24  C   UNL     1      29.216 -23.850 -16.474  0.00  0.00    +0.015 C 
ATOM     25  C   UNL     1      30.536 -24.656 -14.109  0.00  0.00    +0.007 C 
ATOM     26  C   UNL     1      28.500 -24.417 -15.417  0.00  0.00    +0.001 C 
ATOM     27  C   UNL     1      29.155 -24.817 -14.244  0.00  0.00    +0.001 C 
ATOM     28  H   UNL     1      31.097 -22.831 -18.153  0.00  0.00    +0.149 HD
ENDBRANCH   1  21
BRANCH   5  29
ATOM     29  C   UNL     1      35.066 -20.764 -20.381  0.00  0.00    +0.037 C 
ATOM     30  C   UNL     1      34.396 -19.670 -20.704  0.00  0.00    +0.003 C 
BRANCH  30  31
ATOM     31  C   UNL     1      34.652 -18.882 -21.923  0.00  0.00    +0.000 C 
ATOM     32  C   UNL     1      34.902 -17.523 -21.812  0.00  0.00    +0.000 C 
ATOM     33  C   UNL     1      34.637 -19.514 -23.155  0.00  0.00    +0.000 C 
ATOM     34  C   UNL     1      35.145 -16.777 -22.966  0.00  0.00    +0.000 C 
ATOM     35  C   UNL     1      34.880 -18.768 -24.309  0.00  0.00    +0.000 C 
ATOM     36  C   UNL     1      35.134 -17.400 -24.214  0.00  0.00    +0.000 C 
ENDBRANCH  30  31
ENDBRANCH   5  29
TORSDOF 4
ENDMDL
MODEL 2
REMARK VINA RESULT:     -13.0      2.331      5.418
REMARK  Name = 6105620
REMARK  4 active torsions:
REMARK  status: ('A' for Active; 'I' for Inactive)
REMARK    1  A    between atoms: N_2  and  C_7
REMARK    2  A    between atoms: N_3  and  C_21
REMARK    3  A    between atoms: C_9  and  C_29
REMARK    4  A    between atoms: C_30  and  C_31
REMARK                            x       y       z     vdW  Elec       q    Type
REMARK                         _______ _______ _______ _____ _____    ______ ____
ROOT
ATOM      1  N   UNL     1      35.663 -22.532 -17.323  0.00  0.00    -0.086 NA
ATOM      2  N   UNL     1      34.250 -22.567 -17.686  0.00  0.00    -0.132 N 
ATOM      3  N   UNL     1      36.291 -21.703 -18.296  0.00  0.00    -0.240 N 
ATOM      4  N   UNL     1      34.081 -21.869 -18.875  0.00  0.00    -0.146 NA
ATOM      5  C   UNL     1      35.280 -21.397 -19.181  0.00  0.00    +0.162 C 
ATOM      6  H   UNL     1      37.231 -21.414 -18.329  0.00  0.00    +0.170 HD
ENDROOT
BRANCH   2  11
ATOM      7  O   UNL     1      33.351 -24.606 -13.093  0.00  0.00    -0.220 OA
ATOM      8  O   UNL     1      28.594 -24.007 -15.101  0.00  0.00    -0.220 OA
ATOM      9  N   UNL     1      31.088 -24.821 -12.909  0.00  0.00    -0.062 NA
ATOM     10  N   UNL     1      29.946 -24.678 -13.391  0.00  0.00    -0.062 NA
ATOM     11  C   UNL     1      33.118 -22.955 -16.940  0.00  0.00    +0.089 C 
ATOM     12  C   UNL     1      33.257 -23.505 -15.653  0.00  0.00    +0.030 C 
ATOM     13  C   UNL     1      31.823 -22.801 -17.468  0.00  0.00    +0.019 C 
ATOM     14  C   UNL     1      32.129 -23.886 -14.922  0.00  0.00    +0.097 C 
ATOM     15  C   UNL     1      30.864 -23.727 -15.456  0.00  0.00    +0.096 C 
ATOM     16  C   UNL     1      30.700 -23.183 -16.733  0.00  0.00    +0.014 C 
ATOM     17  C   UNL     1      32.233 -24.462 -13.578  0.00  0.00    +0.174 C 
ATOM     18  C   UNL     1      29.722 -24.146 -14.637  0.00  0.00    +0.174 C 
ENDBRANCH   2  11
BRANCH   1  21
ATOM     19  S   UNL     1      37.930 -22.747 -15.917  0.00  0.00    -0.074 S 
ATOM     20  N   UNL     1      35.822 -24.298 -15.780  0.00  0.00    -0.310 N 
ATOM     21  C   UNL     1      36.306 -23.220 -16.407  0.00  0.00    +0.222 C 
ATOM     22  C   UNL     1      36.698 -24.814 -14.880  0.00  0.00    +0.052 C 
ATOM     23  C   UNL     1      37.911 -24.122 -14.792  0.00  0.00    +0.041 C 
ATOM     24  C   UNL     1      36.463 -25.928 -14.088  0.00  0.00    +0.015 C 
ATOM     25  C   UNL     1      38.909 -24.524 -13.919  0.00  0.00    +0.007 C 
ATOM     26  C   UNL     1      37.461 -26.343 -13.204  0.00  0.00    +0.001 C 
ATOM     27  C   UNL     1      38.676 -25.646 -13.120  0.00  0.00    +0.001 C 
ATOM     28  H   UNL     1      34.929 -24.676 -15.952  0.00  0.00    +0.149 HD
ENDBRANCH   1  21
BRANCH   5  29
ATOM     29  C   UNL     1      35.486 -20.603 -20.401  0.00  0.00    +0.037 C 
ATOM     30  C   UNL     1      34.635 -19.661 -20.772  0.00  0.00    +0.003 C 
BRANCH  30  31
ATOM     31  C   UNL     1      34.794 -18.847 -21.989  0.00  0.00    +0.000 C 
ATOM     32  C   UNL     1      35.046 -17.489 -21.870  0.00  0.00    +0.000 C 
ATOM     33  C   UNL     1      34.688 -19.453 -23.230  0.00  0.00    +0.000 C 
ATOM     34  C   UNL     1      35.197 -16.718 -23.023  0.00  0.00    +0.000 C 
ATOM     35  C   UNL     1      34.839 -18.682 -24.383  0.00  0.00    +0.000 C 
ATOM     36  C   UNL     1      35.093 -17.315 -24.279  0.00  0.00    +0.000 C 
ENDBRANCH  30  31
ENDBRANCH   5  29
TORSDOF 4
ENDMDL
MODEL 3
REMARK VINA RESULT:     -12.7      2.433      5.966
REMARK  Name = 6105620
REMARK  4 active torsions:
REMARK  status: ('A' for Active; 'I' for Inactive)
REMARK    1  A    between atoms: N_2  and  C_7
REMARK    2  A    between atoms: N_3  and  C_21
REMARK    3  A    between atoms: C_9  and  C_29
REMARK    4  A    between atoms: C_30  and  C_31
REMARK                            x       y       z     vdW  Elec       q    Type
REMARK                         _______ _______ _______ _____ _____    ______ ____
ROOT
ATOM      1  N   UNL     1      35.645 -22.562 -16.902  0.00  0.00    -0.086 NA
ATOM      2  N   UNL     1      34.262 -22.805 -17.299  0.00  0.00    -0.132 N 
ATOM      3  N   UNL     1      36.207 -21.755 -17.932  0.00  0.00    -0.240 N 
ATOM      4  N   UNL     1      34.058 -22.247 -18.554  0.00  0.00    -0.146 NA
ATOM      5  C   UNL     1      35.202 -21.660 -18.870  0.00  0.00    +0.162 C 
ATOM      6  H   UNL     1      37.107 -21.357 -17.967  0.00  0.00    +0.170 HD
ENDROOT
BRANCH   2  11
ATOM      7  O   UNL     1      29.190 -22.262 -17.474  0.00  0.00    -0.220 OA
ATOM      8  O   UNL     1      29.935 -25.338 -13.349  0.00  0.00    -0.220 OA
ATOM      9  N   UNL     1      28.347 -23.462 -15.726  0.00  0.00    -0.062 NA
ATOM     10  N   UNL     1      28.526 -24.200 -14.736  0.00  0.00    -0.062 NA
ATOM     11  C   UNL     1      33.156 -23.260 -16.552  0.00  0.00    +0.089 C 
ATOM     12  C   UNL     1      31.847 -22.892 -16.908  0.00  0.00    +0.030 C 
ATOM     13  C   UNL     1      33.339 -24.092 -15.433  0.00  0.00    +0.019 C 
ATOM     14  C   UNL     1      30.757 -23.348 -16.161  0.00  0.00    +0.097 C 
ATOM     15  C   UNL     1      30.955 -24.164 -15.064  0.00  0.00    +0.096 C 
ATOM     16  C   UNL     1      32.247 -24.545 -14.690  0.00  0.00    +0.014 C 
ATOM     17  C   UNL     1      29.377 -22.986 -16.500  0.00  0.00    +0.174 C 
ATOM     18  C   UNL     1      29.770 -24.609 -14.323  0.00  0.00    +0.174 C 
ENDBRANCH   2  11
BRANCH   1  21
ATOM     19  S   UNL     1      35.830 -22.791 -14.242  0.00  0.00    -0.074 S 
ATOM     20  N   UNL     1      37.423 -23.837 -16.042  0.00  0.00    -0.310 N 
ATOM     21  C   UNL     1      36.330 -23.078 -15.906  0.00  0.00    +0.222 C 
ATOM     22  C   UNL     1      37.930 -24.237 -14.847  0.00  0.00    +0.052 C 
ATOM     23  C   UNL     1      37.216 -23.781 -13.733  0.00  0.00    +0.041 C 
ATOM     24  C   UNL     1      39.056 -25.031 -14.686  0.00  0.00    +0.015 C 
ATOM     25  C   UNL     1      37.607 -24.104 -12.445  0.00  0.00    +0.007 C 
ATOM     26  C   UNL     1      39.460 -25.363 -13.391  0.00  0.00    +0.001 C 
ATOM     27  C   UNL     1      38.741 -24.902 -12.278  0.00  0.00    +0.001 C 
ATOM     28  H   UNL     1      37.816 -24.080 -16.911  0.00  0.00    +0.149 HD
ENDBRANCH   1  21
BRANCH   5  29
ATOM     29  C   UNL     1      35.360 -20.963 -20.155  0.00  0.00    +0.037 C 
ATOM     30  C   UNL     1      34.748 -19.817 -20.406  0.00  0.00    +0.003 C 
BRANCH  30  31
ATOM     31  C   UNL     1      34.868 -19.087 -21.680  0.00  0.00    +0.000 C 
ATOM     32  C   UNL     1      35.196 -17.740 -21.662  0.00  0.00    +0.000 C 
ATOM     33  C   UNL     1      34.649 -19.759 -22.871  0.00  0.00    +0.000 C 
ATOM     34  C   UNL     1      35.309 -17.049 -22.869  0.00  0.00    +0.000 C 
ATOM     35  C   UNL     1      34.762 -19.068 -24.078  0.00  0.00    +0.000 C 
ATOM     36  C   UNL     1      35.092 -17.712 -24.076  0.00  0.00    +0.000 C 
ENDBRANCH  30  31
ENDBRANCH   5  29
TORSDOF 4
ENDMDL
MODEL 4
REMARK VINA RESULT:     -11.8      1.204      2.110
REMARK  Name = 6105620
REMARK  4 active torsions:
REMARK  status: ('A' for Active; 'I' for Inactive)
REMARK    1  A    between atoms: N_2  and  C_7
REMARK    2  A    between atoms: N_3  and  C_21
REMARK    3  A    between atoms: C_9  and  C_29
REMARK    4  A    between atoms: C_30  and  C_31
REMARK                            x       y       z     vdW  Elec       q    Type
REMARK                         _______ _______ _______ _____ _____    ______ ____
ROOT
ATOM      1  N   UNL     1      33.709 -22.957 -17.145  0.00  0.00    -0.086 NA
ATOM      2  N   UNL     1      35.089 -22.853 -16.683  0.00  0.00    -0.132 N 
ATOM      3  N   UNL     1      33.680 -22.322 -18.419  0.00  0.00    -0.240 N 
ATOM      4  N   UNL     1      35.809 -22.103 -17.605  0.00  0.00    -0.146 NA
ATOM      5  C   UNL     1      34.954 -21.824 -18.577  0.00  0.00    +0.162 C 
ATOM      6  H   UNL     1      32.922 -22.253 -19.044  0.00  0.00    +0.170 HD
ENDROOT
BRANCH   2  11
ATOM      7  O   UNL     1      37.762 -21.645 -12.506  0.00  0.00    -0.220 OA
ATOM      8  O   UNL     1      37.902 -26.841 -12.569  0.00  0.00    -0.220 OA
ATOM      9  N   UNL     1      38.442 -23.613 -11.577  0.00  0.00    -0.062 NA
ATOM     10  N   UNL     1      38.476 -24.861 -11.592  0.00  0.00    -0.062 NA
ATOM     11  C   UNL     1      35.775 -23.551 -15.667  0.00  0.00    +0.089 C 
ATOM     12  C   UNL     1      36.425 -22.857 -14.630  0.00  0.00    +0.030 C 
ATOM     13  C   UNL     1      35.824 -24.956 -15.668  0.00  0.00    +0.019 C 
ATOM     14  C   UNL     1      37.101 -23.558 -13.628  0.00  0.00    +0.097 C 
ATOM     15  C   UNL     1      37.139 -24.939 -13.645  0.00  0.00    +0.096 C 
ATOM     16  C   UNL     1      36.501 -25.651 -14.665  0.00  0.00    +0.014 C 
ATOM     17  C   UNL     1      37.791 -22.872 -12.531  0.00  0.00    +0.174 C 
ATOM     18  C   UNL     1      37.865 -25.614 -12.564  0.00  0.00    +0.174 C 
ENDBRANCH   2  11
BRANCH   1  21
ATOM     19  S   UNL     1      32.794 -24.047 -14.879  0.00  0.00    -0.074 S 
ATOM     20  N   UNL     1      31.400 -23.370 -16.992  0.00  0.00    -0.310 N 
ATOM     21  C   UNL     1      32.645 -23.387 -16.504  0.00  0.00    +0.222 C 
ATOM     22  C   UNL     1      30.492 -23.874 -16.118  0.00  0.00    +0.052 C 
ATOM     23  C   UNL     1      31.035 -24.302 -14.901  0.00  0.00    +0.041 C 
ATOM     24  C   UNL     1      29.129 -23.980 -16.357  0.00  0.00    +0.015 C 
ATOM     25  C   UNL     1      30.238 -24.840 -13.905  0.00  0.00    +0.007 C 
ATOM     26  C   UNL     1      28.315 -24.521 -15.359  0.00  0.00    +0.001 C 
ATOM     27  C   UNL     1      28.866 -24.948 -14.142  0.00  0.00    +0.001 C 
ATOM     28  H   UNL     1      31.167 -23.030 -17.887  0.00  0.00    +0.149 HD
ENDBRANCH   1  21
BRANCH   5  29
ATOM     29  C   UNL     1      35.371 -21.023 -19.737  0.00  0.00    +0.037 C 
ATOM     30  C   UNL     1      34.541 -20.193 -20.346  0.00  0.00    +0.003 C 
BRANCH  30  31
ATOM     31  C   UNL     1      34.910 -19.378 -21.517  0.00  0.00    +0.000 C 
ATOM     32  C   UNL     1      34.619 -19.846 -22.789  0.00  0.00    +0.000 C 
ATOM     33  C   UNL     1      35.540 -18.160 -21.325  0.00  0.00    +0.000 C 
ATOM     34  C   UNL     1      34.967 -19.075 -23.897  0.00  0.00    +0.000 C 
ATOM     35  C   UNL     1      35.889 -17.388 -22.433  0.00  0.00    +0.000 C 
ATOM     36  C   UNL     1      35.602 -17.845 -23.720  0.00  0.00    +0.000 C 
ENDBRANCH  30  31
ENDBRANCH   5  29
TORSDOF 4
ENDMDL
