MODEL 1
REMARK VINA RESULT:      -8.6      0.000      0.000
REMARK  Name = 1894
REMARK  1 active torsions:
REMARK  status: ('A' for Active; 'I' for Inactive)
REMARK    1  A    between atoms: C_8  and  N_18
REMARK                            x       y       z     vdW  Elec       q    Type
REMARK                         _______ _______ _______ _____ _____    ______ ____
ROOT
ATOM      1  N   UNL     1      32.907 -22.878 -17.436  0.00  0.00    -0.160 N 
ATOM      2  N   UNL     1      31.569 -22.817 -17.592  0.00  0.00    -0.170 NA
ATOM      3  N   UNL     1      33.133 -22.036 -19.654  0.00  0.00    -0.330 N 
ATOM      4  N   UNL     1      34.992 -22.542 -18.326  0.00  0.00    -0.271 NA
ATOM      5  C   UNL     1      32.162 -23.597 -15.543  0.00  0.00    +0.038 C 
ATOM      6  C   UNL     1      31.070 -23.260 -16.425  0.00  0.00    +0.123 C 
ATOM      7  C   UNL     1      33.319 -23.341 -16.221  0.00  0.00    +0.094 C 
ATOM      8  C   UNL     1      29.737 -23.419 -16.004  0.00  0.00    +0.162 C 
ATOM      9  C   UNL     1      32.075 -24.090 -14.246  0.00  0.00    +0.003 C 
ATOM     10  C   UNL     1      29.614 -23.918 -14.690  0.00  0.00    +0.026 C 
ATOM     11  C   UNL     1      30.730 -24.238 -13.853  0.00  0.00    +0.002 C 
ATOM     12  C   UNL     1      33.704 -22.479 -18.488  0.00  0.00    +0.197 C 
ATOM     13  H   UNL     1      32.153 -22.001 -19.740  0.00  0.00    +0.145 HD
ATOM     14  H   UNL     1      33.703 -21.751 -20.404  0.00  0.00    +0.145 HD
ATOM     15  H   UNL     1      35.367 -22.867 -17.475  0.00  0.00    +0.189 HD
ENDROOT
BRANCH   8  18
ATOM     16  O   UNL     1      27.961 -24.033 -17.342  0.00  0.00    -0.126 OA
ATOM     17  O   UNL     1      28.359 -21.894 -17.051  0.00  0.00    -0.126 OA
ATOM     18  N   UNL     1      28.639 -23.102 -16.834  0.00  0.00    +0.059 N 
ENDBRANCH   8  18
TORSDOF 1
ENDMDL
MODEL 2
REMARK VINA RESULT:      -8.0      3.220      4.241
REMARK  Name = 1894
REMARK  1 active torsions:
REMARK  status: ('A' for Active; 'I' for Inactive)
REMARK    1  A    between atoms: C_8  and  N_18
REMARK                            x       y       z     vdW  Elec       q    Type
REMARK                         _______ _______ _______ _____ _____    ______ ____
ROOT
ATOM      1  N   UNL     1      35.976 -23.399 -15.252  0.00  0.00    -0.160 N 
ATOM      2  N   UNL     1      35.481 -23.147 -16.480  0.00  0.00    -0.170 NA
ATOM      3  N   UNL     1      38.166 -23.171 -16.163  0.00  0.00    -0.330 N 
ATOM      4  N   UNL     1      37.810 -23.655 -13.901  0.00  0.00    -0.271 NA
ATOM      5  C   UNL     1      33.842 -23.499 -14.948  0.00  0.00    +0.038 C 
ATOM      6  C   UNL     1      34.147 -23.202 -16.327  0.00  0.00    +0.123 C 
ATOM      7  C   UNL     1      35.033 -23.619 -14.291  0.00  0.00    +0.094 C 
ATOM      8  C   UNL     1      33.113 -23.020 -17.265  0.00  0.00    +0.162 C 
ATOM      9  C   UNL     1      32.582 -23.641 -14.377  0.00  0.00    +0.003 C 
ATOM     10  C   UNL     1      31.820 -23.158 -16.715  0.00  0.00    +0.026 C 
ATOM     11  C   UNL     1      31.569 -23.454 -15.338  0.00  0.00    +0.002 C 
ATOM     12  C   UNL     1      37.345 -23.411 -15.090  0.00  0.00    +0.197 C 
ATOM     13  H   UNL     1      37.778 -22.988 -17.049  0.00  0.00    +0.145 HD
ATOM     14  H   UNL     1      39.143 -23.179 -16.046  0.00  0.00    +0.145 HD
ATOM     15  H   UNL     1      37.191 -23.824 -13.154  0.00  0.00    +0.189 HD
ENDROOT
BRANCH   8  18
ATOM     16  O   UNL     1      33.001 -21.618 -19.094  0.00  0.00    -0.126 OA
ATOM     17  O   UNL     1      33.953 -23.582 -19.338  0.00  0.00    -0.126 OA
ATOM     18  N   UNL     1      33.367 -22.728 -18.623  0.00  0.00    +0.059 N 
ENDBRANCH   8  18
TORSDOF 1
ENDMDL
MODEL 3
REMARK VINA RESULT:      -8.0      3.506      5.411
REMARK  Name = 1894
REMARK  1 active torsions:
REMARK  status: ('A' for Active; 'I' for Inactive)
REMARK    1  A    between atoms: C_8  and  N_18
REMARK                            x       y       z     vdW  Elec       q    Type
REMARK                         _______ _______ _______ _____ _____    ______ ____
ROOT
ATOM      1  N   UNL     1      34.508 -23.792 -14.613  0.00  0.00    -0.160 N 
ATOM      2  N   UNL     1      33.952 -23.686 -15.837  0.00  0.00    -0.170 NA
ATOM      3  N   UNL     1      32.584 -25.018 -13.923  0.00  0.00    -0.330 N 
ATOM      4  N   UNL     1      34.356 -24.567 -12.461  0.00  0.00    -0.271 NA
ATOM      5  C   UNL     1      35.979 -22.666 -15.721  0.00  0.00    +0.038 C 
ATOM      6  C   UNL     1      34.847 -22.987 -16.557  0.00  0.00    +0.123 C 
ATOM      7  C   UNL     1      35.728 -23.196 -14.487  0.00  0.00    +0.094 C 
ATOM      8  C   UNL     1      34.811 -22.571 -17.901  0.00  0.00    +0.162 C 
ATOM      9  C   UNL     1      37.118 -21.956 -16.082  0.00  0.00    +0.003 C 
ATOM     10  C   UNL     1      35.955 -21.846 -18.299  0.00  0.00    +0.026 C 
ATOM     11  C   UNL     1      37.053 -21.553 -17.431  0.00  0.00    +0.002 C 
ATOM     12  C   UNL     1      33.810 -24.471 -13.638  0.00  0.00    +0.197 C 
ATOM     13  H   UNL     1      32.203 -24.926 -14.826  0.00  0.00    +0.145 HD
ATOM     14  H   UNL     1      32.087 -25.502 -13.225  0.00  0.00    +0.145 HD
ATOM     15  H   UNL     1      35.237 -24.161 -12.292  0.00  0.00    +0.189 HD
ENDROOT
BRANCH   8  18
ATOM     16  O   UNL     1      33.822 -23.812 -19.576  0.00  0.00    -0.126 OA
ATOM     17  O   UNL     1      32.677 -22.169 -18.677  0.00  0.00    -0.126 OA
ATOM     18  N   UNL     1      33.724 -22.863 -18.754  0.00  0.00    +0.059 N 
ENDBRANCH   8  18
TORSDOF 1
ENDMDL
MODEL 4
REMARK VINA RESULT:      -7.9      8.871     10.582
REMARK  Name = 1894
REMARK  1 active torsions:
REMARK  status: ('A' for Active; 'I' for Inactive)
REMARK    1  A    between atoms: C_8  and  N_18
REMARK                            x       y       z     vdW  Elec       q    Type
REMARK                         _______ _______ _______ _____ _____    ______ ____
ROOT
ATOM      1  N   UNL     1      33.835 -15.671 -24.885  0.00  0.00    -0.160 N 
ATOM      2  N   UNL     1      33.772 -15.297 -23.591  0.00  0.00    -0.170 NA
ATOM      3  N   UNL     1      32.724 -13.640 -25.454  0.00  0.00    -0.330 N 
ATOM      4  N   UNL     1      33.369 -15.197 -27.078  0.00  0.00    -0.271 NA
ATOM      5  C   UNL     1      34.789 -17.311 -23.856  0.00  0.00    +0.038 C 
ATOM      6  C   UNL     1      34.360 -16.301 -22.918  0.00  0.00    +0.123 C 
ATOM      7  C   UNL     1      34.438 -16.875 -25.102  0.00  0.00    +0.094 C 
ATOM      8  C   UNL     1      34.583 -16.466 -21.538  0.00  0.00    +0.162 C 
ATOM      9  C   UNL     1      35.437 -18.506 -23.568  0.00  0.00    +0.003 C 
ATOM     10  C   UNL     1      35.241 -17.672 -21.213  0.00  0.00    +0.026 C 
ATOM     11  C   UNL     1      35.648 -18.644 -22.182  0.00  0.00    +0.002 C 
ATOM     12  C   UNL     1      33.302 -14.826 -25.834  0.00  0.00    +0.197 C 
ATOM     13  H   UNL     1      32.693 -13.392 -24.502  0.00  0.00    +0.145 HD
ATOM     14  H   UNL     1      32.344 -13.038 -26.133  0.00  0.00    +0.145 HD
ATOM     15  H   UNL     1      33.791 -16.055 -27.315  0.00  0.00    +0.189 HD
ENDROOT
BRANCH   8  18
ATOM     16  O   UNL     1      32.967 -15.436 -20.255  0.00  0.00    -0.126 OA
ATOM     17  O   UNL     1      35.041 -14.734 -20.087  0.00  0.00    -0.126 OA
ATOM     18  N   UNL     1      34.180 -15.505 -20.587  0.00  0.00    +0.059 N 
ENDBRANCH   8  18
TORSDOF 1
ENDMDL
MODEL 5
REMARK VINA RESULT:      -7.8      9.390     10.465
REMARK  Name = 1894
REMARK  1 active torsions:
REMARK  status: ('A' for Active; 'I' for Inactive)
REMARK    1  A    between atoms: C_8  and  N_18
REMARK                            x       y       z     vdW  Elec       q    Type
REMARK                         _______ _______ _______ _____ _____    ______ ____
ROOT
ATOM      1  N   UNL     1      33.299 -14.834 -21.840  0.00  0.00    -0.160 N 
ATOM      2  N   UNL     1      33.461 -15.358 -23.072  0.00  0.00    -0.170 NA
ATOM      3  N   UNL     1      31.938 -13.138 -22.817  0.00  0.00    -0.330 N 
ATOM      4  N   UNL     1      32.374 -13.206 -20.518  0.00  0.00    -0.271 NA
ATOM      5  C   UNL     1      34.567 -16.543 -21.480  0.00  0.00    +0.038 C 
ATOM      6  C   UNL     1      34.249 -16.430 -22.884  0.00  0.00    +0.123 C 
ATOM      7  C   UNL     1      33.943 -15.508 -20.844  0.00  0.00    +0.094 C 
ATOM      8  C   UNL     1      34.753 -17.365 -23.808  0.00  0.00    +0.162 C 
ATOM      9  C   UNL     1      35.354 -17.513 -20.871  0.00  0.00    +0.003 C 
ATOM     10  C   UNL     1      35.558 -18.364 -23.219  0.00  0.00    +0.026 C 
ATOM     11  C   UNL     1      35.843 -18.433 -21.819  0.00  0.00    +0.002 C 
ATOM     12  C   UNL     1      32.523 -13.703 -21.710  0.00  0.00    +0.197 C 
ATOM     13  H   UNL     1      32.073 -13.543 -23.704  0.00  0.00    +0.145 HD
ATOM     14  H   UNL     1      31.384 -12.330 -22.722  0.00  0.00    +0.145 HD
ATOM     15  H   UNL     1      32.809 -13.637 -19.746  0.00  0.00    +0.189 HD
ENDROOT
BRANCH   8  18
ATOM     16  O   UNL     1      35.042 -16.419 -25.892  0.00  0.00    -0.126 OA
ATOM     17  O   UNL     1      33.645 -18.102 -25.692  0.00  0.00    -0.126 OA
ATOM     18  N   UNL     1      34.468 -17.292 -25.189  0.00  0.00    +0.059 N 
ENDBRANCH   8  18
TORSDOF 1
ENDMDL
MODEL 6
REMARK VINA RESULT:      -7.7      3.538      4.504
REMARK  Name = 1894
REMARK  1 active torsions:
REMARK  status: ('A' for Active; 'I' for Inactive)
REMARK    1  A    between atoms: C_8  and  N_18
REMARK                            x       y       z     vdW  Elec       q    Type
REMARK                         _______ _______ _______ _____ _____    ______ ____
ROOT
ATOM      1  N   UNL     1      35.170 -24.569 -14.829  0.00  0.00    -0.160 N 
ATOM      2  N   UNL     1      35.097 -24.144 -16.106  0.00  0.00    -0.170 NA
ATOM      3  N   UNL     1      37.430 -25.202 -15.242  0.00  0.00    -0.330 N 
ATOM      4  N   UNL     1      36.417 -25.514 -13.155  0.00  0.00    -0.271 NA
ATOM      5  C   UNL     1      33.146 -23.837 -14.986  0.00  0.00    +0.038 C 
ATOM      6  C   UNL     1      33.843 -23.679 -16.240  0.00  0.00    +0.123 C 
ATOM      7  C   UNL     1      34.023 -24.408 -14.108  0.00  0.00    +0.094 C 
ATOM      8  C   UNL     1      33.194 -23.111 -17.352  0.00  0.00    +0.162 C 
ATOM      9  C   UNL     1      31.832 -23.483 -14.703  0.00  0.00    +0.003 C 
ATOM     10  C   UNL     1      31.856 -22.740 -17.096  0.00  0.00    +0.026 C 
ATOM     11  C   UNL     1      31.208 -22.918 -15.833  0.00  0.00    +0.002 C 
ATOM     12  C   UNL     1      36.359 -25.108 -14.388  0.00  0.00    +0.197 C 
ATOM     13  H   UNL     1      37.349 -24.883 -16.169  0.00  0.00    +0.145 HD
ATOM     14  H   UNL     1      38.279 -25.588 -14.925  0.00  0.00    +0.145 HD
ATOM     15  H   UNL     1      35.629 -25.432 -12.571  0.00  0.00    +0.189 HD
ENDROOT
BRANCH   8  18
ATOM     16  O   UNL     1      33.893 -23.905 -19.402  0.00  0.00    -0.126 OA
ATOM     17  O   UNL     1      34.345 -21.821 -18.877  0.00  0.00    -0.126 OA
ATOM     18  N   UNL     1      33.838 -22.938 -18.596  0.00  0.00    +0.059 N 
ENDBRANCH   8  18
TORSDOF 1
ENDMDL
MODEL 7
REMARK VINA RESULT:      -7.7      5.597      6.775
REMARK  Name = 1894
REMARK  1 active torsions:
REMARK  status: ('A' for Active; 'I' for Inactive)
REMARK    1  A    between atoms: C_8  and  N_18
REMARK                            x       y       z     vdW  Elec       q    Type
REMARK                         _______ _______ _______ _____ _____    ______ ____
ROOT
ATOM      1  N   UNL     1      34.077 -23.951 -14.616  0.00  0.00    -0.160 N 
ATOM      2  N   UNL     1      34.427 -23.949 -13.314  0.00  0.00    -0.170 NA
ATOM      3  N   UNL     1      32.152 -22.675 -14.029  0.00  0.00    -0.330 N 
ATOM      4  N   UNL     1      32.590 -23.311 -16.238  0.00  0.00    -0.271 NA
ATOM      5  C   UNL     1      35.918 -25.078 -14.604  0.00  0.00    +0.038 C 
ATOM      6  C   UNL     1      35.576 -24.646 -13.270  0.00  0.00    +0.123 C 
ATOM      7  C   UNL     1      34.939 -24.617 -15.438  0.00  0.00    +0.094 C 
ATOM      8  C   UNL     1      36.404 -24.971 -12.179  0.00  0.00    +0.162 C 
ATOM      9  C   UNL     1      37.027 -25.822 -14.990  0.00  0.00    +0.003 C 
ATOM     10  C   UNL     1      37.540 -25.727 -12.538  0.00  0.00    +0.026 C 
ATOM     11  C   UNL     1      37.836 -26.132 -13.878  0.00  0.00    +0.002 C 
ATOM     12  C   UNL     1      32.918 -23.301 -14.980  0.00  0.00    +0.197 C 
ATOM     13  H   UNL     1      32.432 -22.688 -13.086  0.00  0.00    +0.145 HD
ATOM     14  H   UNL     1      31.324 -22.211 -14.291  0.00  0.00    +0.145 HD
ATOM     15  H   UNL     1      33.163 -23.771 -16.894  0.00  0.00    +0.189 HD
ENDROOT
BRANCH   8  18
ATOM     16  O   UNL     1      36.767 -23.631 -10.337  0.00  0.00    -0.126 OA
ATOM     17  O   UNL     1      35.190 -25.155 -10.227  0.00  0.00    -0.126 OA
ATOM     18  N   UNL     1      36.107 -24.569 -10.859  0.00  0.00    +0.059 N 
ENDBRANCH   8  18
TORSDOF 1
ENDMDL
MODEL 8
REMARK VINA RESULT:      -7.7      8.807     10.764
REMARK  Name = 1894
REMARK  1 active torsions:
REMARK  status: ('A' for Active; 'I' for Inactive)
REMARK    1  A    between atoms: C_8  and  N_18
REMARK                            x       y       z     vdW  Elec       q    Type
REMARK                         _______ _______ _______ _____ _____    ______ ____
ROOT
ATOM      1  N   UNL     1      34.060 -14.965 -24.173  0.00  0.00    -0.160 N 
ATOM      2  N   UNL     1      34.485 -15.477 -23.001  0.00  0.00    -0.170 NA
ATOM      3  N   UNL     1      33.989 -12.822 -23.132  0.00  0.00    -0.330 N 
ATOM      4  N   UNL     1      33.397 -13.129 -25.375  0.00  0.00    -0.271 NA
ATOM      5  C   UNL     1      34.294 -17.064 -24.615  0.00  0.00    +0.038 C 
ATOM      6  C   UNL     1      34.643 -16.790 -23.241  0.00  0.00    +0.123 C 
ATOM      7  C   UNL     1      33.927 -15.876 -25.180  0.00  0.00    +0.094 C 
ATOM      8  C   UNL     1      35.067 -17.828 -22.390  0.00  0.00    +0.162 C 
ATOM      9  C   UNL     1      34.320 -18.295 -25.260  0.00  0.00    +0.003 C 
ATOM     10  C   UNL     1      35.104 -19.093 -23.017  0.00  0.00    +0.026 C 
ATOM     11  C   UNL     1      34.748 -19.314 -24.385  0.00  0.00    +0.002 C 
ATOM     12  C   UNL     1      33.807 -13.612 -24.240  0.00  0.00    +0.197 C 
ATOM     13  H   UNL     1      34.302 -13.223 -22.289  0.00  0.00    +0.145 HD
ATOM     14  H   UNL     1      33.809 -11.856 -23.181  0.00  0.00    +0.145 HD
ATOM     15  H   UNL     1      33.277 -13.726 -26.150  0.00  0.00    +0.189 HD
ENDROOT
BRANCH   8  18
ATOM     16  O   UNL     1      36.025 -18.506 -20.405  0.00  0.00    -0.126 OA
ATOM     17  O   UNL     1      35.114 -16.510 -20.499  0.00  0.00    -0.126 OA
ATOM     18  N   UNL     1      35.417 -17.605 -21.041  0.00  0.00    +0.059 N 
ENDBRANCH   8  18
TORSDOF 1
ENDMDL
MODEL 9
REMARK VINA RESULT:      -7.6      9.256     10.755
REMARK  Name = 1894
REMARK  1 active torsions:
REMARK  status: ('A' for Active; 'I' for Inactive)
REMARK    1  A    between atoms: C_8  and  N_18
REMARK                            x       y       z     vdW  Elec       q    Type
REMARK                         _______ _______ _______ _____ _____    ______ ____
ROOT
ATOM      1  N   UNL     1      34.825 -16.693 -21.999  0.00  0.00    -0.160 N 
ATOM      2  N   UNL     1      34.508 -16.095 -23.165  0.00  0.00    -0.170 NA
ATOM      3  N   UNL     1      36.116 -18.267 -23.238  0.00  0.00    -0.330 N 
ATOM      4  N   UNL     1      35.943 -18.369 -20.906  0.00  0.00    -0.271 NA
ATOM      5  C   UNL     1      33.555 -15.061 -21.381  0.00  0.00    +0.038 C 
ATOM      6  C   UNL     1      33.714 -15.068 -22.816  0.00  0.00    +0.123 C 
ATOM      7  C   UNL     1      34.278 -16.112 -20.892  0.00  0.00    +0.094 C 
ATOM      8  C   UNL     1      33.080 -14.094 -23.609  0.00  0.00    +0.162 C 
ATOM      9  C   UNL     1      32.813 -14.165 -20.620  0.00  0.00    +0.003 C 
ATOM     10  C   UNL     1      32.318 -13.168 -22.866  0.00  0.00    +0.026 C 
ATOM     11  C   UNL     1      32.191 -13.203 -21.441  0.00  0.00    +0.002 C 
ATOM     12  C   UNL     1      35.645 -17.800 -22.036  0.00  0.00    +0.197 C 
ATOM     13  H   UNL     1      35.870 -17.810 -24.074  0.00  0.00    +0.145 HD
ATOM     14  H   UNL     1      36.702 -19.058 -23.263  0.00  0.00    +0.145 HD
ATOM     15  H   UNL     1      35.586 -18.007 -20.062  0.00  0.00    +0.189 HD
ENDROOT
BRANCH   8  18
ATOM     16  O   UNL     1      32.993 -15.114 -25.677  0.00  0.00    -0.126 OA
ATOM     17  O   UNL     1      33.535 -12.988 -25.581  0.00  0.00    -0.126 OA
ATOM     18  N   UNL     1      33.208 -14.064 -25.015  0.00  0.00    +0.059 N 
ENDBRANCH   8  18
TORSDOF 1
ENDMDL
