MODEL 1
REMARK VINA RESULT:      -8.9      0.000      0.000
REMARK  Name = 93036
REMARK  7 active torsions:
REMARK  status: ('A' for Active; 'I' for Inactive)
REMARK    1  A    between atoms: C_2  and  O_16
REMARK    2  A    between atoms: C_3  and  C_18
REMARK    3  A    between atoms: C_5  and  N_9
REMARK    4  A    between atoms: C_18  and  O_19
REMARK    5  A    between atoms: O_19  and  P_20
REMARK    6  A    between atoms: P_20  and  O_22
REMARK    7  A    between atoms: P_20  and  O_24
REMARK                            x       y       z     vdW  Elec       q    Type
REMARK                         _______ _______ _______ _____ _____    ______ ____
ROOT
ATOM      1  O   UNL     1      35.779 -24.948 -15.884  0.00  0.00    -0.335 OA
ATOM      2  C   UNL     1      37.294 -23.579 -14.681  0.00  0.00    +0.144 C 
ATOM      3  C   UNL     1      36.681 -24.970 -14.761  0.00  0.00    +0.174 C 
ATOM      4  C   UNL     1      36.211 -22.693 -15.253  0.00  0.00    +0.083 C 
ATOM      5  C   UNL     1      35.573 -23.591 -16.301  0.00  0.00    +0.202 C 
ENDROOT
BRANCH   5   9
ATOM      6 BR   UNL     1      30.964 -23.468 -13.838  0.00  0.00    -0.043 Br
ATOM      7  O   UNL     1      34.292 -22.858 -18.736  0.00  0.00    -0.252 OA
ATOM      8  O   UNL     1      30.161 -22.704 -16.726  0.00  0.00    -0.269 OA
ATOM      9  N   UNL     1      34.168 -23.351 -16.457  0.00  0.00    -0.218 N 
ATOM     10  N   UNL     1      32.238 -22.787 -17.716  0.00  0.00    -0.235 N 
ATOM     11  C   UNL     1      33.623 -22.991 -17.709  0.00  0.00    +0.315 C 
ATOM     12  C   UNL     1      33.345 -23.479 -15.345  0.00  0.00    +0.082 C 
ATOM     13  C   UNL     1      32.022 -23.283 -15.360  0.00  0.00    +0.103 C 
ATOM     14  C   UNL     1      31.370 -22.902 -16.640  0.00  0.00    +0.260 C 
ATOM     15  H   UNL     1      31.837 -22.535 -18.580  0.00  0.00    +0.159 HD
ENDBRANCH   5   9
BRANCH   2  16
ATOM     16  O   UNL     1      38.456 -23.512 -15.506  0.00  0.00    -0.382 OA
ATOM     17  H   UNL     1      38.190 -23.369 -16.427  0.00  0.00    +0.210 HD
ENDBRANCH   2  16
BRANCH   3  18
ATOM     18  C   UNL     1      35.877 -25.335 -13.521  0.00  0.00    +0.186 C 
BRANCH  18  19
ATOM     19  O   UNL     1      36.646 -25.029 -12.369  0.00  0.00    -0.271 OA
BRANCH  19  20
ATOM     20  P   UNL     1      36.010 -24.039 -11.258  0.00  0.00    +0.473 P 
ATOM     21  O   UNL     1      36.958 -23.019 -10.699  0.00  0.00    -0.227 OA
BRANCH  20  22
ATOM     22  O   UNL     1      35.360 -25.047 -10.172  0.00  0.00    -0.303 OA
ATOM     23  H   UNL     1      34.964 -25.803 -10.631  0.00  0.00    +0.222 HD
ENDBRANCH  20  22
BRANCH  20  24
ATOM     24  O   UNL     1      34.719 -23.428 -12.017  0.00  0.00    -0.303 OA
ATOM     25  H   UNL     1      34.667 -22.474 -11.849  0.00  0.00    +0.222 HD
ENDBRANCH  20  24
ENDBRANCH  19  20
ENDBRANCH  18  19
ENDBRANCH   3  18
TORSDOF 7
ENDMDL
MODEL 2
REMARK VINA RESULT:      -8.8      2.755      4.108
REMARK  Name = 93036
REMARK  7 active torsions:
REMARK  status: ('A' for Active; 'I' for Inactive)
REMARK    1  A    between atoms: C_2  and  O_16
REMARK    2  A    between atoms: C_3  and  C_18
REMARK    3  A    between atoms: C_5  and  N_9
REMARK    4  A    between atoms: C_18  and  O_19
REMARK    5  A    between atoms: O_19  and  P_20
REMARK    6  A    between atoms: P_20  and  O_22
REMARK    7  A    between atoms: P_20  and  O_24
REMARK                            x       y       z     vdW  Elec       q    Type
REMARK                         _______ _______ _______ _____ _____    ______ ____
ROOT
ATOM      1  O   UNL     1      35.878 -22.919 -14.478  0.00  0.00    -0.335 OA
ATOM      2  C   UNL     1      35.974 -25.140 -13.654  0.00  0.00    +0.144 C 
ATOM      3  C   UNL     1      36.802 -23.903 -13.972  0.00  0.00    +0.174 C 
ATOM      4  C   UNL     1      34.834 -25.053 -14.643  0.00  0.00    +0.083 C 
ATOM      5  C   UNL     1      34.624 -23.553 -14.771  0.00  0.00    +0.202 C 
ENDROOT
BRANCH   5   9
ATOM      6 BR   UNL     1      36.147 -21.536 -19.346  0.00  0.00    -0.043 Br
ATOM      7  O   UNL     1      31.959 -23.763 -15.750  0.00  0.00    -0.252 OA
ATOM      8  O   UNL     1      33.128 -22.004 -19.832  0.00  0.00    -0.269 OA
ATOM      9  N   UNL     1      34.190 -23.162 -16.080  0.00  0.00    -0.218 N 
ATOM     10  N   UNL     1      32.560 -22.883 -17.781  0.00  0.00    -0.235 N 
ATOM     11  C   UNL     1      32.843 -23.305 -16.476  0.00  0.00    +0.315 C 
ATOM     12  C   UNL     1      35.128 -22.636 -16.961  0.00  0.00    +0.082 C 
ATOM     13  C   UNL     1      34.851 -22.235 -18.206  0.00  0.00    +0.103 C 
ATOM     14  C   UNL     1      33.454 -22.351 -18.700  0.00  0.00    +0.260 C 
ATOM     15  H   UNL     1      31.626 -22.974 -18.078  0.00  0.00    +0.159 HD
ENDBRANCH   5   9
BRANCH   2  16
ATOM     16  O   UNL     1      35.465 -25.056 -12.325  0.00  0.00    -0.382 OA
ATOM     17  H   UNL     1      36.177 -24.796 -11.722  0.00  0.00    +0.210 HD
ENDBRANCH   2  16
BRANCH   3  18
ATOM     18  C   UNL     1      37.854 -24.153 -15.043  0.00  0.00    +0.186 C 
BRANCH  18  19
ATOM     19  O   UNL     1      39.095 -24.424 -14.412  0.00  0.00    -0.271 OA
BRANCH  19  20
ATOM     20  P   UNL     1      39.815 -25.844 -14.705  0.00  0.00    +0.473 P 
ATOM     21  O   UNL     1      40.894 -26.221 -13.733  0.00  0.00    -0.227 OA
BRANCH  20  22
ATOM     22  O   UNL     1      40.284 -25.725 -16.248  0.00  0.00    -0.303 OA
ATOM     23  H   UNL     1      39.537 -25.929 -16.830  0.00  0.00    +0.222 HD
ENDBRANCH  20  22
BRANCH  20  24
ATOM     24  O   UNL     1      38.569 -26.872 -14.774  0.00  0.00    -0.303 OA
ATOM     25  H   UNL     1      38.046 -26.693 -15.571  0.00  0.00    +0.222 HD
ENDBRANCH  20  24
ENDBRANCH  19  20
ENDBRANCH  18  19
ENDBRANCH   3  18
TORSDOF 7
ENDMDL
MODEL 3
REMARK VINA RESULT:      -8.3      0.839      1.365
REMARK  Name = 93036
REMARK  7 active torsions:
REMARK  status: ('A' for Active; 'I' for Inactive)
REMARK    1  A    between atoms: C_2  and  O_16
REMARK    2  A    between atoms: C_3  and  C_18
REMARK    3  A    between atoms: C_5  and  N_9
REMARK    4  A    between atoms: C_18  and  O_19
REMARK    5  A    between atoms: O_19  and  P_20
REMARK    6  A    between atoms: P_20  and  O_22
REMARK    7  A    between atoms: P_20  and  O_24
REMARK                            x       y       z     vdW  Elec       q    Type
REMARK                         _______ _______ _______ _____ _____    ______ ____
ROOT
ATOM      1  O   UNL     1      35.447 -24.722 -15.911  0.00  0.00    -0.335 OA
ATOM      2  C   UNL     1      37.045 -23.147 -15.144  0.00  0.00    +0.144 C 
ATOM      3  C   UNL     1      36.482 -24.545 -14.924  0.00  0.00    +0.174 C 
ATOM      4  C   UNL     1      35.864 -22.387 -15.704  0.00  0.00    +0.083 C 
ATOM      5  C   UNL     1      35.137 -23.454 -16.506  0.00  0.00    +0.202 C 
ENDROOT
BRANCH   5   9
ATOM      6 BR   UNL     1      30.799 -23.567 -13.593  0.00  0.00    -0.043 Br
ATOM      7  O   UNL     1      33.589 -22.732 -18.785  0.00  0.00    -0.252 OA
ATOM      8  O   UNL     1      29.679 -22.787 -16.369  0.00  0.00    -0.269 OA
ATOM      9  N   UNL     1      33.715 -23.270 -16.516  0.00  0.00    -0.218 N 
ATOM     10  N   UNL     1      31.648 -22.765 -17.563  0.00  0.00    -0.235 N 
ATOM     11  C   UNL     1      33.033 -22.911 -17.699  0.00  0.00    +0.315 C 
ATOM     12  C   UNL     1      33.015 -23.452 -15.330  0.00  0.00    +0.082 C 
ATOM     13  C   UNL     1      31.690 -23.311 -15.208  0.00  0.00    +0.103 C 
ATOM     14  C   UNL     1      30.898 -22.935 -16.408  0.00  0.00    +0.260 C 
ATOM     15  H   UNL     1      31.152 -22.514 -18.376  0.00  0.00    +0.159 HD
ENDBRANCH   5   9
BRANCH   2  16
ATOM     16  O   UNL     1      38.091 -23.191 -16.112  0.00  0.00    -0.382 OA
ATOM     17  H   UNL     1      38.246 -24.110 -16.378  0.00  0.00    +0.210 HD
ENDBRANCH   2  16
BRANCH   3  18
ATOM     18  C   UNL     1      35.854 -24.721 -13.549  0.00  0.00    +0.186 C 
BRANCH  18  19
ATOM     19  O   UNL     1      36.213 -23.616 -12.736  0.00  0.00    -0.271 OA
BRANCH  19  20
ATOM     20  P   UNL     1      37.136 -23.884 -11.433  0.00  0.00    +0.473 P 
ATOM     21  O   UNL     1      36.407 -23.853 -10.123  0.00  0.00    -0.227 OA
BRANCH  20  22
ATOM     22  O   UNL     1      38.335 -22.810 -11.585  0.00  0.00    -0.303 OA
ATOM     23  H   UNL     1      38.695 -22.852 -12.483  0.00  0.00    +0.222 HD
ENDBRANCH  20  22
BRANCH  20  24
ATOM     24  O   UNL     1      37.851 -25.291 -11.783  0.00  0.00    -0.303 OA
ATOM     25  H   UNL     1      38.739 -25.308 -11.394  0.00  0.00    +0.222 HD
ENDBRANCH  20  24
ENDBRANCH  19  20
ENDBRANCH  18  19
ENDBRANCH   3  18
TORSDOF 7
ENDMDL
MODEL 4
REMARK VINA RESULT:      -7.8      2.500      3.820
REMARK  Name = 93036
REMARK  7 active torsions:
REMARK  status: ('A' for Active; 'I' for Inactive)
REMARK    1  A    between atoms: C_2  and  O_16
REMARK    2  A    between atoms: C_3  and  C_18
REMARK    3  A    between atoms: C_5  and  N_9
REMARK    4  A    between atoms: C_18  and  O_19
REMARK    5  A    between atoms: O_19  and  P_20
REMARK    6  A    between atoms: P_20  and  O_22
REMARK    7  A    between atoms: P_20  and  O_24
REMARK                            x       y       z     vdW  Elec       q    Type
REMARK                         _______ _______ _______ _____ _____    ______ ____
ROOT
ATOM      1  O   UNL     1      36.811 -23.266 -13.726  0.00  0.00    -0.335 OA
ATOM      2  C   UNL     1      37.148 -24.932 -12.074  0.00  0.00    +0.144 C 
ATOM      3  C   UNL     1      37.773 -24.241 -13.277  0.00  0.00    +0.174 C 
ATOM      4  C   UNL     1      35.666 -24.845 -12.360  0.00  0.00    +0.083 C 
ATOM      5  C   UNL     1      35.550 -23.515 -13.087  0.00  0.00    +0.202 C 
ENDROOT
BRANCH   5   9
ATOM      6 BR   UNL     1      30.576 -24.797 -14.051  0.00  0.00    -0.043 Br
ATOM      7  O   UNL     1      35.804 -22.506 -15.737  0.00  0.00    -0.252 OA
ATOM      8  O   UNL     1      31.449 -23.569 -16.752  0.00  0.00    -0.269 OA
ATOM      9  N   UNL     1      34.510 -23.510 -14.074  0.00  0.00    -0.218 N 
ATOM     10  N   UNL     1      33.629 -23.044 -16.226  0.00  0.00    -0.235 N 
ATOM     11  C   UNL     1      34.731 -22.986 -15.365  0.00  0.00    +0.315 C 
ATOM     12  C   UNL     1      33.269 -24.032 -13.732  0.00  0.00    +0.082 C 
ATOM     13  C   UNL     1      32.220 -24.085 -14.560  0.00  0.00    +0.103 C 
ATOM     14  C   UNL     1      32.370 -23.554 -15.940  0.00  0.00    +0.260 C 
ATOM     15  H   UNL     1      33.761 -22.684 -17.133  0.00  0.00    +0.159 HD
ENDBRANCH   5   9
BRANCH   2  16
ATOM     16  O   UNL     1      37.452 -24.207 -10.884  0.00  0.00    -0.382 OA
ATOM     17  H   UNL     1      37.693 -23.297 -11.113  0.00  0.00    +0.210 HD
ENDBRANCH   2  16
BRANCH   3  18
ATOM     18  C   UNL     1      38.048 -25.193 -14.432  0.00  0.00    +0.186 C 
BRANCH  18  19
ATOM     19  O   UNL     1      38.996 -26.161 -14.012  0.00  0.00    -0.271 OA
BRANCH  19  20
ATOM     20  P   UNL     1      40.521 -26.027 -14.538  0.00  0.00    +0.473 P 
ATOM     21  O   UNL     1      41.446 -27.119 -14.088  0.00  0.00    -0.227 OA
BRANCH  20  22
ATOM     22  O   UNL     1      40.949 -24.531 -14.097  0.00  0.00    -0.303 OA
ATOM     23  H   UNL     1      41.302 -24.056 -14.864  0.00  0.00    +0.222 HD
ENDBRANCH  20  22
BRANCH  20  24
ATOM     24  O   UNL     1      40.339 -25.904 -16.140  0.00  0.00    -0.303 OA
ATOM     25  H   UNL     1      39.423 -26.113 -16.378  0.00  0.00    +0.222 HD
ENDBRANCH  20  24
ENDBRANCH  19  20
ENDBRANCH  18  19
ENDBRANCH   3  18
TORSDOF 7
ENDMDL
MODEL 5
REMARK VINA RESULT:      -7.7      8.574     11.427
REMARK  Name = 93036
REMARK  7 active torsions:
REMARK  status: ('A' for Active; 'I' for Inactive)
REMARK    1  A    between atoms: C_2  and  O_16
REMARK    2  A    between atoms: C_3  and  C_18
REMARK    3  A    between atoms: C_5  and  N_9
REMARK    4  A    between atoms: C_18  and  O_19
REMARK    5  A    between atoms: O_19  and  P_20
REMARK    6  A    between atoms: P_20  and  O_22
REMARK    7  A    between atoms: P_20  and  O_24
REMARK                            x       y       z     vdW  Elec       q    Type
REMARK                         _______ _______ _______ _____ _____    ______ ____
ROOT
ATOM      1  O   UNL     1      35.778 -16.666 -22.892  0.00  0.00    -0.335 OA
ATOM      2  C   UNL     1      34.260 -16.936 -24.693  0.00  0.00    +0.144 C 
ATOM      3  C   UNL     1      34.719 -15.986 -23.595  0.00  0.00    +0.174 C 
ATOM      4  C   UNL     1      34.544 -18.300 -24.105  0.00  0.00    +0.083 C 
ATOM      5  C   UNL     1      35.793 -18.048 -23.277  0.00  0.00    +0.202 C 
ENDROOT
BRANCH   5   9
ATOM      6 BR   UNL     1      32.991 -20.896 -19.906  0.00  0.00    -0.043 Br
ATOM      7  O   UNL     1      38.166 -18.671 -21.831  0.00  0.00    -0.252 OA
ATOM      8  O   UNL     1      35.854 -21.212 -18.779  0.00  0.00    -0.269 OA
ATOM      9  N   UNL     1      35.855 -18.866 -22.101  0.00  0.00    -0.218 N 
ATOM     10  N   UNL     1      36.996 -19.935 -20.317  0.00  0.00    -0.235 N 
ATOM     11  C   UNL     1      37.082 -19.120 -21.452  0.00  0.00    +0.315 C 
ATOM     12  C   UNL     1      34.675 -19.412 -21.609  0.00  0.00    +0.082 C 
ATOM     13  C   UNL     1      34.600 -20.190 -20.524  0.00  0.00    +0.103 C 
ATOM     14  C   UNL     1      35.849 -20.504 -19.781  0.00  0.00    +0.260 C 
ATOM     15  H   UNL     1      37.840 -20.124 -19.848  0.00  0.00    +0.159 HD
ENDBRANCH   5   9
BRANCH   2  16
ATOM     16  O   UNL     1      35.050 -16.744 -25.864  0.00  0.00    -0.382 OA
ATOM     17  H   UNL     1      34.483 -16.437 -26.588  0.00  0.00    +0.210 HD
ENDBRANCH   2  16
BRANCH   3  18
ATOM     18  C   UNL     1      33.621 -15.664 -22.592  0.00  0.00    +0.186 C 
BRANCH  18  19
ATOM     19  O   UNL     1      33.628 -14.268 -22.337  0.00  0.00    -0.271 OA
BRANCH  19  20
ATOM     20  P   UNL     1      32.974 -13.281 -23.440  0.00  0.00    +0.473 P 
ATOM     21  O   UNL     1      32.520 -13.951 -24.703  0.00  0.00    -0.227 OA
BRANCH  20  22
ATOM     22  O   UNL     1      34.091 -12.126 -23.632  0.00  0.00    -0.303 OA
ATOM     23  H   UNL     1      34.749 -12.193 -22.924  0.00  0.00    +0.222 HD
ENDBRANCH  20  22
BRANCH  20  24
ATOM     24  O   UNL     1      31.807 -12.533 -22.607  0.00  0.00    -0.303 OA
ATOM     25  H   UNL     1      31.514 -13.103 -21.878  0.00  0.00    +0.222 HD
ENDBRANCH  20  24
ENDBRANCH  19  20
ENDBRANCH  18  19
ENDBRANCH   3  18
TORSDOF 7
ENDMDL
MODEL 6
REMARK VINA RESULT:      -7.6      2.690      4.474
REMARK  Name = 93036
REMARK  7 active torsions:
REMARK  status: ('A' for Active; 'I' for Inactive)
REMARK    1  A    between atoms: C_2  and  O_16
REMARK    2  A    between atoms: C_3  and  C_18
REMARK    3  A    between atoms: C_5  and  N_9
REMARK    4  A    between atoms: C_18  and  O_19
REMARK    5  A    between atoms: O_19  and  P_20
REMARK    6  A    between atoms: P_20  and  O_22
REMARK    7  A    between atoms: P_20  and  O_24
REMARK                            x       y       z     vdW  Elec       q    Type
REMARK                         _______ _______ _______ _____ _____    ______ ____
ROOT
ATOM      1  O   UNL     1      36.605 -23.182 -12.458  0.00  0.00    -0.335 OA
ATOM      2  C   UNL     1      35.941 -24.929 -11.000  0.00  0.00    +0.144 C 
ATOM      3  C   UNL     1      37.140 -24.204 -11.594  0.00  0.00    +0.174 C 
ATOM      4  C   UNL     1      34.887 -24.786 -12.075  0.00  0.00    +0.083 C 
ATOM      5  C   UNL     1      35.206 -23.423 -12.666  0.00  0.00    +0.202 C 
ENDROOT
BRANCH   5   9
ATOM      6 BR   UNL     1      36.999 -21.841 -17.314  0.00  0.00    -0.043 Br
ATOM      7  O   UNL     1      32.824 -24.369 -13.907  0.00  0.00    -0.252 OA
ATOM      8  O   UNL     1      34.249 -23.039 -18.069  0.00  0.00    -0.269 OA
ATOM      9  N   UNL     1      34.915 -23.343 -14.068  0.00  0.00    -0.218 N 
ATOM     10  N   UNL     1      33.552 -23.698 -15.976  0.00  0.00    -0.235 N 
ATOM     11  C   UNL     1      33.703 -23.841 -14.592  0.00  0.00    +0.315 C 
ATOM     12  C   UNL     1      35.856 -22.762 -14.909  0.00  0.00    +0.082 C 
ATOM     13  C   UNL     1      35.705 -22.628 -16.231  0.00  0.00    +0.103 C 
ATOM     14  C   UNL     1      34.455 -23.127 -16.862  0.00  0.00    +0.260 C 
ATOM     15  H   UNL     1      32.713 -24.039 -16.363  0.00  0.00    +0.159 HD
ENDBRANCH   5   9
BRANCH   2  16
ATOM     16  O   UNL     1      35.511 -24.267  -9.813  0.00  0.00    -0.382 OA
ATOM     17  H   UNL     1      35.799 -24.773  -9.038  0.00  0.00    +0.210 HD
ENDBRANCH   2  16
BRANCH   3  18
ATOM     18  C   UNL     1      38.027 -25.112 -12.434  0.00  0.00    +0.186 C 
BRANCH  18  19
ATOM     19  O   UNL     1      38.618 -24.343 -13.470  0.00  0.00    -0.271 OA
BRANCH  19  20
ATOM     20  P   UNL     1      39.463 -25.114 -14.616  0.00  0.00    +0.473 P 
ATOM     21  O   UNL     1      39.063 -26.541 -14.846  0.00  0.00    -0.227 OA
BRANCH  20  22
ATOM     22  O   UNL     1      41.002 -24.889 -14.175  0.00  0.00    -0.303 OA
ATOM     23  H   UNL     1      41.578 -24.985 -14.949  0.00  0.00    +0.222 HD
ENDBRANCH  20  22
BRANCH  20  24
ATOM     24  O   UNL     1      39.298 -24.144 -15.899  0.00  0.00    -0.303 OA
ATOM     25  H   UNL     1      39.397 -23.220 -15.620  0.00  0.00    +0.222 HD
ENDBRANCH  20  24
ENDBRANCH  19  20
ENDBRANCH  18  19
ENDBRANCH   3  18
TORSDOF 7
ENDMDL
MODEL 7
REMARK VINA RESULT:      -7.5      3.006      4.945
REMARK  Name = 93036
REMARK  7 active torsions:
REMARK  status: ('A' for Active; 'I' for Inactive)
REMARK    1  A    between atoms: C_2  and  O_16
REMARK    2  A    between atoms: C_3  and  C_18
REMARK    3  A    between atoms: C_5  and  N_9
REMARK    4  A    between atoms: C_18  and  O_19
REMARK    5  A    between atoms: O_19  and  P_20
REMARK    6  A    between atoms: P_20  and  O_22
REMARK    7  A    between atoms: P_20  and  O_24
REMARK                            x       y       z     vdW  Elec       q    Type
REMARK                         _______ _______ _______ _____ _____    ______ ____
ROOT
ATOM      1  O   UNL     1      34.301 -24.692 -14.944  0.00  0.00    -0.335 OA
ATOM      2  C   UNL     1      34.509 -24.031 -12.676  0.00  0.00    +0.144 C 
ATOM      3  C   UNL     1      33.531 -24.512 -13.739  0.00  0.00    +0.174 C 
ATOM      4  C   UNL     1      35.552 -23.289 -13.481  0.00  0.00    +0.083 C 
ATOM      5  C   UNL     1      35.588 -24.080 -14.779  0.00  0.00    +0.202 C 
ENDROOT
BRANCH   5   9
ATOM      6 BR   UNL     1      33.589 -21.968 -19.122  0.00  0.00    -0.043 Br
ATOM      7  O   UNL     1      38.109 -22.890 -15.360  0.00  0.00    -0.252 OA
ATOM      8  O   UNL     1      36.512 -20.959 -19.213  0.00  0.00    -0.269 OA
ATOM      9  N   UNL     1      35.874 -23.262 -15.921  0.00  0.00    -0.218 N 
ATOM     10  N   UNL     1      37.295 -21.935 -17.280  0.00  0.00    -0.235 N 
ATOM     11  C   UNL     1      37.158 -22.714 -16.125  0.00  0.00    +0.315 C 
ATOM     12  C   UNL     1      34.853 -23.014 -16.831  0.00  0.00    +0.082 C 
ATOM     13  C   UNL     1      34.991 -22.269 -17.933  0.00  0.00    +0.103 C 
ATOM     14  C   UNL     1      36.314 -21.656 -18.221  0.00  0.00    +0.260 C 
ATOM     15  H   UNL     1      38.183 -21.543 -17.441  0.00  0.00    +0.159 HD
ENDBRANCH   5   9
BRANCH   2  16
ATOM     16  O   UNL     1      35.110 -25.150 -12.026  0.00  0.00    -0.382 OA
ATOM     17  H   UNL     1      34.486 -25.891 -12.019  0.00  0.00    +0.210 HD
ENDBRANCH   2  16
BRANCH   3  18
ATOM     18  C   UNL     1      32.430 -23.502 -14.032  0.00  0.00    +0.186 C 
BRANCH  18  19
ATOM     19  O   UNL     1      31.524 -24.070 -14.964  0.00  0.00    -0.271 OA
BRANCH  19  20
ATOM     20  P   UNL     1      30.100 -24.614 -14.421  0.00  0.00    +0.473 P 
ATOM     21  O   UNL     1      28.898 -23.901 -14.966  0.00  0.00    -0.227 OA
BRANCH  20  22
ATOM     22  O   UNL     1      30.260 -24.570 -12.812  0.00  0.00    -0.303 OA
ATOM     23  H   UNL     1      30.118 -23.664 -12.498  0.00  0.00    +0.222 HD
ENDBRANCH  20  22
BRANCH  20  24
ATOM     24  O   UNL     1      30.167 -26.195 -14.757  0.00  0.00    -0.303 OA
ATOM     25  H   UNL     1      31.025 -26.404 -15.156  0.00  0.00    +0.222 HD
ENDBRANCH  20  24
ENDBRANCH  19  20
ENDBRANCH  18  19
ENDBRANCH   3  18
TORSDOF 7
ENDMDL
MODEL 8
REMARK VINA RESULT:      -7.3      3.668      6.275
REMARK  Name = 93036
REMARK  7 active torsions:
REMARK  status: ('A' for Active; 'I' for Inactive)
REMARK    1  A    between atoms: C_2  and  O_16
REMARK    2  A    between atoms: C_3  and  C_18
REMARK    3  A    between atoms: C_5  and  N_9
REMARK    4  A    between atoms: C_18  and  O_19
REMARK    5  A    between atoms: O_19  and  P_20
REMARK    6  A    between atoms: P_20  and  O_22
REMARK    7  A    between atoms: P_20  and  O_24
REMARK                            x       y       z     vdW  Elec       q    Type
REMARK                         _______ _______ _______ _____ _____    ______ ____
ROOT
ATOM      1  O   UNL     1      32.364 -24.203 -16.526  0.00  0.00    -0.335 OA
ATOM      2  C   UNL     1      32.169 -23.751 -14.207  0.00  0.00    +0.144 C 
ATOM      3  C   UNL     1      31.386 -23.966 -15.494  0.00  0.00    +0.174 C 
ATOM      4  C   UNL     1      33.474 -23.163 -14.694  0.00  0.00    +0.083 C 
ATOM      5  C   UNL     1      33.666 -23.855 -16.033  0.00  0.00    +0.202 C 
ENDROOT
BRANCH   5   9
ATOM      6 BR   UNL     1      33.014 -20.884 -20.283  0.00  0.00    -0.043 Br
ATOM      7  O   UNL     1      36.458 -23.297 -16.070  0.00  0.00    -0.252 OA
ATOM      8  O   UNL     1      36.061 -20.651 -19.807  0.00  0.00    -0.269 OA
ATOM      9  N   UNL     1      34.332 -23.028 -16.996  0.00  0.00    -0.218 N 
ATOM     10  N   UNL     1      36.241 -21.980 -17.936  0.00  0.00    -0.235 N 
ATOM     11  C   UNL     1      35.724 -22.809 -16.933  0.00  0.00    +0.315 C 
ATOM     12  C   UNL     1      33.574 -22.439 -18.002  0.00  0.00    +0.082 C 
ATOM     13  C   UNL     1      34.075 -21.649 -18.957  0.00  0.00    +0.103 C 
ATOM     14  C   UNL     1      35.534 -21.368 -18.962  0.00  0.00    +0.260 C 
ATOM     15  H   UNL     1      37.211 -21.814 -17.910  0.00  0.00    +0.159 HD
ENDBRANCH   5   9
BRANCH   2  16
ATOM     16  O   UNL     1      32.413 -25.004 -13.571  0.00  0.00    -0.382 OA
ATOM     17  H   UNL     1      33.362 -25.200 -13.598  0.00  0.00    +0.210 HD
ENDBRANCH   2  16
BRANCH   3  18
ATOM     18  C   UNL     1      30.563 -22.750 -15.899  0.00  0.00    +0.186 C 
BRANCH  18  19
ATOM     19  O   UNL     1      29.251 -22.891 -15.378  0.00  0.00    -0.271 OA
BRANCH  19  20
ATOM     20  P   UNL     1      28.020 -23.036 -16.419  0.00  0.00    +0.473 P 
ATOM     21  O   UNL     1      27.954 -24.347 -17.144  0.00  0.00    -0.227 OA
BRANCH  20  22
ATOM     22  O   UNL     1      28.159 -21.729 -17.362  0.00  0.00    -0.303 OA
ATOM     23  H   UNL     1      28.351 -22.006 -18.271  0.00  0.00    +0.222 HD
ENDBRANCH  20  22
BRANCH  20  24
ATOM     24  O   UNL     1      26.732 -22.696 -15.502  0.00  0.00    -0.303 OA
ATOM     25  H   UNL     1      26.993 -22.687 -14.568  0.00  0.00    +0.222 HD
ENDBRANCH  20  24
ENDBRANCH  19  20
ENDBRANCH  18  19
ENDBRANCH   3  18
TORSDOF 7
ENDMDL
MODEL 9
REMARK VINA RESULT:      -7.3      7.178      9.056
REMARK  Name = 93036
REMARK  7 active torsions:
REMARK  status: ('A' for Active; 'I' for Inactive)
REMARK    1  A    between atoms: C_2  and  O_16
REMARK    2  A    between atoms: C_3  and  C_18
REMARK    3  A    between atoms: C_5  and  N_9
REMARK    4  A    between atoms: C_18  and  O_19
REMARK    5  A    between atoms: O_19  and  P_20
REMARK    6  A    between atoms: P_20  and  O_22
REMARK    7  A    between atoms: P_20  and  O_24
REMARK                            x       y       z     vdW  Elec       q    Type
REMARK                         _______ _______ _______ _____ _____    ______ ____
ROOT
ATOM      1  O   UNL     1      34.705 -19.463 -22.495  0.00  0.00    -0.335 OA
ATOM      2  C   UNL     1      36.049 -19.610 -20.547  0.00  0.00    +0.144 C 
ATOM      3  C   UNL     1      34.846 -20.204 -21.267  0.00  0.00    +0.174 C 
ATOM      4  C   UNL     1      36.051 -18.172 -21.014  0.00  0.00    +0.083 C 
ATOM      5  C   UNL     1      35.527 -18.288 -22.436  0.00  0.00    +0.202 C 
ENDROOT
BRANCH   5   9
ATOM      6 BR   UNL     1      32.749 -14.199 -20.741  0.00  0.00    -0.043 Br
ATOM      7  O   UNL     1      35.017 -17.520 -25.130  0.00  0.00    -0.252 OA
ATOM      8  O   UNL     1      32.543 -13.878 -23.810  0.00  0.00    -0.269 OA
ATOM      9  N   UNL     1      34.756 -17.150 -22.840  0.00  0.00    -0.218 N 
ATOM     10  N   UNL     1      33.785 -15.707 -24.453  0.00  0.00    -0.235 N 
ATOM     11  C   UNL     1      34.557 -16.848 -24.204  0.00  0.00    +0.315 C 
ATOM     12  C   UNL     1      34.204 -16.339 -21.854  0.00  0.00    +0.082 C 
ATOM     13  C   UNL     1      33.467 -15.251 -22.100  0.00  0.00    +0.103 C 
ATOM     14  C   UNL     1      33.209 -14.865 -23.512  0.00  0.00    +0.260 C 
ATOM     15  H   UNL     1      33.633 -15.478 -25.398  0.00  0.00    +0.159 HD
ENDBRANCH   5   9
BRANCH   2  16
ATOM     16  O   UNL     1      37.243 -20.258 -20.978  0.00  0.00    -0.382 OA
ATOM     17  H   UNL     1      37.951 -19.603 -21.071  0.00  0.00    +0.210 HD
ENDBRANCH   2  16
BRANCH   3  18
ATOM     18  C   UNL     1      33.552 -20.059 -20.480  0.00  0.00    +0.186 C 
BRANCH  18  19
ATOM     19  O   UNL     1      33.006 -21.348 -20.252  0.00  0.00    -0.271 OA
BRANCH  19  20
ATOM     20  P   UNL     1      33.646 -22.259 -19.076  0.00  0.00    +0.473 P 
ATOM     21  O   UNL     1      34.872 -21.688 -18.428  0.00  0.00    -0.227 OA
BRANCH  20  22
ATOM     22  O   UNL     1      33.842 -23.705 -19.775  0.00  0.00    -0.303 OA
ATOM     23  H   UNL     1      34.298 -23.595 -20.623  0.00  0.00    +0.222 HD
ENDBRANCH  20  22
BRANCH  20  24
ATOM     24  O   UNL     1      32.393 -22.494 -18.081  0.00  0.00    -0.303 OA
ATOM     25  H   UNL     1      32.287 -21.720 -17.507  0.00  0.00    +0.222 HD
ENDBRANCH  20  24
ENDBRANCH  19  20
ENDBRANCH  18  19
ENDBRANCH   3  18
TORSDOF 7
ENDMDL
